REMARK  Name = *****
REMARK  5 active torsions:
REMARK  status: ('A' for Active; 'I' for Inactive)
REMARK    1  A    between atoms: C_1  and  C_2
REMARK    2  A    between atoms: C_5  and  S_8
REMARK    3  A    between atoms: S_8  and  C_9
REMARK    4  A    between atoms: C_9  and  C_11
REMARK    5  A    between atoms: C_15  and  C_17
REMARK                            x       y       z     vdW  Elec       q    Type
REMARK                         _______ _______ _______ _____ _____    ______ ____
ROOT
ATOM      1  C   UNL     1      -4.257   1.684  -0.081  0.00  0.00    +0.000 C 
ATOM      2  O   UNL     1      -5.460   1.863   0.065  0.00  0.00    +0.000 OA
ENDROOT
BRANCH   1   3
ATOM      3  C   UNL     1      -3.342   2.857  -0.228  0.00  0.00    +0.000 A 
ATOM      4  C   UNL     1      -1.954   2.784  -0.052  0.00  0.00    +0.000 A 
ATOM      5  C   UNL     1      -1.163   3.925  -0.209  0.00  0.00    +0.000 A 
ATOM      6  C   UNL     1      -1.749   5.148  -0.536  0.00  0.00    +0.000 A 
ATOM      7  C   UNL     1      -3.134   5.248  -0.695  0.00  0.00    +0.000 A 
ATOM      8  C   UNL     1      -3.922   4.097  -0.545  0.00  0.00    +0.000 A 
ATOM      9  C   UNL     1      -3.772   6.553  -1.073  0.00  0.00    +0.000 C 
ENDBRANCH   1   3
BRANCH   1  10
ATOM     10  S   UNL     1      -3.548   0.074  -0.207  0.00  0.00    +0.000 S 
BRANCH  10  15
ATOM     11  C   UNL     1      -7.724  -3.750   2.058  0.00  0.00    +0.000 C 
ATOM     12  C   UNL     1      -6.717  -2.776   1.522  0.00  0.00    +0.000 A 
ATOM     13  C   UNL     1      -7.034  -1.955   0.435  0.00  0.00    +0.000 A 
ATOM     14  C   UNL     1      -6.084  -1.073  -0.089  0.00  0.00    +0.000 A 
ATOM     15  C   UNL     1      -4.805  -0.992   0.468  0.00  0.00    +0.000 A 
ATOM     16  C   UNL     1      -4.480  -1.831   1.539  0.00  0.00    +0.000 A 
ATOM     17  C   UNL     1      -5.427  -2.718   2.061  0.00  0.00    +0.000 A 
ENDBRANCH  10  15
ENDBRANCH   1  10
TORSDOF 3
