REMARK  Name = *****
REMARK  6 active torsions:
REMARK  status: ('A' for Active; 'I' for Inactive)
REMARK    1  A    between atoms: C_1  and  C_2
REMARK    2  A    between atoms: C_2  and  O_3
REMARK    3  A    between atoms: O_3  and  P_4
REMARK    4  A    between atoms: P_4  and  C_6
REMARK    5  A    between atoms: P_4  and  O_12
REMARK    6  A    between atoms: O_12  and  C_13
REMARK                            x       y       z     vdW  Elec       q    Type
REMARK                         _______ _______ _______ _____ _____    ______ ____
ROOT
ATOM      1  P   UNL     1       4.684   1.080  -0.932  0.00  0.00    +0.000 P 
ATOM      2  S   UNL     1       4.664   0.791   1.067  0.00  0.00    +0.000 S 
ENDROOT
BRANCH   1   3
ATOM      3  C   UNL     1       4.684  -0.408  -2.050  0.00  0.00    +0.000 A 
ATOM      4  C   UNL     1       5.037  -0.255  -3.401  0.00  0.00    +0.000 A 
ATOM      5  C   UNL     1       5.035  -1.358  -4.256  0.00  0.00    +0.000 A 
ATOM      6  C   UNL     1       4.678  -2.615  -3.771  0.00  0.00    +0.000 A 
ATOM      7  C   UNL     1       4.321  -2.775  -2.432  0.00  0.00    +0.000 A 
ATOM      8  C   UNL     1       4.323  -1.676  -1.572  0.00  0.00    +0.000 A 
ENDBRANCH   1   3
BRANCH   1   9
ATOM      9  O   UNL     1       2.954   1.080  -0.932  0.00  0.00    +0.000 OA
BRANCH   9  11
ATOM     10  C   UNL     1       0.870   1.908  -1.745  0.00  0.00    +0.000 C 
ATOM     11  C   UNL     1       2.378   1.997  -1.850  0.00  0.00    +0.000 C 
ENDBRANCH   9  11
ENDBRANCH   1   9
BRANCH   1  12
ATOM     12  O   UNL     1       6.414   1.080  -0.932  0.00  0.00    +0.000 OA
BRANCH  12  13
ATOM     13  C   UNL     1       7.039   2.150  -1.514  0.00  0.00    +0.000 A 
ATOM     14  C   UNL     1       8.150   1.881  -2.309  0.00  0.00    +0.000 A 
ATOM     15  C   UNL     1       8.825   2.929  -2.933  0.00  0.00    +0.000 A 
ATOM     16  C   UNL     1       8.392   4.242  -2.750  0.00  0.00    +0.000 A 
ATOM     17  C   UNL     1       7.292   4.509  -1.934  0.00  0.00    +0.000 A 
ATOM     18  C   UNL     1       6.614   3.462  -1.309  0.00  0.00    +0.000 A 
ENDBRANCH  12  13
ENDBRANCH   1  12
TORSDOF 5
