REMARK  Name = *****
REMARK  3 active torsions:
REMARK  status: ('A' for Active; 'I' for Inactive)
REMARK    1  A    between atoms: C_4  and  C_7
REMARK    2  A    between atoms: C_7  and  C_8
REMARK    3  A    between atoms: C_8  and  P_9
REMARK                            x       y       z     vdW  Elec       q    Type
REMARK                         _______ _______ _______ _____ _____    ______ ____
ROOT
ATOM      1  C   UNL     1      -2.827   0.464  -0.507  0.00  0.00    +0.000 C 
ENDROOT
BRANCH   1   5
ATOM      2  C   UNL     1       1.362  -0.290   0.190  0.00  0.00    +0.000 A 
ATOM      3  C   UNL     1       0.771  -0.690  -1.006  0.00  0.00    +0.000 A 
ATOM      4  C   UNL     1      -0.583  -0.442  -1.235  0.00  0.00    +0.000 A 
ATOM      5  C   UNL     1      -1.357   0.214  -0.268  0.00  0.00    +0.000 A 
ATOM      6  C   UNL     1      -0.755   0.607   0.934  0.00  0.00    +0.000 A 
ATOM      7  C   UNL     1       0.600   0.358   1.160  0.00  0.00    +0.000 A 
ENDBRANCH   1   5
BRANCH   1   8
ATOM      8  C   UNL     1      -3.673  -0.749  -0.116  0.00  0.00    +0.000 C 
BRANCH   8   9
ATOM      9  P   UNL     1      -5.482  -0.436  -0.358  0.00  0.00    +0.000 P 
ATOM     10  C   UNL     1      -6.146  -2.117  -0.082  0.00  0.00    +0.000 A 
ATOM     11  C   UNL     1      -6.496  -2.667  -1.255  0.00  0.00    +0.000 A 
ATOM     12  C   UNL     1      -6.214  -1.860  -2.417  0.00  0.00    +0.000 A 
ATOM     13  C   UNL     1      -5.641  -0.675  -2.163  0.00  0.00    +0.000 A 
ENDBRANCH   8   9
ENDBRANCH   1   8
TORSDOF 3
