MODEL 1
REMARK VINA RESULT:      -4.4      0.000      0.000
REMARK  Name = *****
REMARK  3 active torsions:
REMARK  status: ('A' for Active; 'I' for Inactive)
REMARK    1  A    between atoms: C_4  and  C_7
REMARK    2  A    between atoms: C_7  and  C_8
REMARK    3  A    between atoms: C_8  and  C_10
REMARK                            x       y       z     vdW  Elec       q    Type
REMARK                         _______ _______ _______ _____ _____    ______ ____
ROOT
ATOM      1  C   UNL     1     100.321 127.062  83.085  0.00  0.00    +0.000 C 
ATOM      2  O   UNL     1      99.438 126.789  82.270  0.00  0.00    +0.000 OA
ENDROOT
BRANCH   1   3
ATOM      3  C   UNL     1     100.207 128.278  83.999  0.00  0.00    +0.000 C 
ATOM      4  C   UNL     1      99.317 129.353  83.364  0.00  0.00    +0.000 C 
ATOM      5  C   UNL     1      99.272 130.621  84.213  0.00  0.00    +0.000 C 
ATOM      6  C   UNL     1     100.674 131.155  84.491  0.00  0.00    +0.000 C 
ATOM      7  C   UNL     1     101.560 130.093  85.136  0.00  0.00    +0.000 C 
ATOM      8  C   UNL     1     101.610 128.816  84.302  0.00  0.00    +0.000 C 
ENDBRANCH   1   3
BRANCH   1   9
ATOM      9  C   UNL     1     101.609 126.256  83.194  0.00  0.00    +0.000 C 
BRANCH   9  13
ATOM     10  C   UNL     1     104.724 126.012  80.115  0.00  0.00    +0.000 C 
ATOM     11  C   UNL     1     104.104 124.713  80.621  0.00  0.00    +0.000 C 
ATOM     12  C   UNL     1     103.377 124.914  81.948  0.00  0.00    +0.000 C 
ATOM     13  C   UNL     1     102.312 126.023  81.848  0.00  0.00    +0.000 C 
ATOM     14  C   UNL     1     102.959 127.328  81.355  0.00  0.00    +0.000 C 
ATOM     15  C   UNL     1     103.692 127.131  80.029  0.00  0.00    +0.000 C 
ENDBRANCH   9  13
ENDBRANCH   1   9
TORSDOF 3
ENDMDL
