MODEL 1
REMARK VINA RESULT:      -5.4      0.000      0.000
REMARK  Name = *****
REMARK  1 active torsions:
REMARK  status: ('A' for Active; 'I' for Inactive)
REMARK    1  A    between atoms: C_6  and  C_7
REMARK                            x       y       z     vdW  Elec       q    Type
REMARK                         _______ _______ _______ _____ _____    ______ ____
ROOT
ATOM      1  C   UNL     1     103.716 127.053  82.907  0.00  0.00    +0.000 C 
ATOM      2  C   UNL     1     102.950 128.336  83.226  0.00  0.00    +0.000 C 
ATOM      3  C   UNL     1     101.451 128.159  83.187  0.00  0.00    +0.000 A 
ATOM      4  C   UNL     1     100.857 127.073  82.515  0.00  0.00    +0.000 A 
ATOM      5  C   UNL     1     101.683 125.985  81.873  0.00  0.00    +0.000 C 
ATOM      6  C   UNL     1     103.149 126.396  81.640  0.00  0.00    +0.000 C 
ATOM      7  C   UNL     1      99.460 126.969  82.496  0.00  0.00    +0.000 A 
ATOM      8  C   UNL     1      98.665 127.934  83.104  0.00  0.00    +0.000 A 
ATOM      9  C   UNL     1      99.244 129.019  83.748  0.00  0.00    +0.000 A 
ATOM     10  C   UNL     1     100.634 129.133  83.787  0.00  0.00    +0.000 A 
ATOM     11  F   UNL     1      97.329 127.824  83.074  0.00  0.00    +0.000 F 
ATOM     12  F   UNL     1      98.880 125.925  81.885  0.00  0.00    +0.000 F 
ENDROOT
BRANCH   6  13
ATOM     13  C   UNL     1     103.999 125.227  81.174  0.00  0.00    +0.000 A 
ATOM     14  C   UNL     1     104.098 124.077  81.972  0.00  0.00    +0.000 A 
ATOM     15  C   UNL     1     104.872 122.989  81.564  0.00  0.00    +0.000 A 
ATOM     16  C   UNL     1     105.561 123.037  80.354  0.00  0.00    +0.000 A 
ATOM     17  C   UNL     1     105.474 124.172  79.552  0.00  0.00    +0.000 A 
ATOM     18  C   UNL     1     104.699 125.261  79.958  0.00  0.00    +0.000 A 
ENDBRANCH   6  13
TORSDOF 1
ENDMDL
