MODEL 1
REMARK VINA RESULT:      -4.9      0.000      0.000
REMARK  Name = *****
REMARK  7 active torsions:
REMARK  status: ('A' for Active; 'I' for Inactive)
REMARK    1  A    between atoms: C_1  and  C_2
REMARK    2  A    between atoms: C_5  and  C_8
REMARK    3  A    between atoms: C_8  and  C_10
REMARK    4  A    between atoms: C_10  and  C_11
REMARK    5  A    between atoms: C_11  and  C_12
REMARK    6  A    between atoms: C_16  and  C_19
REMARK    7  A    between atoms: C_17  and  C_18
REMARK                            x       y       z     vdW  Elec       q    Type
REMARK                         _______ _______ _______ _____ _____    ______ ____
ROOT
ATOM      1  C   UNL     1      89.773  68.547  86.184  0.00  0.00    +0.000 C 
ENDROOT
BRANCH   1   2
ATOM      2  C   UNL     1      88.537  67.690  85.983  0.00  0.00    +0.000 C 
ATOM      3  O   UNL     1      87.898  67.697  84.932  0.00  0.00    +0.000 OA
BRANCH   2   8
ATOM      4  C   UNL     1      86.884  64.151  90.286  0.00  0.00    +0.000 C 
ATOM      5  C   UNL     1      87.321  65.087  89.198  0.00  0.00    +0.000 A 
ATOM      6  C   UNL     1      86.633  66.285  88.975  0.00  0.00    +0.000 A 
ATOM      7  C   UNL     1      87.015  67.145  87.939  0.00  0.00    +0.000 A 
ATOM      8  C   UNL     1      88.087  66.810  87.106  0.00  0.00    +0.000 A 
ATOM      9  C   UNL     1      88.768  65.604  87.320  0.00  0.00    +0.000 A 
ATOM     10  C   UNL     1      88.383  64.746  88.355  0.00  0.00    +0.000 A 
ENDBRANCH   2   8
ENDBRANCH   1   2
BRANCH   1  11
ATOM     11  C   UNL     1      89.458  70.037  86.042  0.00  0.00    +0.000 C 
BRANCH  11  12
ATOM     12  C   UNL     1      88.466  70.496  87.093  0.00  0.00    +0.000 A 
ATOM     13  C   UNL     1      88.839  70.364  88.442  0.00  0.00    +0.000 A 
ATOM     14  C   UNL     1      87.985  70.767  89.462  0.00  0.00    +0.000 A 
ATOM     15  C   UNL     1      86.739  71.300  89.148  0.00  0.00    +0.000 A 
ATOM     16  C   UNL     1      86.333  71.443  87.812  0.00  0.00    +0.000 A 
ATOM     17  C   UNL     1      87.212  71.066  86.766  0.00  0.00    +0.000 A 
ATOM     18  C   UNL     1      86.784  71.201  85.325  0.00  0.00    +0.000 C 
ATOM     19  C   UNL     1      84.966  72.014  87.540  0.00  0.00    +0.000 C 
ENDBRANCH  11  12
ENDBRANCH   1  11
TORSDOF 4
ENDMDL
