REMARK  Name = *****
REMARK  7 active torsions:
REMARK  status: ('A' for Active; 'I' for Inactive)
REMARK    1  A    between atoms: C_1  and  C_2
REMARK    2  A    between atoms: C_5  and  S_8
REMARK    3  A    between atoms: S_8  and  C_9
REMARK    4  A    between atoms: C_9  and  C_10
REMARK    5  A    between atoms: C_12  and  C_16
REMARK    6  A    between atoms: C_12  and  O_17
REMARK    7  A    between atoms: O_17  and  C_18
REMARK                            x       y       z     vdW  Elec       q    Type
REMARK                         _______ _______ _______ _____ _____    ______ ____
ROOT
ATOM      1  C   UNL     1      -4.027   1.531   0.350  0.00  0.00    +0.000 C 
ENDROOT
BRANCH   1   2
ATOM      2  C   UNL     1      -5.482   1.445  -0.160  0.00  0.00    +0.000 C 
ATOM      3  C   UNL     1      -5.636   0.368  -1.258  0.00  0.00    +0.000 C 
ATOM      4  C   UNL     1      -6.948   0.482  -2.065  0.00  0.00    +0.000 C 
ATOM      5  C   UNL     1      -7.028   1.898  -2.691  0.00  0.00    +0.000 C 
ATOM      6  C   UNL     1      -6.618   3.011  -1.771  0.00  0.00    +0.000 C 
ATOM      7  C   UNL     1      -5.941   2.808  -0.632  0.00  0.00    +0.000 C 
ATOM      8  C   UNL     1      -8.184   0.231  -1.183  0.00  0.00    +0.000 C 
BRANCH   4   9
ATOM      9  O   UNL     1      -6.955  -0.422  -3.191  0.00  0.00    +0.000 OA
ATOM     10  C   UNL     1      -6.809  -1.806  -2.911  0.00  0.00    +0.000 C 
ENDBRANCH   4   9
ENDBRANCH   1   2
BRANCH   1  11
ATOM     11  S   UNL     1      -3.502   0.006   1.218  0.00  0.00    +0.000 S 
BRANCH  11  16
ATOM     12  C   UNL     1       2.486   1.002   1.793  0.00  0.00    +0.000 C 
ATOM     13  C   UNL     1       1.012   0.781   1.630  0.00  0.00    +0.000 A 
ATOM     14  C   UNL     1       0.094   1.692   2.165  0.00  0.00    +0.000 A 
ATOM     15  C   UNL     1      -1.280   1.470   2.042  0.00  0.00    +0.000 A 
ATOM     16  C   UNL     1      -1.756   0.332   1.385  0.00  0.00    +0.000 A 
ATOM     17  C   UNL     1      -0.842  -0.593   0.876  0.00  0.00    +0.000 A 
ATOM     18  C   UNL     1       0.533  -0.372   0.998  0.00  0.00    +0.000 A 
ENDBRANCH  11  16
ENDBRANCH   1  11
TORSDOF 4
