MODEL 1
REMARK VINA RESULT:      -4.8      0.000      0.000
REMARK  Name = *****
REMARK  4 active torsions:
REMARK  status: ('A' for Active; 'I' for Inactive)
REMARK    1  A    between atoms: C_1  and  C_2
REMARK    2  A    between atoms: C_4  and  O_8
REMARK    3  A    between atoms: O_8  and  C_9
REMARK    4  A    between atoms: C_9  and  C_11
REMARK                            x       y       z     vdW  Elec       q    Type
REMARK                         _______ _______ _______ _____ _____    ______ ____
ROOT
ATOM      1  C   UNL     1     103.300 126.949  81.738  0.00  0.00    +0.000 C 
ATOM      2  O   UNL     1     103.372 127.785  80.850  0.00  0.00    +0.000 OA
ENDROOT
BRANCH   1   3
ATOM      3  C   UNL     1     103.811 125.557  81.582  0.00  0.00    +0.000 A 
ATOM      4  C   UNL     1     103.853 124.740  82.723  0.00  0.00    +0.000 A 
ATOM      5  C   UNL     1     104.323 123.426  82.635  0.00  0.00    +0.000 A 
ATOM      6  C   UNL     1     104.752 122.925  81.409  0.00  0.00    +0.000 A 
ATOM      7  C   UNL     1     104.715 123.725  80.267  0.00  0.00    +0.000 A 
ATOM      8  C   UNL     1     104.246 125.040  80.352  0.00  0.00    +0.000 A 
ATOM      9 CL   UNL     1     105.330 121.309  81.299  0.00  0.00    +0.000 Cl
ENDBRANCH   1   3
BRANCH   1  10
ATOM     10  O   UNL     1     102.768 127.111  83.003  0.00  0.00    +0.000 OA
BRANCH  10  14
ATOM     11  C   UNL     1      99.340 130.525  84.062  0.00  0.00    +0.000 C 
ATOM     12  C   UNL     1      99.733 129.172  83.546  0.00  0.00    +0.000 A 
ATOM     13  C   UNL     1     101.077 128.776  83.555  0.00  0.00    +0.000 A 
ATOM     14  C   UNL     1     101.429 127.520  83.060  0.00  0.00    +0.000 A 
ATOM     15  C   UNL     1     100.475 126.669  82.508  0.00  0.00    +0.000 A 
ATOM     16  C   UNL     1      99.141 127.068  82.482  0.00  0.00    +0.000 A 
ATOM     17  C   UNL     1      98.771 128.314  82.995  0.00  0.00    +0.000 A 
ENDBRANCH  10  14
ENDBRANCH   1  10
TORSDOF 3
ENDMDL
