MODEL 1
REMARK VINA RESULT:      -4.4      0.000      0.000
REMARK  Name = *****
REMARK  2 active torsions:
REMARK  status: ('A' for Active; 'I' for Inactive)
REMARK    1  A    between atoms: C_4  and  C_7
REMARK    2  A    between atoms: C_8  and  C_10
REMARK                            x       y       z     vdW  Elec       q    Type
REMARK                         _______ _______ _______ _____ _____    ______ ____
ROOT
ATOM      1  C   UNL     1      88.266  66.268  86.823  0.00  0.00    +0.000 C 
ATOM      2  C   UNL     1      89.609  66.975  86.724  0.00  0.00    +0.000 C 
ATOM      3  O   UNL     1      89.297  65.820  85.929  0.00  0.00    +0.000 OA
ENDROOT
BRANCH   2   4
ATOM      4  C   UNL     1      89.697  68.308  86.028  0.00  0.00    +0.000 A 
ATOM      5  C   UNL     1      89.595  69.509  86.751  0.00  0.00    +0.000 A 
ATOM      6  C   UNL     1      89.686  70.752  86.115  0.00  0.00    +0.000 A 
ATOM      7  C   UNL     1      89.883  70.810  84.739  0.00  0.00    +0.000 A 
ATOM      8  C   UNL     1      89.993  69.638  83.996  0.00  0.00    +0.000 A 
ATOM      9  C   UNL     1      89.903  68.401  84.640  0.00  0.00    +0.000 A 
ATOM     10 CL   UNL     1      89.994  72.337  83.954  0.00  0.00    +0.000 Cl
ENDBRANCH   2   4
BRANCH   1  14
ATOM     11  C   UNL     1      87.363  63.842  90.296  0.00  0.00    +0.000 A 
ATOM     12  C   UNL     1      86.658  65.019  90.060  0.00  0.00    +0.000 A 
ATOM     13  C   UNL     1      86.955  65.799  88.940  0.00  0.00    +0.000 A 
ATOM     14  C   UNL     1      87.961  65.425  88.033  0.00  0.00    +0.000 A 
ATOM     15  C   UNL     1      88.653  64.230  88.292  0.00  0.00    +0.000 A 
ATOM     16  C   UNL     1      88.361  63.446  89.411  0.00  0.00    +0.000 A 
ENDBRANCH   1  14
TORSDOF 2
ENDMDL
