MODEL 1
REMARK VINA RESULT:      -4.1      0.000      0.000
REMARK  Name = *****
REMARK  3 active torsions:
REMARK  status: ('A' for Active; 'I' for Inactive)
REMARK    1  A    between atoms: C_2  and  N_3
REMARK    2  A    between atoms: C_7  and  C_8
REMARK    3  A    between atoms: C_10  and  C_11
REMARK                            x       y       z     vdW  Elec       q    Type
REMARK                         _______ _______ _______ _____ _____    ______ ____
ROOT
ATOM      1  C   UNL     1      87.749  63.548  86.651  0.00  0.00    +0.000 C 
ATOM      2  C   UNL     1      86.296  63.515  87.071  0.00  0.00    +0.000 C 
ATOM      3  C   UNL     1      87.322  62.855  87.941  0.00  0.00    +0.000 C 
ENDROOT
BRANCH   3   4
ATOM      4  C   UNL     1      87.628  63.371  89.327  0.00  0.00    +0.000 A 
ATOM      5  C   UNL     1      88.945  63.492  89.807  0.00  0.00    +0.000 A 
ATOM      6  C   UNL     1      89.216  63.960  91.095  0.00  0.00    +0.000 A 
ATOM      7  C   UNL     1      88.170  64.348  91.927  0.00  0.00    +0.000 A 
ATOM      8  C   UNL     1      86.859  64.271  91.468  0.00  0.00    +0.000 A 
ATOM      9  C   UNL     1      86.594  63.788  90.182  0.00  0.00    +0.000 A 
ENDBRANCH   3   4
BRANCH   1  14
ATOM     10  N   UNL     1      89.696  65.194  86.089  0.00  0.00    +0.000 N 
ATOM     11  C   UNL     1      89.899  66.560  86.207  0.00  0.00    +0.000 A 
ATOM     12  C   UNL     1      88.761  67.161  86.687  0.00  0.00    +0.000 A 
ATOM     13  C   UNL     1      87.814  66.141  86.887  0.00  0.00    +0.000 A 
ATOM     14  C   UNL     1      88.407  64.936  86.562  0.00  0.00    +0.000 A 
BRANCH  10  16
ATOM     15  C   UNL     1      91.753  64.528  84.922  0.00  0.00    +0.000 C 
ATOM     16  C   UNL     1      90.602  64.265  85.558  0.00  0.00    +0.000 C 
ENDBRANCH  10  16
ENDBRANCH   1  14
TORSDOF 3
ENDMDL
