MODEL 1
REMARK VINA RESULT:      -4.1      0.000      0.000
REMARK  Name = *****
REMARK  5 active torsions:
REMARK  status: ('A' for Active; 'I' for Inactive)
REMARK    1  A    between atoms: C_1  and  C_2
REMARK    2  A    between atoms: C_2  and  C_3
REMARK    3  A    between atoms: C_2  and  C_10
REMARK    4  A    between atoms: C_3  and  C_4
REMARK    5  A    between atoms: C_4  and  C_5
REMARK                            x       y       z     vdW  Elec       q    Type
REMARK                         _______ _______ _______ _____ _____    ______ ____
ROOT
ATOM      1  C   UNL     1     102.659 125.612  83.515  0.00  0.00    +0.000 C 
ATOM      2  C   UNL     1     102.112 126.136  82.180  0.00  0.00    +0.000 C 
ENDROOT
BRANCH   2   3
ATOM      3  C   UNL     1     103.061 127.156  81.603  0.00  0.00    +0.000 C 
ATOM      4  C   UNL     1     103.466 127.348  80.333  0.00  0.00    +0.000 C 
ATOM      5  C   UNL     1     104.449 128.479  80.265  0.00  0.00    +0.000 C 
ATOM      6  C   UNL     1     104.546 128.890  81.702  0.00  0.00    +0.000 C 
ATOM      7  C   UNL     1     103.746 128.118  82.449  0.00  0.00    +0.000 C 
ENDBRANCH   2   3
BRANCH   2   8
ATOM      8  C   UNL     1     100.670 126.675  82.341  0.00  0.00    +0.000 C 
BRANCH   8   9
ATOM      9  C   UNL     1     100.443 127.376  83.656  0.00  0.00    +0.000 C 
BRANCH   9  10
ATOM     10  C   UNL     1     100.321 128.693  83.855  0.00  0.00    +0.000 C 
ATOM     11  C   UNL     1     101.200 129.568  84.606  0.00  0.00    +0.000 C 
ATOM     12  C   UNL     1     100.674 130.802  84.534  0.00  0.00    +0.000 C 
ATOM     13  C   UNL     1      99.456 130.761  83.746  0.00  0.00    +0.000 C 
ATOM     14  C   UNL     1      99.236 129.502  83.336  0.00  0.00    +0.000 C 
ENDBRANCH   9  10
ENDBRANCH   8   9
ENDBRANCH   2   8
TORSDOF 4
ENDMDL
