REMARK  Name = *****
REMARK  6 active torsions:
REMARK  status: ('A' for Active; 'I' for Inactive)
REMARK    1  A    between atoms: C_1  and  C_2
REMARK    2  A    between atoms: C_2  and  N_3
REMARK    3  A    between atoms: C_4  and  C_9
REMARK    4  A    between atoms: C_6  and  C_8
REMARK    5  A    between atoms: C_9  and  S_11
REMARK    6  A    between atoms: S_11  and  C_12
REMARK                            x       y       z     vdW  Elec       q    Type
REMARK                         _______ _______ _______ _____ _____    ______ ____
ROOT
ATOM      1  C   UNL     1       2.816   2.954  -0.805  0.00  0.00    +0.000 C 
ATOM      2  O   UNL     1       2.189   2.836   0.241  0.00  0.00    +0.000 OA
ENDROOT
BRANCH   1   4
ATOM      3  N   UNL     1       3.018   0.533  -1.390  0.00  0.00    +0.000 N 
ATOM      4  C   UNL     1       3.155   1.869  -1.699  0.00  0.00    +0.000 A 
ATOM      5  C   UNL     1       3.656   1.871  -2.993  0.00  0.00    +0.000 A 
ATOM      6  C   UNL     1       3.780   0.519  -3.370  0.00  0.00    +0.000 A 
ATOM      7  N   UNL     1       3.393  -0.295  -2.387  0.00  0.00    +0.000 NA
ATOM      8  C   UNL     1       4.267  -0.037  -4.655  0.00  0.00    +0.000 C 
BRANCH   3  10
ATOM      9  C   UNL     1       1.067  -0.273  -0.111  0.00  0.00    +0.000 C 
ATOM     10  C   UNL     1       2.570  -0.067  -0.144  0.00  0.00    +0.000 C 
ENDBRANCH   3  10
ENDBRANCH   1   4
BRANCH   1  11
ATOM     11  S   UNL     1       3.402   4.542  -1.304  0.00  0.00    +0.000 S 
BRANCH  11  12
ATOM     12  C   UNL     1       4.925   4.597  -0.378  0.00  0.00    +0.000 A 
ATOM     13  C   UNL     1       6.143   4.673  -1.060  0.00  0.00    +0.000 A 
ATOM     14  C   UNL     1       7.339   4.710  -0.343  0.00  0.00    +0.000 A 
ATOM     15  C   UNL     1       7.333   4.679   1.050  0.00  0.00    +0.000 A 
ATOM     16  C   UNL     1       6.120   4.616   1.734  0.00  0.00    +0.000 A 
ATOM     17  C   UNL     1       4.919   4.579   1.022  0.00  0.00    +0.000 A 
ATOM     18 CL   UNL     1       8.836   4.793  -1.188  0.00  0.00    +0.000 Cl
ENDBRANCH  11  12
ENDBRANCH   1  11
TORSDOF 4
