REMARK  Name = *****
REMARK  2 active torsions:
REMARK  status: ('A' for Active; 'I' for Inactive)
REMARK    1  A    between atoms: C_1  and  C_2
REMARK    2  A    between atoms: N_5  and  C_6
REMARK                            x       y       z     vdW  Elec       q    Type
REMARK                         _______ _______ _______ _____ _____    ______ ____
ROOT
ATOM      1  C   UNL     1       0.908   0.609  -0.190  0.00  0.00    +0.000 C 
ATOM      2  C   UNL     1       2.361   0.312  -0.062  0.00  0.00    +0.000 C 
ATOM      3  C   UNL     1       3.024   0.141   1.081  0.00  0.00    +0.000 C 
ATOM      4  C   UNL     1       4.423  -0.132   0.735  0.00  0.00    +0.000 C 
ATOM      5  N   UNL     1       5.455  -0.368   1.463  0.00  0.00    +0.000 NA
ATOM      6  O   UNL     1       4.545  -0.110  -0.620  0.00  0.00    +0.000 OA
ATOM      7  C   UNL     1       3.273   0.166  -1.237  0.00  0.00    +0.000 C 
ATOM      8  C   UNL     1       3.406   1.461  -2.054  0.00  0.00    +0.000 C 
ATOM      9  C   UNL     1       4.364   1.299  -3.236  0.00  0.00    +0.000 C 
ATOM     10  C   UNL     1       3.974   0.118  -4.119  0.00  0.00    +0.000 C 
ATOM     11  C   UNL     1       3.868  -1.175  -3.315  0.00  0.00    +0.000 C 
ATOM     12  C   UNL     1       2.906  -1.027  -2.134  0.00  0.00    +0.000 C 
ENDROOT
BRANCH   5  13
ATOM     13  C   UNL     1       5.298  -0.385   2.854  0.00  0.00    +0.000 A 
ATOM     14  C   UNL     1       4.964  -1.571   3.514  0.00  0.00    +0.000 A 
ATOM     15  C   UNL     1       4.816  -1.589   4.902  0.00  0.00    +0.000 A 
ATOM     16  C   UNL     1       5.014  -0.422   5.639  0.00  0.00    +0.000 A 
ATOM     17  C   UNL     1       5.368   0.760   4.990  0.00  0.00    +0.000 A 
ATOM     18  C   UNL     1       5.515   0.775   3.602  0.00  0.00    +0.000 A 
ENDBRANCH   5  13
TORSDOF 1
