MODEL 1
REMARK VINA RESULT:      -4.2      0.000      0.000
REMARK  Name = *****
REMARK  3 active torsions:
REMARK  status: ('A' for Active; 'I' for Inactive)
REMARK    1  A    between atoms: C_4  and  C_7
REMARK    2  A    between atoms: N_8  and  C_9
REMARK    3  A    between atoms: C_14  and  S_15
REMARK                            x       y       z     vdW  Elec       q    Type
REMARK                         _______ _______ _______ _____ _____    ______ ____
ROOT
ATOM      1  C   UNL     1     101.854 125.966  82.242  0.00  0.00    +0.000 C 
ATOM      2  N   UNL     1     102.933 125.712  82.915  0.00  0.00    +0.000 NA
ENDROOT
BRANCH   1   6
ATOM      3  C   UNL     1      99.084 128.989  83.404  0.00  0.00    +0.000 A 
ATOM      4  C   UNL     1     100.442 129.157  83.680  0.00  0.00    +0.000 A 
ATOM      5  C   UNL     1     101.356 128.172  83.305  0.00  0.00    +0.000 A 
ATOM      6  C   UNL     1     100.907 127.021  82.651  0.00  0.00    +0.000 A 
ATOM      7  C   UNL     1      99.548 126.851  82.374  0.00  0.00    +0.000 A 
ATOM      8  C   UNL     1      98.637 127.839  82.752  0.00  0.00    +0.000 A 
ENDBRANCH   1   6
BRANCH   2   9
ATOM      9  C   UNL     1     103.744 124.679  82.402  0.00  0.00    +0.000 A 
ATOM     10  C   UNL     1     103.918 124.575  81.017  0.00  0.00    +0.000 A 
ATOM     11  C   UNL     1     104.709 123.562  80.472  0.00  0.00    +0.000 A 
ATOM     12  C   UNL     1     105.326 122.635  81.309  0.00  0.00    +0.000 A 
ATOM     13  C   UNL     1     105.147 122.715  82.691  0.00  0.00    +0.000 A 
ATOM     14  C   UNL     1     104.352 123.727  83.244  0.00  0.00    +0.000 A 
BRANCH  14  15
ATOM     15  S   UNL     1     104.140 123.776  85.020  0.00  0.00    +0.000 S 
ATOM     16  H   UNL     1     105.325 123.494  85.626  0.00  0.00    +0.000 HD
ENDBRANCH  14  15
ENDBRANCH   2   9
TORSDOF 3
ENDMDL
