MODEL 1
REMARK VINA RESULT:      -4.6      0.000      0.000
REMARK  Name = *****
REMARK  6 active torsions:
REMARK  status: ('A' for Active; 'I' for Inactive)
REMARK    1  A    between atoms: C_1  and  C_2
REMARK    2  A    between atoms: C_5  and  C_8
REMARK    3  A    between atoms: C_8  and  S_10
REMARK    4  A    between atoms: S_10  and  C_11
REMARK    5  A    between atoms: C_14  and  O_17
REMARK    6  A    between atoms: O_17  and  C_18
REMARK                            x       y       z     vdW  Elec       q    Type
REMARK                         _______ _______ _______ _____ _____    ______ ____
ROOT
ATOM      1  C   UNL     1      87.781  70.752  85.630  0.00  0.00    +0.000 C 
ATOM      2  O   UNL     1      87.879  70.519  84.431  0.00  0.00    +0.000 OA
ENDROOT
BRANCH   1   7
ATOM      3  C   UNL     1      83.019  73.046  88.060  0.00  0.00    +0.000 C 
ATOM      4  C   UNL     1      84.253  72.487  87.416  0.00  0.00    +0.000 A 
ATOM      5  C   UNL     1      84.377  72.463  86.023  0.00  0.00    +0.000 A 
ATOM      6  C   UNL     1      85.511  71.911  85.415  0.00  0.00    +0.000 A 
ATOM      7  C   UNL     1      86.538  71.361  86.195  0.00  0.00    +0.000 A 
ATOM      8  C   UNL     1      86.403  71.376  87.592  0.00  0.00    +0.000 A 
ATOM      9  C   UNL     1      85.269  71.927  88.196  0.00  0.00    +0.000 A 
ENDBRANCH   1   7
BRANCH   1  10
ATOM     10  S   UNL     1      89.124  70.402  86.714  0.00  0.00    +0.000 S 
BRANCH  10  11
ATOM     11  C   UNL     1      89.012  68.626  86.794  0.00  0.00    +0.000 A 
ATOM     12  C   UNL     1      90.035  67.807  86.306  0.00  0.00    +0.000 A 
ATOM     13  C   UNL     1      89.936  66.413  86.391  0.00  0.00    +0.000 A 
ATOM     14  C   UNL     1      88.814  65.824  86.974  0.00  0.00    +0.000 A 
ATOM     15  C   UNL     1      87.797  66.642  87.472  0.00  0.00    +0.000 A 
ATOM     16  C   UNL     1      87.895  68.034  87.387  0.00  0.00    +0.000 A 
BRANCH  14  17
ATOM     17  O   UNL     1      88.592  64.483  87.121  0.00  0.00    +0.000 OA
ATOM     18  C   UNL     1      88.511  63.986  88.451  0.00  0.00    +0.000 C 
ENDBRANCH  14  17
ENDBRANCH  10  11
ENDBRANCH   1  10
TORSDOF 4
ENDMDL
