MODEL 1
REMARK VINA RESULT:      -3.8      0.000      0.000
REMARK  Name = *****
REMARK  5 active torsions:
REMARK  status: ('A' for Active; 'I' for Inactive)
REMARK    1  A    between atoms: C_4  and  O_7
REMARK    2  A    between atoms: O_7  and  C_8
REMARK    3  A    between atoms: C_8  and  O_10
REMARK    4  A    between atoms: O_10  and  C_11
REMARK    5  A    between atoms: C_11  and  C_12
REMARK                            x       y       z     vdW  Elec       q    Type
REMARK                         _______ _______ _______ _____ _____    ______ ____
ROOT
ATOM      1  C   UNL     1     102.770 125.405  82.604  0.00  0.00    +0.000 C 
ATOM      2  O   UNL     1     102.888 124.811  83.663  0.00  0.00    +0.000 OA
ENDROOT
BRANCH   1   3
ATOM      3  O   UNL     1     101.622 125.896  82.079  0.00  0.00    +0.000 OA
BRANCH   3   7
ATOM      4  C   UNL     1      99.286 129.189  83.383  0.00  0.00    +0.000 C 
ATOM      5  C   UNL     1      98.579 127.849  83.198  0.00  0.00    +0.000 C 
ATOM      6  C   UNL     1      99.417 126.880  82.369  0.00  0.00    +0.000 C 
ATOM      7  C   UNL     1     100.816 126.692  82.965  0.00  0.00    +0.000 C 
ATOM      8  C   UNL     1     101.519 128.042  83.134  0.00  0.00    +0.000 C 
ATOM      9  C   UNL     1     100.686 129.013  83.965  0.00  0.00    +0.000 C 
ENDBRANCH   3   7
ENDBRANCH   1   3
BRANCH   1  10
ATOM     10  O   UNL     1     103.779 125.692  81.745  0.00  0.00    +0.000 OA
BRANCH  10  11
ATOM     11  C   UNL     1     103.823 124.914  80.530  0.00  0.00    +0.000 C 
BRANCH  11  12
ATOM     12  C   UNL     1     105.171 124.196  80.329  0.00  0.00    +0.000 C 
ATOM     13 CL   UNL     1     105.876 124.619  78.735  0.00  0.00    +0.000 Cl
ATOM     14 CL   UNL     1     106.352 124.615  81.605  0.00  0.00    +0.000 Cl
ATOM     15 CL   UNL     1     104.904 122.420  80.368  0.00  0.00    +0.000 Cl
ENDBRANCH  11  12
ENDBRANCH  10  11
ENDBRANCH   1  10
TORSDOF 5
ENDMDL
