MODEL 1
REMARK VINA RESULT:      -4.4      0.000      0.000
REMARK  Name = *****
REMARK  5 active torsions:
REMARK  status: ('A' for Active; 'I' for Inactive)
REMARK    1  A    between atoms: C_4  and  C_7
REMARK    2  A    between atoms: C_7  and  C_8
REMARK    3  A    between atoms: C_8  and  C_9
REMARK    4  A    between atoms: C_8  and  C_11
REMARK    5  A    between atoms: C_9  and  S_10
REMARK                            x       y       z     vdW  Elec       q    Type
REMARK                         _______ _______ _______ _____ _____    ______ ____
ROOT
ATOM      1  C   UNL     1      88.464  70.013  86.657  0.00  0.00    +0.000 C 
ENDROOT
BRANCH   1   2
ATOM      2  C   UNL     1      88.694  68.507  86.777  0.00  0.00    +0.000 A 
ATOM      3  C   UNL     1      87.732  67.715  87.425  0.00  0.00    +0.000 A 
ATOM      4  C   UNL     1      87.903  66.334  87.548  0.00  0.00    +0.000 A 
ATOM      5  C   UNL     1      89.038  65.723  87.022  0.00  0.00    +0.000 A 
ATOM      6  C   UNL     1      89.997  66.492  86.368  0.00  0.00    +0.000 A 
ATOM      7  C   UNL     1      89.828  67.874  86.245  0.00  0.00    +0.000 A 
ENDBRANCH   1   2
BRANCH   1   8
ATOM      8  C   UNL     1      87.882  70.635  87.951  0.00  0.00    +0.000 C 
BRANCH   8  12
ATOM      9  C   UNL     1      84.035  72.527  87.422  0.00  0.00    +0.000 A 
ATOM     10  C   UNL     1      84.513  72.268  88.705  0.00  0.00    +0.000 A 
ATOM     11  C   UNL     1      85.758  71.662  88.877  0.00  0.00    +0.000 A 
ATOM     12  C   UNL     1      86.535  71.298  87.767  0.00  0.00    +0.000 A 
ATOM     13  C   UNL     1      86.048  71.579  86.483  0.00  0.00    +0.000 A 
ATOM     14  C   UNL     1      84.803  72.186  86.313  0.00  0.00    +0.000 A 
ENDBRANCH   8  12
ENDBRANCH   1   8
BRANCH   1  15
ATOM     15  C   UNL     1      89.704  70.738  86.083  0.00  0.00    +0.000 C 
BRANCH  15  16
ATOM     16  S   UNL     1      89.479  71.626  84.506  0.00  0.00    +0.000 S 
ATOM     17  H   UNL     1      88.938  72.850  84.749  0.00  0.00    +0.000 HD
ENDBRANCH  15  16
ENDBRANCH   1  15
TORSDOF 5
ENDMDL
