MODEL 1
REMARK VINA RESULT:      -4.4      0.000      0.000
REMARK  Name = *****
REMARK  3 active torsions:
REMARK  status: ('A' for Active; 'I' for Inactive)
REMARK    1  A    between atoms: C_4  and  C_7
REMARK    2  A    between atoms: C_8  and  C_9
REMARK    3  A    between atoms: C_11  and  C_14
REMARK                            x       y       z     vdW  Elec       q    Type
REMARK                         _______ _______ _______ _____ _____    ______ ____
ROOT
ATOM      1  C   UNL     1     102.096 125.961  82.234  0.00  0.00    +0.000 C 
ATOM      2  C   UNL     1     102.988 126.179  81.254  0.00  0.00    +0.000 C 
ENDROOT
BRANCH   1   6
ATOM      3  C   UNL     1      99.126 128.834  83.345  0.00  0.00    +0.000 A 
ATOM      4  C   UNL     1     100.465 129.081  83.641  0.00  0.00    +0.000 A 
ATOM      5  C   UNL     1     101.445 128.149  83.291  0.00  0.00    +0.000 A 
ATOM      6  C   UNL     1     101.093 126.954  82.650  0.00  0.00    +0.000 A 
ATOM      7  C   UNL     1      99.745 126.724  82.341  0.00  0.00    +0.000 A 
ATOM      8  C   UNL     1      98.766 127.657  82.692  0.00  0.00    +0.000 A 
ENDBRANCH   1   6
BRANCH   2   9
ATOM      9  C   UNL     1     103.960 125.206  80.870  0.00  0.00    +0.000 A 
ATOM     10  C   UNL     1     104.110 123.874  81.223  0.00  0.00    +0.000 A 
ATOM     11  C   UNL     1     105.236 123.233  80.609  0.00  0.00    +0.000 A 
ATOM     12  C   UNL     1     105.916 124.111  79.793  0.00  0.00    +0.000 A 
ATOM     13  S   UNL     1     105.211 125.665  79.774  0.00  0.00    +0.000 S 
BRANCH  11  14
ATOM     14  C   UNL     1     105.632 121.847  80.801  0.00  0.00    +0.000 C 
ATOM     15  O   UNL     1     104.907 121.003  81.317  0.00  0.00    +0.000 OA
ENDBRANCH  11  14
ENDBRANCH   2   9
TORSDOF 3
ENDMDL
