MODEL 1
REMARK VINA RESULT:      -4.6      0.000      0.000
REMARK  Name = *****
REMARK  5 active torsions:
REMARK  status: ('A' for Active; 'I' for Inactive)
REMARK    1  A    between atoms: C_1  and  C_2
REMARK    2  A    between atoms: C_7  and  C_8
REMARK    3  A    between atoms: C_8  and  C_9
REMARK    4  A    between atoms: C_8  and  C_10
REMARK    5  A    between atoms: C_10  and  C_11
REMARK                            x       y       z     vdW  Elec       q    Type
REMARK                         _______ _______ _______ _____ _____    ______ ____
ROOT
ATOM      1  C   UNL     1     104.814 124.516  80.704  0.00  0.00    +0.000 C 
ATOM      2  C   UNL     1     105.726 124.446  79.467  0.00  0.00    +0.000 C 
ENDROOT
BRANCH   1   9
ATOM      3  C   UNL     1     104.536 124.304  83.751  0.00  0.00    +0.000 C 
ATOM      4  C   UNL     1     104.544 123.099  82.849  0.00  0.00    +0.000 A 
ATOM      5  C   UNL     1     104.446 121.840  83.479  0.00  0.00    +0.000 A 
ATOM      6  C   UNL     1     104.419 120.663  82.739  0.00  0.00    +0.000 A 
ATOM      7  C   UNL     1     104.489 120.725  81.357  0.00  0.00    +0.000 A 
ATOM      8  C   UNL     1     104.606 121.962  80.719  0.00  0.00    +0.000 A 
ATOM      9  C   UNL     1     104.669 123.174  81.437  0.00  0.00    +0.000 A 
ENDBRANCH   1   9
BRANCH   1  10
ATOM     10  C   UNL     1     103.513 125.313  80.388  0.00  0.00    +0.000 C 
BRANCH  10  11
ATOM     11  C   UNL     1     102.901 126.280  81.387  0.00  0.00    +0.000 A 
ATOM     12  C   UNL     1     101.689 126.068  82.056  0.00  0.00    +0.000 A 
ATOM     13  C   UNL     1     101.205 126.999  82.981  0.00  0.00    +0.000 A 
ATOM     14  C   UNL     1     101.930 128.155  83.258  0.00  0.00    +0.000 A 
ATOM     15  C   UNL     1     103.142 128.378  82.614  0.00  0.00    +0.000 A 
ATOM     16  C   UNL     1     103.624 127.448  81.691  0.00  0.00    +0.000 A 
ENDBRANCH  10  11
ENDBRANCH   1  10
TORSDOF 3
ENDMDL
