MODEL 1
REMARK VINA RESULT:      -4.0      0.000      0.000
REMARK  Name = *****
REMARK  6 active torsions:
REMARK  status: ('A' for Active; 'I' for Inactive)
REMARK    1  A    between atoms: C_1  and  C_2
REMARK    2  A    between atoms: C_4  and  O_8
REMARK    3  A    between atoms: O_8  and  C_9
REMARK    4  A    between atoms: C_9  and  O_11
REMARK    5  A    between atoms: O_11  and  C_12
REMARK    6  A    between atoms: C_12  and  C_13
REMARK                            x       y       z     vdW  Elec       q    Type
REMARK                         _______ _______ _______ _____ _____    ______ ____
ROOT
ATOM      1  O   UNL     1     103.244 126.330  81.954  0.00  0.00    +0.000 OA
ENDROOT
BRANCH   1   5
ATOM      2  C   UNL     1      98.375 126.765  82.677  0.00  0.00    +0.000 C 
ATOM      3  C   UNL     1      99.776 127.277  82.829  0.00  0.00    +0.000 A 
ATOM      4  C   UNL     1     100.853 126.564  82.286  0.00  0.00    +0.000 A 
ATOM      5  C   UNL     1     102.152 127.047  82.448  0.00  0.00    +0.000 A 
ATOM      6  C   UNL     1     102.408 128.200  83.187  0.00  0.00    +0.000 A 
ATOM      7  C   UNL     1     101.340 128.901  83.744  0.00  0.00    +0.000 A 
ATOM      8  C   UNL     1     100.033 128.442  83.568  0.00  0.00    +0.000 A 
ENDBRANCH   1   5
BRANCH   1   9
ATOM      9  C   UNL     1     103.405 126.416  80.584  0.00  0.00    +0.000 C 
ATOM     10  O   UNL     1     103.487 127.430  79.908  0.00  0.00    +0.000 OA
BRANCH   9  11
ATOM     11  O   UNL     1     103.451 125.149  80.090  0.00  0.00    +0.000 OA
BRANCH  11  12
ATOM     12  C   UNL     1     104.218 124.196  80.856  0.00  0.00    +0.000 C 
BRANCH  12  13
ATOM     13  C   UNL     1     105.679 124.085  80.380  0.00  0.00    +0.000 C 
ATOM     14 CL   UNL     1     106.233 122.381  80.457  0.00  0.00    +0.000 Cl
ATOM     15 CL   UNL     1     105.883 124.674  78.704  0.00  0.00    +0.000 Cl
ATOM     16 CL   UNL     1     106.729 125.063  81.457  0.00  0.00    +0.000 Cl
ENDBRANCH  12  13
ENDBRANCH  11  12
ENDBRANCH   9  11
ENDBRANCH   1   9
TORSDOF 5
ENDMDL
