MODEL 1
REMARK VINA RESULT:      -4.3      0.000      0.000
REMARK  Name = *****
REMARK  4 active torsions:
REMARK  status: ('A' for Active; 'I' for Inactive)
REMARK    1  A    between atoms: C_1  and  C_2
REMARK    2  A    between atoms: C_7  and  O_8
REMARK    3  A    between atoms: O_8  and  C_9
REMARK    4  A    between atoms: C_9  and  C_10
REMARK                            x       y       z     vdW  Elec       q    Type
REMARK                         _______ _______ _______ _____ _____    ______ ____
ROOT
ATOM      1  O   UNL     1     103.172 126.554  83.041  0.00  0.00    +0.000 OA
ENDROOT
BRANCH   1   8
ATOM      2  C   UNL     1     103.670 127.209  80.234  0.00  0.00    +0.000 C 
ATOM      3  C   UNL     1     103.686 125.792  80.816  0.00  0.00    +0.000 C 
ATOM      4  C   UNL     1     104.586 124.882  79.971  0.00  0.00    +0.000 C 
ATOM      5  C   UNL     1     104.654 123.468  80.538  0.00  0.00    +0.000 C 
ATOM      6  C   UNL     1     105.094 123.471  81.996  0.00  0.00    +0.000 C 
ATOM      7  C   UNL     1     104.205 124.371  82.846  0.00  0.00    +0.000 C 
ATOM      8  C   UNL     1     104.132 125.800  82.294  0.00  0.00    +0.000 C 
ENDBRANCH   1   8
BRANCH   1   9
ATOM      9  C   UNL     1     101.873 125.964  83.052  0.00  0.00    +0.000 C 
BRANCH   9  10
ATOM     10  C   UNL     1     100.823 127.047  83.049  0.00  0.00    +0.000 A 
ATOM     11  C   UNL     1     101.091 128.298  83.623  0.00  0.00    +0.000 A 
ATOM     12  C   UNL     1     100.107 129.289  83.658  0.00  0.00    +0.000 A 
ATOM     13  C   UNL     1      98.843 129.038  83.128  0.00  0.00    +0.000 A 
ATOM     14  C   UNL     1      98.560 127.795  82.565  0.00  0.00    +0.000 A 
ATOM     15  C   UNL     1      99.543 126.805  82.529  0.00  0.00    +0.000 A 
ENDBRANCH   9  10
ENDBRANCH   1   9
TORSDOF 3
ENDMDL
