REMARK  Name = *****
REMARK  5 active torsions:
REMARK  status: ('A' for Active; 'I' for Inactive)
REMARK    1  A    between atoms: C_1  and  N_2
REMARK    2  A    between atoms: N_2  and  C_3
REMARK    3  A    between atoms: C_7  and  O_10
REMARK    4  A    between atoms: O_10  and  C_11
REMARK    5  A    between atoms: C_11  and  C_12
REMARK                            x       y       z     vdW  Elec       q    Type
REMARK                         _______ _______ _______ _____ _____    ______ ____
ROOT
ATOM      1  O   UNL     1       5.484  -4.375   1.703  0.00  0.00    +0.000 OA
ENDROOT
BRANCH   1   8
ATOM      2  C   UNL     1       1.081  -0.368  -0.237  0.00  0.00    +0.000 C 
ATOM      3  N   UNL     1       2.526  -0.173  -0.364  0.00  0.00    +0.000 N 
ATOM      4  C   UNL     1       2.996   1.133   0.100  0.00  0.00    +0.000 C 
ATOM      5  C   UNL     1       3.274  -1.242   0.179  0.00  0.00    +0.000 A 
ATOM      6  N   UNL     1       4.187  -1.035   1.157  0.00  0.00    +0.000 NA
ATOM      7  N   UNL     1       4.927  -2.072   1.683  0.00  0.00    +0.000 NA
ATOM      8  C   UNL     1       4.754  -3.317   1.205  0.00  0.00    +0.000 A 
ATOM      9  C   UNL     1       3.855  -3.588   0.199  0.00  0.00    +0.000 A 
ATOM     10  C   UNL     1       3.107  -2.533  -0.320  0.00  0.00    +0.000 A 
ENDBRANCH   1   8
BRANCH   1  11
ATOM     11  C   UNL     1       6.375  -3.991   2.756  0.00  0.00    +0.000 C 
BRANCH  11  12
ATOM     12  C   UNL     1       7.169  -5.182   3.265  0.00  0.00    +0.000 A 
ATOM     13  C   UNL     1       8.005  -5.056   4.391  0.00  0.00    +0.000 A 
ATOM     14  C   UNL     1       8.749  -6.142   4.861  0.00  0.00    +0.000 A 
ATOM     15  C   UNL     1       8.671  -7.367   4.206  0.00  0.00    +0.000 A 
ATOM     16  C   UNL     1       7.860  -7.515   3.086  0.00  0.00    +0.000 A 
ATOM     17  C   UNL     1       7.116  -6.429   2.617  0.00  0.00    +0.000 A 
ATOM     18 CL   UNL     1       9.586  -8.705   4.781  0.00  0.00    +0.000 Cl
ATOM     19 CL   UNL     1       8.160  -3.559   5.242  0.00  0.00    +0.000 Cl
ENDBRANCH  11  12
ENDBRANCH   1  11
TORSDOF 3
