MODEL 1
REMARK VINA RESULT:      -4.8      0.000      0.000
REMARK  Name = *****
REMARK  5 active torsions:
REMARK  status: ('A' for Active; 'I' for Inactive)
REMARK    1  A    between atoms: C_1  and  N_2
REMARK    2  A    between atoms: N_2  and  C_3
REMARK    3  A    between atoms: N_2  and  C_4
REMARK    4  A    between atoms: C_7  and  C_10
REMARK    5  A    between atoms: C_11  and  C_12
REMARK                            x       y       z     vdW  Elec       q    Type
REMARK                         _______ _______ _______ _____ _____    ______ ____
ROOT
ATOM      1  C   UNL     1     105.942 122.618  81.039  0.00  0.00    +0.000 A 
ATOM      2  C   UNL     1     105.393 123.516  80.104  0.00  0.00    +0.000 A 
ATOM      3  C   UNL     1     104.398 124.444  80.449  0.00  0.00    +0.000 A 
ATOM      4  C   UNL     1     103.911 124.494  81.749  0.00  0.00    +0.000 A 
ATOM      5  C   UNL     1     104.416 123.611  82.696  0.00  0.00    +0.000 A 
ATOM      6  C   UNL     1     105.411 122.688  82.339  0.00  0.00    +0.000 A 
ENDROOT
BRANCH   1   8
ATOM      7  C   UNL     1     108.195 122.176  80.149  0.00  0.00    +0.000 C 
ATOM      8  N   UNL     1     106.923 121.686  80.681  0.00  0.00    +0.000 N 
ATOM      9  C   UNL     1     106.982 120.403  81.377  0.00  0.00    +0.000 C 
ENDBRANCH   1   8
BRANCH   4  10
ATOM     10  C   UNL     1     102.897 125.436  82.106  0.00  0.00    +0.000 C 
ATOM     11  C   UNL     1     102.044 126.227  82.407  0.00  0.00    +0.000 C 
BRANCH  11  12
ATOM     12  C   UNL     1     101.029 127.167  82.765  0.00  0.00    +0.000 A 
ATOM     13  C   UNL     1      99.688 126.879  82.507  0.00  0.00    +0.000 A 
ATOM     14  C   UNL     1      98.712 127.805  82.862  0.00  0.00    +0.000 A 
ATOM     15  C   UNL     1      99.049 129.011  83.467  0.00  0.00    +0.000 A 
ATOM     16  C   UNL     1     100.388 129.300  83.725  0.00  0.00    +0.000 A 
ATOM     17  C   UNL     1     101.378 128.378  83.373  0.00  0.00    +0.000 A 
ATOM     18  F   UNL     1      97.425 127.530  82.616  0.00  0.00    +0.000 F 
ENDBRANCH  11  12
ENDBRANCH   4  10
TORSDOF 3
ENDMDL
