MODEL 1
REMARK VINA RESULT:      -4.4      0.000      0.000
REMARK  Name = *****
REMARK  4 active torsions:
REMARK  status: ('A' for Active; 'I' for Inactive)
REMARK    1  A    between atoms: C_1  and  C_2
REMARK    2  A    between atoms: C_5  and  S_8
REMARK    3  A    between atoms: S_8  and  O_10
REMARK    4  A    between atoms: O_10  and  C_11
REMARK                            x       y       z     vdW  Elec       q    Type
REMARK                         _______ _______ _______ _____ _____    ______ ____
ROOT
ATOM      1  S   UNL     1     102.334 127.283  83.240  0.00  0.00    +0.000 S 
ATOM      2  O   UNL     1     103.152 128.506  82.951  0.00  0.00    +0.000 OA
ENDROOT
BRANCH   1   7
ATOM      3  C   UNL     1     105.105 122.639  80.363  0.00  0.00    +0.000 C 
ATOM      4  C   UNL     1     104.403 123.762  81.068  0.00  0.00    +0.000 A 
ATOM      5  C   UNL     1     103.948 124.874  80.349  0.00  0.00    +0.000 A 
ATOM      6  C   UNL     1     103.325 125.937  81.009  0.00  0.00    +0.000 A 
ATOM      7  C   UNL     1     103.164 125.910  82.400  0.00  0.00    +0.000 A 
ATOM      8  C   UNL     1     103.627 124.804  83.119  0.00  0.00    +0.000 A 
ATOM      9  C   UNL     1     104.249 123.742  82.459  0.00  0.00    +0.000 A 
ENDBRANCH   1   7
BRANCH   1  10
ATOM     10  O   UNL     1     101.090 127.270  82.214  0.00  0.00    +0.000 OA
BRANCH  10  11
ATOM     11  C   UNL     1      99.875 126.747  82.728  0.00  0.00    +0.000 C 
ATOM     12  C   UNL     1      99.974 126.603  84.260  0.00  0.00    +0.000 C 
ATOM     13  C   UNL     1      98.785 127.441  84.766  0.00  0.00    +0.000 C 
ATOM     14  C   UNL     1      99.120 128.930  84.583  0.00  0.00    +0.000 C 
ATOM     15  C   UNL     1      99.031 129.118  83.062  0.00  0.00    +0.000 C 
ATOM     16  C   UNL     1      98.673 127.706  82.562  0.00  0.00    +0.000 C 
ATOM     17  C   UNL     1      97.743 127.214  83.671  0.00  0.00    +0.000 C 
ENDBRANCH  10  11
ENDBRANCH   1  10
TORSDOF 3
ENDMDL
