REMARK  Name = *****
REMARK  4 active torsions:
REMARK  status: ('A' for Active; 'I' for Inactive)
REMARK    1  A    between atoms: C_1  and  O_2
REMARK    2  A    between atoms: O_2  and  C_3
REMARK    3  A    between atoms: C_7  and  C_9
REMARK    4  A    between atoms: C_10  and  C_11
REMARK                            x       y       z     vdW  Elec       q    Type
REMARK                         _______ _______ _______ _____ _____    ______ ____
ROOT
ATOM      1  C   UNL     1       3.189  -1.213   0.439  0.00  0.00    +0.000 A 
ATOM      2  C   UNL     1       2.804  -2.489   0.032  0.00  0.00    +0.000 A 
ATOM      3  C   UNL     1       3.480  -3.600   0.529  0.00  0.00    +0.000 A 
ATOM      4  C   UNL     1       4.535  -3.468   1.423  0.00  0.00    +0.000 A 
ATOM      5  C   UNL     1       4.924  -2.194   1.832  0.00  0.00    +0.000 A 
ATOM      6  C   UNL     1       4.250  -1.071   1.341  0.00  0.00    +0.000 A 
ATOM      7  F   UNL     1       3.106  -4.824   0.133  0.00  0.00    +0.000 F 
ENDROOT
BRANCH   1   9
ATOM      8  C   UNL     1       1.550  -0.125  -0.898  0.00  0.00    +0.000 C 
ATOM      9  O   UNL     1       2.620  -0.036   0.035  0.00  0.00    +0.000 OA
ENDBRANCH   1   9
BRANCH   5  10
ATOM     10  C   UNL     1       6.017  -2.039   2.740  0.00  0.00    +0.000 C 
ATOM     11  C   UNL     1       6.947  -1.923   3.492  0.00  0.00    +0.000 C 
BRANCH  11  12
ATOM     12  C   UNL     1       8.068  -1.802   4.371  0.00  0.00    +0.000 A 
ATOM     13  C   UNL     1       8.515  -0.540   4.770  0.00  0.00    +0.000 A 
ATOM     14  C   UNL     1       9.618  -0.425   5.618  0.00  0.00    +0.000 A 
ATOM     15  C   UNL     1      10.275  -1.570   6.068  0.00  0.00    +0.000 A 
ATOM     16  C   UNL     1       9.830  -2.831   5.673  0.00  0.00    +0.000 A 
ATOM     17  C   UNL     1       8.726  -2.947   4.825  0.00  0.00    +0.000 A 
ENDBRANCH  11  12
ENDBRANCH   5  10
TORSDOF 3
