MODEL 1
REMARK VINA RESULT:      -4.8      0.000      0.000
REMARK  Name = *****
REMARK  4 active torsions:
REMARK  status: ('A' for Active; 'I' for Inactive)
REMARK    1  A    between atoms: C_1  and  C_2
REMARK    2  A    between atoms: C_3  and  C_9
REMARK    3  A    between atoms: C_4  and  C_8
REMARK    4  A    between atoms: C_10  and  C_11
REMARK                            x       y       z     vdW  Elec       q    Type
REMARK                         _______ _______ _______ _____ _____    ______ ____
ROOT
ATOM      1  C   UNL     1     103.193 129.580  84.580  0.00  0.00    +0.000 C 
ATOM      2  C   UNL     1     101.731 129.672  84.231  0.00  0.00    +0.000 A 
ATOM      3  C   UNL     1     101.046 128.605  83.607  0.00  0.00    +0.000 A 
ATOM      4  C   UNL     1      99.671 128.733  83.302  0.00  0.00    +0.000 A 
ATOM      5  C   UNL     1      99.000 129.919  83.636  0.00  0.00    +0.000 A 
ATOM      6  C   UNL     1      99.675 130.966  84.259  0.00  0.00    +0.000 A 
ATOM      7  C   UNL     1     101.029 130.843  84.556  0.00  0.00    +0.000 A 
ATOM      8  C   UNL     1      98.902 127.620  82.640  0.00  0.00    +0.000 C 
ENDROOT
BRANCH   3   9
ATOM      9  C   UNL     1     101.754 127.358  83.281  0.00  0.00    +0.000 C 
ATOM     10  C   UNL     1     102.384 127.198  82.107  0.00  0.00    +0.000 C 
BRANCH  10  11
ATOM     11  C   UNL     1     103.121 125.986  81.724  0.00  0.00    +0.000 A 
ATOM     12  C   UNL     1     103.611 125.784  80.426  0.00  0.00    +0.000 A 
ATOM     13  C   UNL     1     104.334 124.630  80.111  0.00  0.00    +0.000 A 
ATOM     14  C   UNL     1     104.583 123.672  81.091  0.00  0.00    +0.000 A 
ATOM     15  C   UNL     1     104.114 123.869  82.389  0.00  0.00    +0.000 A 
ATOM     16  C   UNL     1     103.392 125.023  82.704  0.00  0.00    +0.000 A 
ENDBRANCH  10  11
ENDBRANCH   3   9
TORSDOF 2
ENDMDL
