MODEL 1
REMARK VINA RESULT:      -4.5      0.000      0.000
REMARK  Name = *****
REMARK  3 active torsions:
REMARK  status: ('A' for Active; 'I' for Inactive)
REMARK    1  A    between atoms: C_6  and  C_7
REMARK    2  A    between atoms: C_7  and  O_9
REMARK    3  A    between atoms: O_9  and  C_10
REMARK                            x       y       z     vdW  Elec       q    Type
REMARK                         _______ _______ _______ _____ _____    ______ ____
ROOT
ATOM      1  C   UNL     1     104.679 124.461  80.313  0.00  0.00    +0.000 C 
ATOM      2  O   UNL     1     105.721 124.845  79.804  0.00  0.00    +0.000 OA
ENDROOT
BRANCH   1   8
ATOM      3  C   UNL     1     104.527 123.385  82.609  0.00  0.00    +0.000 A 
ATOM      4  C   UNL     1     104.482 122.236  83.403  0.00  0.00    +0.000 A 
ATOM      5  C   UNL     1     104.506 120.983  82.803  0.00  0.00    +0.000 A 
ATOM      6  C   UNL     1     104.571 120.852  81.420  0.00  0.00    +0.000 A 
ATOM      7  C   UNL     1     104.616 121.998  80.622  0.00  0.00    +0.000 A 
ATOM      8  C   UNL     1     104.597 123.273  81.211  0.00  0.00    +0.000 A 
ATOM      9  F   UNL     1     104.469 119.884  83.568  0.00  0.00    +0.000 F 
ENDBRANCH   1   8
BRANCH   1  10
ATOM     10  O   UNL     1     103.426 125.031  80.182  0.00  0.00    +0.000 OA
BRANCH  10  11
ATOM     11  C   UNL     1     103.124 126.110  81.026  0.00  0.00    +0.000 A 
ATOM     12  C   UNL     1     103.925 127.253  81.057  0.00  0.00    +0.000 A 
ATOM     13  C   UNL     1     103.643 128.260  81.981  0.00  0.00    +0.000 A 
ATOM     14  C   UNL     1     102.577 128.108  82.870  0.00  0.00    +0.000 A 
ATOM     15  C   UNL     1     101.790 126.956  82.844  0.00  0.00    +0.000 A 
ATOM     16  C   UNL     1     102.067 125.946  81.920  0.00  0.00    +0.000 A 
ATOM     17 CL   UNL     1     102.245 129.344  84.020  0.00  0.00    +0.000 Cl
ENDBRANCH  10  11
ENDBRANCH   1  10
TORSDOF 3
ENDMDL
