MODEL 1
REMARK VINA RESULT:      -4.6      0.000      0.000
REMARK  Name = *****
REMARK  4 active torsions:
REMARK  status: ('A' for Active; 'I' for Inactive)
REMARK    1  A    between atoms: C_1  and  C_2
REMARK    2  A    between atoms: C_7  and  C_8
REMARK    3  A    between atoms: C_8  and  O_10
REMARK    4  A    between atoms: O_10  and  C_11
REMARK                            x       y       z     vdW  Elec       q    Type
REMARK                         _______ _______ _______ _____ _____    ______ ____
ROOT
ATOM      1  C   UNL     1     101.824 125.945  82.852  0.00  0.00    +0.000 C 
ATOM      2  O   UNL     1     102.336 125.339  83.781  0.00  0.00    +0.000 OA
ENDROOT
BRANCH   1   9
ATOM      3  C   UNL     1     102.659 128.598  84.097  0.00  0.00    +0.000 C 
ATOM      4  C   UNL     1     101.269 128.317  83.599  0.00  0.00    +0.000 A 
ATOM      5  C   UNL     1     100.304 129.336  83.686  0.00  0.00    +0.000 A 
ATOM      6  C   UNL     1      98.991 129.119  83.261  0.00  0.00    +0.000 A 
ATOM      7  C   UNL     1      98.618 127.883  82.742  0.00  0.00    +0.000 A 
ATOM      8  C   UNL     1      99.565 126.865  82.633  0.00  0.00    +0.000 A 
ATOM      9  C   UNL     1     100.891 127.082  83.037  0.00  0.00    +0.000 A 
ENDBRANCH   1   9
BRANCH   1  10
ATOM     10  O   UNL     1     101.899 125.648  81.505  0.00  0.00    +0.000 OA
BRANCH  10  11
ATOM     11  C   UNL     1     103.173 125.853  80.970  0.00  0.00    +0.000 A 
ATOM     12  C   UNL     1     103.934 124.742  80.618  0.00  0.00    +0.000 A 
ATOM     13  C   UNL     1     105.228 124.929  80.126  0.00  0.00    +0.000 A 
ATOM     14  C   UNL     1     105.751 126.225  80.006  0.00  0.00    +0.000 A 
ATOM     15  C   UNL     1     104.978 127.330  80.385  0.00  0.00    +0.000 A 
ATOM     16  C   UNL     1     103.687 127.145  80.877  0.00  0.00    +0.000 A 
ATOM     17 CL   UNL     1     107.345 126.528  79.410  0.00  0.00    +0.000 Cl
ATOM     18 CL   UNL     1     106.133 123.523  79.694  0.00  0.00    +0.000 Cl
ENDBRANCH  10  11
ENDBRANCH   1  10
TORSDOF 3
ENDMDL
