MODEL 1
REMARK VINA RESULT:      -4.3      0.000      0.000
REMARK  Name = *****
REMARK  6 active torsions:
REMARK  status: ('A' for Active; 'I' for Inactive)
REMARK    1  A    between atoms: C_1  and  O_2
REMARK    2  A    between atoms: O_2  and  C_3
REMARK    3  A    between atoms: C_3  and  C_4
REMARK    4  A    between atoms: C_9  and  C_10
REMARK    5  A    between atoms: C_10  and  C_11
REMARK    6  A    between atoms: C_11  and  C_12
REMARK                            x       y       z     vdW  Elec       q    Type
REMARK                         _______ _______ _______ _____ _____    ______ ____
ROOT
ATOM      1  C   UNL     1      88.931  68.843  87.031  0.00  0.00    +0.000 A 
ATOM      2  C   UNL     1      89.364  70.050  87.614  0.00  0.00    +0.000 A 
ATOM      3  C   UNL     1      88.610  70.686  88.599  0.00  0.00    +0.000 A 
ATOM      4  C   UNL     1      87.410  70.128  89.020  0.00  0.00    +0.000 A 
ATOM      5  C   UNL     1      86.964  68.934  88.455  0.00  0.00    +0.000 A 
ATOM      6  C   UNL     1      87.708  68.280  87.456  0.00  0.00    +0.000 A 
ENDROOT
BRANCH   1   7
ATOM      7  C   UNL     1      89.800  68.208  85.966  0.00  0.00    +0.000 C 
BRANCH   7   9
ATOM      8  C   UNL     1      90.735  66.049  85.632  0.00  0.00    +0.000 C 
ATOM      9  O   UNL     1      90.650  67.185  86.482  0.00  0.00    +0.000 OA
ENDBRANCH   7   9
ENDBRANCH   1   7
BRANCH   6  10
ATOM     10  C   UNL     1      87.172  66.974  86.909  0.00  0.00    +0.000 C 
BRANCH  10  11
ATOM     11  C   UNL     1      86.220  66.290  87.896  0.00  0.00    +0.000 C 
BRANCH  11  12
ATOM     12  C   UNL     1      86.960  65.416  88.878  0.00  0.00    +0.000 A 
ATOM     13  C   UNL     1      86.491  65.272  90.191  0.00  0.00    +0.000 A 
ATOM     14  C   UNL     1      87.181  64.474  91.104  0.00  0.00    +0.000 A 
ATOM     15  C   UNL     1      88.345  63.815  90.716  0.00  0.00    +0.000 A 
ATOM     16  C   UNL     1      88.822  63.954  89.413  0.00  0.00    +0.000 A 
ATOM     17  C   UNL     1      88.135  64.753  88.498  0.00  0.00    +0.000 A 
ENDBRANCH  11  12
ENDBRANCH  10  11
ENDBRANCH   6  10
TORSDOF 5
ENDMDL
