MODEL 1
REMARK VINA RESULT:      -3.7      0.000      0.000
REMARK  Name = *****
REMARK  5 active torsions:
REMARK  status: ('A' for Active; 'I' for Inactive)
REMARK    1  A    between atoms: C_1  and  C_2
REMARK    2  A    between atoms: C_2  and  C_6
REMARK    3  A    between atoms: C_6  and  S_7
REMARK    4  A    between atoms: S_7  and  C_8
REMARK    5  A    between atoms: C_8  and  C_9
REMARK                            x       y       z     vdW  Elec       q    Type
REMARK                         _______ _______ _______ _____ _____    ______ ____
ROOT
ATOM      1  S   UNL     1     103.599 126.364  83.522  0.00  0.00    +0.000 S 
ENDROOT
BRANCH   1   2
ATOM      2  C   UNL     1     104.794 126.797  82.228  0.00  0.00    +0.000 C 
BRANCH   2   4
ATOM      3  C   UNL     1     103.644 127.640  80.107  0.00  0.00    +0.000 C 
ATOM      4  C   UNL     1     104.296 126.442  80.814  0.00  0.00    +0.000 C 
ATOM      5  C   UNL     1     105.443 125.848  79.926  0.00  0.00    +0.000 C 
ATOM      6  S   UNL     1     104.965 124.154  80.393  0.00  0.00    +0.000 S 
ATOM      7  C   UNL     1     103.451 125.127  80.690  0.00  0.00    +0.000 C 
ENDBRANCH   2   4
ENDBRANCH   1   2
BRANCH   1   8
ATOM      8  C   UNL     1     102.813 127.992  83.726  0.00  0.00    +0.000 C 
BRANCH   8   9
ATOM      9  C   UNL     1     101.354 127.955  83.354  0.00  0.00    +0.000 A 
ATOM     10  C   UNL     1     100.509 129.028  83.672  0.00  0.00    +0.000 A 
ATOM     11  C   UNL     1      99.155 128.989  83.334  0.00  0.00    +0.000 A 
ATOM     12  C   UNL     1      98.631 127.876  82.680  0.00  0.00    +0.000 A 
ATOM     13  C   UNL     1      99.458 126.799  82.367  0.00  0.00    +0.000 A 
ATOM     14  C   UNL     1     100.812 126.836  82.705  0.00  0.00    +0.000 A 
ENDBRANCH   8   9
ENDBRANCH   1   8
TORSDOF 4
ENDMDL
