REMARK  Name = *****
REMARK  4 active torsions:
REMARK  status: ('A' for Active; 'I' for Inactive)
REMARK    1  A    between atoms: C_1  and  C_2
REMARK    2  A    between atoms: C_7  and  N_8
REMARK    3  A    between atoms: C_9  and  C_10
REMARK    4  A    between atoms: C_9  and  C_11
REMARK                            x       y       z     vdW  Elec       q    Type
REMARK                         _______ _______ _______ _____ _____    ______ ____
ROOT
ATOM      1  N   UNL     1       0.784  -2.882  -1.740  0.00  0.00    +0.000 NA
ATOM      2  C   UNL     1       1.894  -2.933  -1.062  0.00  0.00    +0.000 C 
ATOM      3  C   UNL     1       2.681  -1.715  -0.623  0.00  0.00    +0.000 C 
ENDROOT
BRANCH   1  10
ATOM      4  C   UNL     1      -1.265  -1.686  -0.075  0.00  0.00    +0.000 C 
ATOM      5  C   UNL     1      -0.759  -1.030  -1.328  0.00  0.00    +0.000 A 
ATOM      6  C   UNL     1      -1.280   0.210  -1.730  0.00  0.00    +0.000 A 
ATOM      7  C   UNL     1      -0.830   0.823  -2.900  0.00  0.00    +0.000 A 
ATOM      8  C   UNL     1       0.140   0.203  -3.683  0.00  0.00    +0.000 A 
ATOM      9  C   UNL     1       0.667  -1.027  -3.288  0.00  0.00    +0.000 A 
ATOM     10  C   UNL     1       0.243  -1.640  -2.103  0.00  0.00    +0.000 A 
ENDBRANCH   1  10
BRANCH   2  11
ATOM     11  C   UNL     1       2.426  -4.324  -0.715  0.00  0.00    +0.000 C 
ATOM     12  C   UNL     1       2.409  -4.562   0.798  0.00  0.00    +0.000 C 
ATOM     13  C   UNL     1       2.947  -5.948   1.149  0.00  0.00    +0.000 C 
ATOM     14  C   UNL     1       4.334  -6.180   0.553  0.00  0.00    +0.000 C 
ATOM     15  C   UNL     1       4.348  -5.944  -0.955  0.00  0.00    +0.000 C 
ATOM     16  C   UNL     1       3.817  -4.558  -1.313  0.00  0.00    +0.000 C 
ENDBRANCH   2  11
TORSDOF 2
