MODEL 1
REMARK VINA RESULT:      -4.2      0.000      0.000
REMARK  Name = *****
REMARK  3 active torsions:
REMARK  status: ('A' for Active; 'I' for Inactive)
REMARK    1  A    between atoms: C_4  and  C_7
REMARK    2  A    between atoms: C_7  and  S_9
REMARK    3  A    between atoms: S_9  and  C_10
REMARK                            x       y       z     vdW  Elec       q    Type
REMARK                         _______ _______ _______ _____ _____    ______ ____
ROOT
ATOM      1  C   UNL     1     100.589 127.038  82.930  0.00  0.00    +0.000 C 
ATOM      2  O   UNL     1      99.734 126.500  82.238  0.00  0.00    +0.000 OA
ENDROOT
BRANCH   1   6
ATOM      3  C   UNL     1     100.292 130.887  84.926  0.00  0.00    +0.000 C 
ATOM      4  C   UNL     1     101.684 130.335  84.637  0.00  0.00    +0.000 C 
ATOM      5  C   UNL     1     101.640 128.842  84.320  0.00  0.00    +0.000 C 
ATOM      6  C   UNL     1     100.675 128.539  83.166  0.00  0.00    +0.000 C 
ATOM      7  C   UNL     1      99.278 129.096  83.460  0.00  0.00    +0.000 C 
ATOM      8  C   UNL     1      99.321 130.586  83.787  0.00  0.00    +0.000 C 
ENDBRANCH   1   6
BRANCH   1   9
ATOM      9  S   UNL     1     101.847 126.096  83.737  0.00  0.00    +0.000 S 
BRANCH   9  10
ATOM     10  C   UNL     1     102.908 125.710  82.357  0.00  0.00    +0.000 A 
ATOM     11  C   UNL     1     103.063 126.649  81.330  0.00  0.00    +0.000 A 
ATOM     12  C   UNL     1     103.901 126.376  80.244  0.00  0.00    +0.000 A 
ATOM     13  C   UNL     1     104.591 125.167  80.189  0.00  0.00    +0.000 A 
ATOM     14  C   UNL     1     104.453 124.231  81.211  0.00  0.00    +0.000 A 
ATOM     15  C   UNL     1     103.617 124.505  82.296  0.00  0.00    +0.000 A 
ATOM     16 CL   UNL     1     105.621 124.831  78.853  0.00  0.00    +0.000 Cl
ENDBRANCH   9  10
ENDBRANCH   1   9
TORSDOF 3
ENDMDL
