REMARK  Name = *****
REMARK  4 active torsions:
REMARK  status: ('A' for Active; 'I' for Inactive)
REMARK    1  A    between atoms: C_1  and  N_2
REMARK    2  A    between atoms: N_2  and  C_5
REMARK    3  A    between atoms: C_8  and  C_11
REMARK    4  A    between atoms: C_12  and  C_13
REMARK                            x       y       z     vdW  Elec       q    Type
REMARK                         _______ _______ _______ _____ _____    ______ ____
ROOT
ATOM      1  C   UNL     1       3.088   0.700   0.952  0.00  0.00    +0.000 A 
ATOM      2  C   UNL     1       2.486   1.024   2.177  0.00  0.00    +0.000 A 
ATOM      3  C   UNL     1       3.163   1.772   3.153  0.00  0.00    +0.000 A 
ATOM      4  C   UNL     1       4.471   2.211   2.943  0.00  0.00    +0.000 A 
ATOM      5  C   UNL     1       5.078   1.908   1.725  0.00  0.00    +0.000 A 
ATOM      6  C   UNL     1       4.401   1.159   0.751  0.00  0.00    +0.000 A 
ENDROOT
BRANCH   1   8
ATOM      7  C   UNL     1       3.145  -0.462  -1.260  0.00  0.00    +0.000 C 
ATOM      8  N   UNL     1       2.415  -0.067  -0.062  0.00  0.00    +0.000 N 
ATOM      9  C   UNL     1       1.083  -0.455   0.012  0.00  0.00    +0.000 C 
ATOM     10  O   UNL     1       0.474  -1.115  -0.826  0.00  0.00    +0.000 OA
ENDBRANCH   1   8
BRANCH   4  11
ATOM     11  C   UNL     1       5.200   3.024   3.925  0.00  0.00    +0.000 C 
ATOM     12  C   UNL     1       5.125   2.840   5.253  0.00  0.00    +0.000 C 
BRANCH  12  13
ATOM     13  C   UNL     1       5.869   3.644   6.233  0.00  0.00    +0.000 A 
ATOM     14  C   UNL     1       6.041   5.027   6.088  0.00  0.00    +0.000 A 
ATOM     15  C   UNL     1       6.728   5.764   7.057  0.00  0.00    +0.000 A 
ATOM     16  C   UNL     1       7.239   5.127   8.186  0.00  0.00    +0.000 A 
ATOM     17  C   UNL     1       7.060   3.755   8.349  0.00  0.00    +0.000 A 
ATOM     18  C   UNL     1       6.373   3.019   7.380  0.00  0.00    +0.000 A 
ENDBRANCH  12  13
ENDBRANCH   4  11
TORSDOF 3
