MODEL 1
REMARK VINA RESULT:      -4.4      0.000      0.000
REMARK  Name = *****
REMARK  4 active torsions:
REMARK  status: ('A' for Active; 'I' for Inactive)
REMARK    1  A    between atoms: C_1  and  C_2
REMARK    2  A    between atoms: C_7  and  S_8
REMARK    3  A    between atoms: S_8  and  S_11
REMARK    4  A    between atoms: S_11  and  C_12
REMARK                            x       y       z     vdW  Elec       q    Type
REMARK                         _______ _______ _______ _____ _____    ______ ____
ROOT
ATOM      1  S   UNL     1      88.579  69.973  86.649  0.00  0.00    +0.000 S 
ATOM      2  O   UNL     1      89.703  70.846  86.935  0.00  0.00    +0.000 OA
ATOM      3  O   UNL     1      88.515  68.643  87.223  0.00  0.00    +0.000 OA
ENDROOT
BRANCH   1  10
ATOM      4  C   UNL     1      87.590  70.736  89.613  0.00  0.00    +0.000 C 
ATOM      5  C   UNL     1      86.743  71.127  88.435  0.00  0.00    +0.000 A 
ATOM      6  C   UNL     1      85.561  71.848  88.682  0.00  0.00    +0.000 A 
ATOM      7  C   UNL     1      84.737  72.268  87.636  0.00  0.00    +0.000 A 
ATOM      8  C   UNL     1      85.083  71.988  86.319  0.00  0.00    +0.000 A 
ATOM      9  C   UNL     1      86.255  71.284  86.046  0.00  0.00    +0.000 A 
ATOM     10  C   UNL     1      87.083  70.850  87.096  0.00  0.00    +0.000 A 
ENDBRANCH   1  10
BRANCH   1  11
ATOM     11  S   UNL     1      88.425  69.819  84.563  0.00  0.00    +0.000 S 
BRANCH  11  12
ATOM     12  C   UNL     1      89.476  71.152  84.029  0.00  0.00    +0.000 A 
ATOM     13  C   UNL     1      90.810  70.890  83.701  0.00  0.00    +0.000 A 
ATOM     14  C   UNL     1      91.644  71.921  83.263  0.00  0.00    +0.000 A 
ATOM     15  C   UNL     1      91.147  73.217  83.145  0.00  0.00    +0.000 A 
ATOM     16  C   UNL     1      89.816  73.484  83.461  0.00  0.00    +0.000 A 
ATOM     17  C   UNL     1      88.980  72.453  83.896  0.00  0.00    +0.000 A 
ENDBRANCH  11  12
ENDBRANCH   1  11
TORSDOF 3
ENDMDL
