MODEL 1
REMARK VINA RESULT:      -4.6      0.000      0.000
REMARK  Name = *****
REMARK  3 active torsions:
REMARK  status: ('A' for Active; 'I' for Inactive)
REMARK    1  A    between atoms: C_1  and  C_2
REMARK    2  A    between atoms: C_2  and  C_11
REMARK    3  A    between atoms: N_3  and  C_4
REMARK                            x       y       z     vdW  Elec       q    Type
REMARK                         _______ _______ _______ _____ _____    ______ ____
ROOT
ATOM      1  C   UNL     1     100.452 126.609  82.512  0.00  0.00    +0.000 C 
ATOM      2  C   UNL     1     101.514 127.596  82.963  0.00  0.00    +0.000 C 
ATOM      3  N   UNL     1     102.795 127.391  82.844  0.00  0.00    +0.000 NA
ENDROOT
BRANCH   3   4
ATOM      4  C   UNL     1     103.272 126.216  82.256  0.00  0.00    +0.000 A 
ATOM      5  C   UNL     1     103.470 126.143  80.874  0.00  0.00    +0.000 A 
ATOM      6  C   UNL     1     103.972 124.977  80.291  0.00  0.00    +0.000 A 
ATOM      7  C   UNL     1     104.290 123.886  81.097  0.00  0.00    +0.000 A 
ATOM      8  C   UNL     1     104.118 123.953  82.479  0.00  0.00    +0.000 A 
ATOM      9  C   UNL     1     103.615 125.123  83.056  0.00  0.00    +0.000 A 
ATOM     10 CL   UNL     1     104.908 122.447  80.384  0.00  0.00    +0.000 Cl
ENDBRANCH   3   4
BRANCH   2  11
ATOM     11  C   UNL     1     101.058 128.886  83.570  0.00  0.00    +0.000 A 
ATOM     12  C   UNL     1     101.928 129.700  84.304  0.00  0.00    +0.000 A 
ATOM     13  C   UNL     1     101.467 130.894  84.863  0.00  0.00    +0.000 A 
ATOM     14  C   UNL     1     100.136 131.278  84.696  0.00  0.00    +0.000 A 
ATOM     15  C   UNL     1      99.261 130.465  83.978  0.00  0.00    +0.000 A 
ATOM     16  C   UNL     1      99.719 129.270  83.419  0.00  0.00    +0.000 A 
ENDBRANCH   2  11
TORSDOF 2
ENDMDL
