MODEL 1
REMARK VINA RESULT:      -4.4      0.000      0.000
REMARK  Name = *****
REMARK  3 active torsions:
REMARK  status: ('A' for Active; 'I' for Inactive)
REMARK    1  A    between atoms: C_4  and  C_7
REMARK    2  A    between atoms: N_8  and  C_9
REMARK    3  A    between atoms: C_12  and  S_15
REMARK                            x       y       z     vdW  Elec       q    Type
REMARK                         _______ _______ _______ _____ _____    ______ ____
ROOT
ATOM      1  C   UNL     1     101.988 125.996  82.604  0.00  0.00    +0.000 C 
ATOM      2  N   UNL     1     102.691 125.959  81.514  0.00  0.00    +0.000 NA
ENDROOT
BRANCH   1   6
ATOM      3  C   UNL     1      99.005 128.968  83.266  0.00  0.00    +0.000 A 
ATOM      4  C   UNL     1      98.658 127.773  82.633  0.00  0.00    +0.000 A 
ATOM      5  C   UNL     1      99.627 126.794  82.412  0.00  0.00    +0.000 A 
ATOM      6  C   UNL     1     100.944 127.014  82.826  0.00  0.00    +0.000 A 
ATOM      7  C   UNL     1     101.294 128.211  83.458  0.00  0.00    +0.000 A 
ATOM      8  C   UNL     1     100.320 129.187  83.677  0.00  0.00    +0.000 A 
ENDBRANCH   1   6
BRANCH   2   9
ATOM      9  C   UNL     1     103.647 124.937  81.440  0.00  0.00    +0.000 A 
ATOM     10  C   UNL     1     103.940 124.161  82.563  0.00  0.00    +0.000 A 
ATOM     11  C   UNL     1     104.884 123.132  82.487  0.00  0.00    +0.000 A 
ATOM     12  C   UNL     1     105.532 122.864  81.278  0.00  0.00    +0.000 A 
ATOM     13  C   UNL     1     105.234 123.632  80.150  0.00  0.00    +0.000 A 
ATOM     14  C   UNL     1     104.289 124.660  80.231  0.00  0.00    +0.000 A 
BRANCH  12  15
ATOM     15  S   UNL     1     106.740 121.563  81.168  0.00  0.00    +0.000 S 
ATOM     16  H   UNL     1     106.841 120.935  82.371  0.00  0.00    +0.000 HD
ENDBRANCH  12  15
ENDBRANCH   2   9
TORSDOF 3
ENDMDL
