MODEL 1
REMARK VINA RESULT:      -4.0      0.000      0.000
REMARK  Name = *****
REMARK  2 active torsions:
REMARK  status: ('A' for Active; 'I' for Inactive)
REMARK    1  A    between atoms: C_4  and  C_7
REMARK    2  A    between atoms: N_8  and  C_9
REMARK                            x       y       z     vdW  Elec       q    Type
REMARK                         _______ _______ _______ _____ _____    ______ ____
ROOT
ATOM      1  C   UNL     1     102.820 125.722  83.300  0.00  0.00    +0.000 C 
ATOM      2  N   UNL     1     101.642 125.751  83.848  0.00  0.00    +0.000 NA
ATOM      3 CL   UNL     1     103.784 124.356  83.778  0.00  0.00    +0.000 Cl
ENDROOT
BRANCH   1   7
ATOM      4  C   UNL     1     104.419 128.565  80.538  0.00  0.00    +0.000 A 
ATOM      5  C   UNL     1     103.650 127.495  80.076  0.00  0.00    +0.000 A 
ATOM      6  C   UNL     1     103.133 126.566  80.980  0.00  0.00    +0.000 A 
ATOM      7  C   UNL     1     103.394 126.708  82.348  0.00  0.00    +0.000 A 
ATOM      8  C   UNL     1     104.152 127.788  82.811  0.00  0.00    +0.000 A 
ATOM      9  C   UNL     1     104.668 128.713  81.903  0.00  0.00    +0.000 A 
ENDBRANCH   1   7
BRANCH   2  10
ATOM     10  C   UNL     1     100.758 126.815  83.629  0.00  0.00    +0.000 A 
ATOM     11  C   UNL     1      99.727 126.666  82.697  0.00  0.00    +0.000 A 
ATOM     12  C   UNL     1      98.816 127.701  82.475  0.00  0.00    +0.000 A 
ATOM     13  C   UNL     1      98.922 128.888  83.198  0.00  0.00    +0.000 A 
ATOM     14  C   UNL     1      99.929 129.034  84.151  0.00  0.00    +0.000 A 
ATOM     15  C   UNL     1     100.837 127.997  84.373  0.00  0.00    +0.000 A 
ENDBRANCH   2  10
TORSDOF 2
ENDMDL
