MODEL 1
REMARK VINA RESULT:      -4.6      0.000      0.000
REMARK  Name = *****
REMARK  6 active torsions:
REMARK  status: ('A' for Active; 'I' for Inactive)
REMARK    1  A    between atoms: C_1  and  C_2
REMARK    2  A    between atoms: C_4  and  C_8
REMARK    3  A    between atoms: C_8  and  C_9
REMARK    4  A    between atoms: C_9  and  O_11
REMARK    5  A    between atoms: O_11  and  C_12
REMARK    6  A    between atoms: C_16  and  C_18
REMARK                            x       y       z     vdW  Elec       q    Type
REMARK                         _______ _______ _______ _____ _____    ______ ____
ROOT
ATOM      1  C   UNL     1      89.520  68.009  86.125  0.00  0.00    +0.000 C 
ATOM      2  O   UNL     1      90.586  67.568  86.540  0.00  0.00    +0.000 OA
ENDROOT
BRANCH   1   3
ATOM      3  C   UNL     1      88.282  67.170  85.926  0.00  0.00    +0.000 C 
BRANCH   3   7
ATOM      4  C   UNL     1      88.619  63.585  89.462  0.00  0.00    +0.000 C 
ATOM      5  C   UNL     1      87.932  64.794  88.898  0.00  0.00    +0.000 A 
ATOM      6  C   UNL     1      88.401  65.390  87.719  0.00  0.00    +0.000 A 
ATOM      7  C   UNL     1      87.788  66.543  87.205  0.00  0.00    +0.000 A 
ATOM      8  C   UNL     1      86.699  67.098  87.888  0.00  0.00    +0.000 A 
ATOM      9  C   UNL     1      86.237  66.519  89.069  0.00  0.00    +0.000 A 
ATOM     10  C   UNL     1      86.855  65.376  89.575  0.00  0.00    +0.000 A 
ENDBRANCH   3   7
ENDBRANCH   1   3
BRANCH   1  11
ATOM     11  O   UNL     1      89.244  69.325  85.765  0.00  0.00    +0.000 OA
BRANCH  11  12
ATOM     12  C   UNL     1      88.505  70.034  86.715  0.00  0.00    +0.000 A 
ATOM     13  C   UNL     1      88.996  70.089  88.017  0.00  0.00    +0.000 A 
ATOM     14  C   UNL     1      88.257  70.753  88.993  0.00  0.00    +0.000 A 
ATOM     15  C   UNL     1      87.030  71.337  88.666  0.00  0.00    +0.000 A 
ATOM     16  C   UNL     1      86.521  71.249  87.362  0.00  0.00    +0.000 A 
ATOM     17  C   UNL     1      87.272  70.594  86.380  0.00  0.00    +0.000 A 
ATOM     18  C   UNL     1      85.221  71.909  87.008  0.00  0.00    +0.000 C 
ENDBRANCH  11  12
ENDBRANCH   1  11
TORSDOF 4
ENDMDL
