MODEL 1
REMARK VINA RESULT:      -4.4      0.000      0.000
REMARK  Name = *****
REMARK  2 active torsions:
REMARK  status: ('A' for Active; 'I' for Inactive)
REMARK    1  A    between atoms: C_4  and  C_7
REMARK    2  A    between atoms: C_8  and  C_10
REMARK                            x       y       z     vdW  Elec       q    Type
REMARK                         _______ _______ _______ _____ _____    ______ ____
ROOT
ATOM      1  C   UNL     1      88.220  64.378  88.510  0.00  0.00    +0.000 C 
ATOM      2  C   UNL     1      87.717  65.241  87.363  0.00  0.00    +0.000 C 
ATOM      3  O   UNL     1      88.567  64.105  87.143  0.00  0.00    +0.000 OA
ENDROOT
BRANCH   2   4
ATOM      4  C   UNL     1      88.306  66.612  87.152  0.00  0.00    +0.000 A 
ATOM      5  C   UNL     1      87.676  67.757  87.670  0.00  0.00    +0.000 A 
ATOM      6  C   UNL     1      88.214  69.028  87.467  0.00  0.00    +0.000 A 
ATOM      7  C   UNL     1      89.390  69.191  86.741  0.00  0.00    +0.000 A 
ATOM      8  C   UNL     1      90.030  68.073  86.214  0.00  0.00    +0.000 A 
ATOM      9  C   UNL     1      89.489  66.800  86.417  0.00  0.00    +0.000 A 
ATOM     10 CL   UNL     1      87.414  70.405  88.119  0.00  0.00    +0.000 Cl
ENDBRANCH   2   4
BRANCH   1  14
ATOM     11  C   UNL     1      85.487  61.684  90.519  0.00  0.00    +0.000 A 
ATOM     12  C   UNL     1      85.997  61.352  89.267  0.00  0.00    +0.000 A 
ATOM     13  C   UNL     1      86.877  62.222  88.619  0.00  0.00    +0.000 A 
ATOM     14  C   UNL     1      87.264  63.440  89.201  0.00  0.00    +0.000 A 
ATOM     15  C   UNL     1      86.738  63.748  90.467  0.00  0.00    +0.000 A 
ATOM     16  C   UNL     1      85.858  62.882  91.120  0.00  0.00    +0.000 A 
ENDBRANCH   1  14
TORSDOF 2
ENDMDL
