MODEL 1
REMARK VINA RESULT:      -4.6      0.000      0.000
REMARK  Name = *****
REMARK  3 active torsions:
REMARK  status: ('A' for Active; 'I' for Inactive)
REMARK    1  A    between atoms: C_4  and  C_7
REMARK    2  A    between atoms: C_7  and  O_9
REMARK    3  A    between atoms: O_9  and  C_10
REMARK                            x       y       z     vdW  Elec       q    Type
REMARK                         _______ _______ _______ _____ _____    ______ ____
ROOT
ATOM      1  O   UNL     1      88.567  70.110  87.057  0.00  0.00    +0.000 OA
ENDROOT
BRANCH   1   2
ATOM      2  C   UNL     1      88.679  68.720  87.039  0.00  0.00    +0.000 A 
ATOM      3  C   UNL     1      89.769  68.128  86.403  0.00  0.00    +0.000 A 
ATOM      4  C   UNL     1      89.855  66.735  86.352  0.00  0.00    +0.000 A 
ATOM      5  C   UNL     1      88.843  65.950  86.923  0.00  0.00    +0.000 A 
ATOM      6  C   UNL     1      87.746  66.561  87.541  0.00  0.00    +0.000 A 
ATOM      7  C   UNL     1      87.657  67.953  87.594  0.00  0.00    +0.000 A 
ATOM      8 CL   UNL     1      88.883  64.222  86.892  0.00  0.00    +0.000 Cl
ATOM      9 CL   UNL     1      91.228  66.043  85.562  0.00  0.00    +0.000 Cl
ENDBRANCH   1   2
BRANCH   1  10
ATOM     10  C   UNL     1      87.791  70.599  86.022  0.00  0.00    +0.000 C 
ATOM     11  O   UNL     1      88.032  70.525  84.826  0.00  0.00    +0.000 OA
BRANCH  10  15
ATOM     12  C   UNL     1      84.236  72.504  87.488  0.00  0.00    +0.000 A 
ATOM     13  C   UNL     1      85.163  72.000  88.401  0.00  0.00    +0.000 A 
ATOM     14  C   UNL     1      86.328  71.376  87.947  0.00  0.00    +0.000 A 
ATOM     15  C   UNL     1      86.569  71.253  86.571  0.00  0.00    +0.000 A 
ATOM     16  C   UNL     1      85.632  71.763  85.661  0.00  0.00    +0.000 A 
ATOM     17  C   UNL     1      84.470  72.386  86.119  0.00  0.00    +0.000 A 
ENDBRANCH  10  15
ENDBRANCH   1  10
TORSDOF 3
ENDMDL
