MODEL 1
REMARK VINA RESULT:      -4.8      0.000      0.000
REMARK  Name = *****
REMARK  4 active torsions:
REMARK  status: ('A' for Active; 'I' for Inactive)
REMARK    1  A    between atoms: C_5  and  C_7
REMARK    2  A    between atoms: C_7  and  S_8
REMARK    3  A    between atoms: S_8  and  C_9
REMARK    4  A    between atoms: C_12  and  C_14
REMARK                            x       y       z     vdW  Elec       q    Type
REMARK                         _______ _______ _______ _____ _____    ______ ____
ROOT
ATOM      1  S   UNL     1     103.156 126.722  80.999  0.00  0.00    +0.000 S 
ENDROOT
BRANCH   1   2
ATOM      2  C   UNL     1     104.044 125.283  80.618  0.00  0.00    +0.000 A 
ATOM      3  N   UNL     1     104.932 125.169  79.651  0.00  0.00    +0.000 NA
ATOM      4  N   UNL     1     105.409 123.876  79.694  0.00  0.00    +0.000 NA
ATOM      5  C   UNL     1     104.781 123.279  80.689  0.00  0.00    +0.000 A 
ATOM      6  O   UNL     1     103.897 124.119  81.325  0.00  0.00    +0.000 OA
BRANCH   5   7
ATOM      7  C   UNL     1     104.891 121.889  81.200  0.00  0.00    +0.000 C 
ATOM      8  F   UNL     1     104.666 121.799  82.538  0.00  0.00    +0.000 F 
ATOM      9  F   UNL     1     103.997 121.053  80.603  0.00  0.00    +0.000 F 
ATOM     10  F   UNL     1     106.123 121.357  80.978  0.00  0.00    +0.000 F 
ENDBRANCH   5   7
ENDBRANCH   1   2
BRANCH   1  11
ATOM     11  C   UNL     1     101.962 126.056  82.195  0.00  0.00    +0.000 C 
BRANCH  11  16
ATOM     12  C   UNL     1     100.566 129.214  83.817  0.00  0.00    +0.000 A 
ATOM     13  C   UNL     1      99.201 129.074  83.569  0.00  0.00    +0.000 A 
ATOM     14  C   UNL     1      98.734 127.958  82.876  0.00  0.00    +0.000 A 
ATOM     15  C   UNL     1      99.635 126.994  82.435  0.00  0.00    +0.000 A 
ATOM     16  C   UNL     1     101.008 127.119  82.668  0.00  0.00    +0.000 A 
ATOM     17  C   UNL     1     101.466 128.243  83.371  0.00  0.00    +0.000 A 
ATOM     18  F   UNL     1      99.164 125.927  81.772  0.00  0.00    +0.000 F 
ENDBRANCH  11  16
ENDBRANCH   1  11
TORSDOF 4
ENDMDL
