REMARK  Name = *****
REMARK  6 active torsions:
REMARK  status: ('A' for Active; 'I' for Inactive)
REMARK    1  A    between atoms: C_1  and  C_2
REMARK    2  A    between atoms: C_6  and  C_19
REMARK    3  A    between atoms: C_8  and  N_10
REMARK    4  A    between atoms: N_10  and  C_11
REMARK    5  A    between atoms: N_10  and  C_12
REMARK    6  A    between atoms: C_12  and  C_13
REMARK                            x       y       z     vdW  Elec       q    Type
REMARK                         _______ _______ _______ _____ _____    ______ ____
ROOT
ATOM      1  C   UNL     1       1.950  -0.273   1.426  0.00  0.00    +0.000 C 
ATOM      2  C   UNL     1       3.198  -0.126   0.596  0.00  0.00    +0.000 C 
ATOM      3  C   UNL     1       3.370  -1.153  -0.537  0.00  0.00    +0.000 C 
ATOM      4  C   UNL     1       4.814  -0.722  -0.809  0.00  0.00    +0.000 C 
ATOM      5  C   UNL     1       5.411  -1.196   0.520  0.00  0.00    +0.000 C 
ATOM      6  C   UNL     1       4.633  -0.152   1.328  0.00  0.00    +0.000 C 
ATOM      7  C   UNL     1       5.328   1.096   0.766  0.00  0.00    +0.000 C 
ATOM      8  C   UNL     1       4.749   0.891  -0.656  0.00  0.00    +0.000 C 
ATOM      9  C   UNL     1       3.270   1.139  -0.278  0.00  0.00    +0.000 C 
ATOM     10  C   UNL     1       4.687  -0.311   2.825  0.00  0.00    +0.000 C 
ENDROOT
BRANCH   8  11
ATOM     11  N   UNL     1       5.347   1.681  -1.724  0.00  0.00    +0.000 N 
ATOM     12  C   UNL     1       4.712   1.423  -3.022  0.00  0.00    +0.000 C 
ATOM     13  H   UNL     1       6.319   1.374  -1.774  0.00  0.00    +0.000 HD
BRANCH  11  14
ATOM     14  C   UNL     1       5.359   3.129  -1.437  0.00  0.00    +0.000 C 
BRANCH  14  15
ATOM     15  C   UNL     1       6.226   3.933  -2.387  0.00  0.00    +0.000 A 
ATOM     16  C   UNL     1       5.690   5.009  -3.107  0.00  0.00    +0.000 A 
ATOM     17  C   UNL     1       6.497   5.757  -3.967  0.00  0.00    +0.000 A 
ATOM     18  C   UNL     1       7.846   5.440  -4.112  0.00  0.00    +0.000 A 
ATOM     19  C   UNL     1       8.392   4.376  -3.398  0.00  0.00    +0.000 A 
ATOM     20  C   UNL     1       7.588   3.627  -2.537  0.00  0.00    +0.000 A 
ENDBRANCH  14  15
ENDBRANCH  11  14
ENDBRANCH   8  11
TORSDOF 3
