MODEL 1
REMARK VINA RESULT:      -4.8      0.000      0.000
REMARK  Name = *****
REMARK  3 active torsions:
REMARK  status: ('A' for Active; 'I' for Inactive)
REMARK    1  A    between atoms: C_5  and  C_7
REMARK    2  A    between atoms: C_8  and  C_9
REMARK    3  A    between atoms: C_12  and  C_15
REMARK                            x       y       z     vdW  Elec       q    Type
REMARK                         _______ _______ _______ _____ _____    ______ ____
ROOT
ATOM      1  C   UNL     1     101.392 126.978  82.740  0.00  0.00    +0.000 A 
ATOM      2  C   UNL     1     100.002 127.136  82.704  0.00  0.00    +0.000 A 
ATOM      3  C   UNL     1      99.407 128.310  83.177  0.00  0.00    +0.000 A 
ATOM      4  C   UNL     1     100.192 129.348  83.699  0.00  0.00    +0.000 A 
ATOM      5  C   UNL     1     101.582 129.178  83.757  0.00  0.00    +0.000 A 
ATOM      6  C   UNL     1     102.175 128.003  83.286  0.00  0.00    +0.000 A 
ENDROOT
BRANCH   4   7
ATOM      7  C   UNL     1      99.553 130.608  84.231  0.00  0.00    +0.000 C 
ATOM      8  F   UNL     1     100.345 131.284  85.110  0.00  0.00    +0.000 F 
ATOM      9  F   UNL     1      99.252 131.495  83.242  0.00  0.00    +0.000 F 
ATOM     10  F   UNL     1      98.383 130.375  84.890  0.00  0.00    +0.000 F 
ENDBRANCH   4   7
BRANCH   1  12
ATOM     11  C   UNL     1     103.267 125.350  82.697  0.00  0.00    +0.000 C 
ATOM     12  C   UNL     1     102.053 125.749  82.282  0.00  0.00    +0.000 C 
BRANCH  11  17
ATOM     13  C   UNL     1     104.952 122.802  80.521  0.00  0.00    +0.000 A 
ATOM     14  C   UNL     1     105.132 121.780  81.444  0.00  0.00    +0.000 A 
ATOM     15  C   UNL     1     104.686 121.986  82.738  0.00  0.00    +0.000 A 
ATOM     16  N   UNL     1     104.087 123.123  83.157  0.00  0.00    +0.000 NA
ATOM     17  C   UNL     1     103.920 124.111  82.246  0.00  0.00    +0.000 A 
ATOM     18  C   UNL     1     104.337 123.986  80.925  0.00  0.00    +0.000 A 
ENDBRANCH  11  17
ENDBRANCH   1  12
TORSDOF 3
ENDMDL
