MODEL 1
REMARK VINA RESULT:      -4.7      0.000      0.000
REMARK  Name = *****
REMARK  2 active torsions:
REMARK  status: ('A' for Active; 'I' for Inactive)
REMARK    1  A    between atoms: C_4  and  C_7
REMARK    2  A    between atoms: C_8  and  C_9
REMARK                            x       y       z     vdW  Elec       q    Type
REMARK                         _______ _______ _______ _____ _____    ______ ____
ROOT
ATOM      1  C   UNL     1     101.860 126.263  82.220  0.00  0.00    +0.000 C 
ATOM      2  C   UNL     1     102.753 125.562  81.827  0.00  0.00    +0.000 C 
ENDROOT
BRANCH   2   3
ATOM      3  C   UNL     1     103.817 124.730  81.358  0.00  0.00    +0.000 A 
ATOM      4  C   UNL     1     104.394 124.971  80.107  0.00  0.00    +0.000 A 
ATOM      5  C   UNL     1     105.432 124.157  79.649  0.00  0.00    +0.000 A 
ATOM      6  C   UNL     1     105.884 123.110  80.446  0.00  0.00    +0.000 A 
ATOM      7  C   UNL     1     105.318 122.861  81.692  0.00  0.00    +0.000 A 
ATOM      8  C   UNL     1     104.280 123.675  82.151  0.00  0.00    +0.000 A 
ATOM      9  F   UNL     1     106.879 122.329  80.007  0.00  0.00    +0.000 F 
ENDBRANCH   2   3
BRANCH   1  13
ATOM     10  C   UNL     1      98.680 128.612  83.915  0.00  0.00    +0.000 C 
ATOM     11  C   UNL     1      99.995 129.322  83.615  0.00  0.00    +0.000 C 
ATOM     12  C   UNL     1     101.149 128.322  83.506  0.00  0.00    +0.000 C 
ATOM     13  C   UNL     1     100.804 127.099  82.691  0.00  0.00    +0.000 C 
ATOM     14  C   UNL     1      99.532 126.787  82.381  0.00  0.00    +0.000 C 
ATOM     15  C   UNL     1      98.345 127.588  82.830  0.00  0.00    +0.000 C 
ENDBRANCH   1  13
TORSDOF 2
ENDMDL
