MODEL 1
REMARK VINA RESULT:      -4.8      0.000      0.000
REMARK  Name = *****
REMARK  3 active torsions:
REMARK  status: ('A' for Active; 'I' for Inactive)
REMARK    1  A    between atoms: C_4  and  C_7
REMARK    2  A    between atoms: C_8  and  C_9
REMARK    3  A    between atoms: C_9  and  C_10
REMARK                            x       y       z     vdW  Elec       q    Type
REMARK                         _______ _______ _______ _____ _____    ______ ____
ROOT
ATOM      1  C   UNL     1      89.659  68.361  86.738  0.00  0.00    +0.000 C 
ATOM      2  C   UNL     1      88.534  68.955  87.173  0.00  0.00    +0.000 C 
ENDROOT
BRANCH   1   6
ATOM      3  C   UNL     1      89.917  64.182  85.873  0.00  0.00    +0.000 A 
ATOM      4  C   UNL     1      90.846  65.057  85.315  0.00  0.00    +0.000 A 
ATOM      5  C   UNL     1      90.768  66.426  85.583  0.00  0.00    +0.000 A 
ATOM      6  C   UNL     1      89.752  66.934  86.405  0.00  0.00    +0.000 A 
ATOM      7  C   UNL     1      88.835  66.042  86.974  0.00  0.00    +0.000 A 
ATOM      8  C   UNL     1      88.913  64.673  86.704  0.00  0.00    +0.000 A 
ENDBRANCH   1   6
BRANCH   2   9
ATOM      9  C   UNL     1      88.431  70.417  87.513  0.00  0.00    +0.000 C 
ATOM     10 CL   UNL     1      88.641  70.619  89.280  0.00  0.00    +0.000 Cl
BRANCH   9  11
ATOM     11  C   UNL     1      87.127  71.034  87.044  0.00  0.00    +0.000 A 
ATOM     12  C   UNL     1      86.842  71.233  85.682  0.00  0.00    +0.000 A 
ATOM     13  C   UNL     1      85.642  71.825  85.280  0.00  0.00    +0.000 A 
ATOM     14  C   UNL     1      84.714  72.235  86.233  0.00  0.00    +0.000 A 
ATOM     15  C   UNL     1      84.983  72.055  87.588  0.00  0.00    +0.000 A 
ATOM     16  C   UNL     1      86.180  71.462  87.991  0.00  0.00    +0.000 A 
ENDBRANCH   9  11
ENDBRANCH   2   9
TORSDOF 3
ENDMDL
