MODEL 1
REMARK VINA RESULT:      -4.4      0.000      0.000
REMARK  Name = *****
REMARK  4 active torsions:
REMARK  status: ('A' for Active; 'I' for Inactive)
REMARK    1  A    between atoms: C_4  and  C_7
REMARK    2  A    between atoms: C_7  and  C_8
REMARK    3  A    between atoms: C_8  and  C_9
REMARK    4  A    between atoms: C_8  and  N_15
REMARK                            x       y       z     vdW  Elec       q    Type
REMARK                         _______ _______ _______ _____ _____    ______ ____
ROOT
ATOM      1  C   UNL     1      88.725  70.209  86.585  0.00  0.00    +0.000 C 
ENDROOT
BRANCH   1   2
ATOM      2  C   UNL     1      88.828  68.694  86.687  0.00  0.00    +0.000 A 
ATOM      3  C   UNL     1      87.820  67.922  87.290  0.00  0.00    +0.000 A 
ATOM      4  C   UNL     1      87.951  66.535  87.394  0.00  0.00    +0.000 A 
ATOM      5  C   UNL     1      89.089  65.902  86.901  0.00  0.00    +0.000 A 
ATOM      6  C   UNL     1      90.098  66.653  86.304  0.00  0.00    +0.000 A 
ATOM      7  C   UNL     1      89.970  68.039  86.197  0.00  0.00    +0.000 A 
ENDBRANCH   1   2
BRANCH   1   8
ATOM      8  N   UNL     1      90.006  70.782  86.025  0.00  0.00    +0.000 NA
ATOM      9  O   UNL     1      89.827  71.375  84.955  0.00  0.00    +0.000 OA
ENDBRANCH   1   8
BRANCH   1  10
ATOM     10  C   UNL     1      87.548  70.677  85.704  0.00  0.00    +0.000 C 
BRANCH  10  14
ATOM     11  C   UNL     1      84.332  72.436  87.982  0.00  0.00    +0.000 A 
ATOM     12  C   UNL     1      85.403  71.834  88.638  0.00  0.00    +0.000 A 
ATOM     13  C   UNL     1      86.447  71.272  87.902  0.00  0.00    +0.000 A 
ATOM     14  C   UNL     1      86.428  71.310  86.501  0.00  0.00    +0.000 A 
ATOM     15  C   UNL     1      85.345  71.915  85.851  0.00  0.00    +0.000 A 
ATOM     16  C   UNL     1      84.302  72.477  86.589  0.00  0.00    +0.000 A 
ENDBRANCH  10  14
ENDBRANCH   1  10
TORSDOF 4
ENDMDL
