MODEL 1
REMARK VINA RESULT:      -4.3      0.000      0.000
REMARK  Name = *****
REMARK  3 active torsions:
REMARK  status: ('A' for Active; 'I' for Inactive)
REMARK    1  A    between atoms: C_4  and  C_7
REMARK    2  A    between atoms: C_7  and  C_8
REMARK    3  A    between atoms: C_8  and  C_9
REMARK                            x       y       z     vdW  Elec       q    Type
REMARK                         _______ _______ _______ _____ _____    ______ ____
ROOT
ATOM      1  C   UNL     1     102.615 126.526  82.961  0.00  0.00    +0.000 C 
ATOM      2  F   UNL     1     103.300 126.687  84.141  0.00  0.00    +0.000 F 
ATOM      3  F   UNL     1     102.402 125.170  82.882  0.00  0.00    +0.000 F 
ENDROOT
BRANCH   1   7
ATOM      4  C   UNL     1      98.832 128.623  83.058  0.00  0.00    +0.000 A 
ATOM      5  C   UNL     1      99.977 129.227  83.572  0.00  0.00    +0.000 A 
ATOM      6  C   UNL     1     101.199 128.555  83.533  0.00  0.00    +0.000 A 
ATOM      7  C   UNL     1     101.286 127.265  82.984  0.00  0.00    +0.000 A 
ATOM      8  C   UNL     1     100.126 126.672  82.462  0.00  0.00    +0.000 A 
ATOM      9  C   UNL     1      98.905 127.347  82.501  0.00  0.00    +0.000 A 
ENDBRANCH   1   7
BRANCH   1  10
ATOM     10  C   UNL     1     103.541 126.945  81.783  0.00  0.00    +0.000 C 
ATOM     11  F   UNL     1     102.759 127.392  80.747  0.00  0.00    +0.000 F 
ATOM     12  F   UNL     1     104.291 128.034  82.138  0.00  0.00    +0.000 F 
BRANCH  10  13
ATOM     13  C   UNL     1     104.412 125.821  81.274  0.00  0.00    +0.000 A 
ATOM     14  C   UNL     1     104.187 124.997  80.185  0.00  0.00    +0.000 A 
ATOM     15  C   UNL     1     105.221 124.034  80.005  0.00  0.00    +0.000 A 
ATOM     16  C   UNL     1     106.209 124.157  80.956  0.00  0.00    +0.000 A 
ATOM     17  S   UNL     1     105.890 125.428  82.052  0.00  0.00    +0.000 S 
ENDBRANCH  10  13
ENDBRANCH   1  10
TORSDOF 3
ENDMDL
