MODEL 1
REMARK VINA RESULT:      -4.8      0.000      0.000
REMARK  Name = *****
REMARK  3 active torsions:
REMARK  status: ('A' for Active; 'I' for Inactive)
REMARK    1  A    between atoms: C_4  and  C_7
REMARK    2  A    between atoms: C_8  and  C_9
REMARK    3  A    between atoms: C_14  and  C_15
REMARK                            x       y       z     vdW  Elec       q    Type
REMARK                         _______ _______ _______ _____ _____    ______ ____
ROOT
ATOM      1  C   UNL     1     102.716 126.118  82.386  0.00  0.00    +0.000 C 
ATOM      2  C   UNL     1     102.055 127.018  82.828  0.00  0.00    +0.000 C 
ENDROOT
BRANCH   1   6
ATOM      3  C   UNL     1     104.823 122.755  80.728  0.00  0.00    +0.000 C 
ATOM      4  C   UNL     1     104.997 124.103  80.037  0.00  0.00    +0.000 C 
ATOM      5  C   UNL     1     103.852 125.055  80.391  0.00  0.00    +0.000 C 
ATOM      6  C   UNL     1     103.506 125.053  81.861  0.00  0.00    +0.000 C 
ATOM      7  C   UNL     1     103.939 124.087  82.691  0.00  0.00    +0.000 C 
ATOM      8  C   UNL     1     104.766 122.917  82.247  0.00  0.00    +0.000 C 
ENDBRANCH   1   6
BRANCH   2   9
ATOM      9  C   UNL     1     101.268 128.095  83.355  0.00  0.00    +0.000 A 
ATOM     10  C   UNL     1     101.938 129.177  83.941  0.00  0.00    +0.000 A 
ATOM     11  C   UNL     1     101.221 130.252  84.471  0.00  0.00    +0.000 A 
ATOM     12  C   UNL     1      99.829 130.255  84.422  0.00  0.00    +0.000 A 
ATOM     13  C   UNL     1      99.152 129.182  83.841  0.00  0.00    +0.000 A 
ATOM     14  C   UNL     1      99.867 128.100  83.307  0.00  0.00    +0.000 A 
BRANCH  14  15
ATOM     15  C   UNL     1      99.106 126.984  82.700  0.00  0.00    +0.000 C 
ATOM     16  O   UNL     1      98.107 127.178  82.015  0.00  0.00    +0.000 OA
ENDBRANCH  14  15
ENDBRANCH   2   9
TORSDOF 3
ENDMDL
