MODEL 1
REMARK VINA RESULT:      -4.7      0.000      0.000
REMARK  Name = *****
REMARK  3 active torsions:
REMARK  status: ('A' for Active; 'I' for Inactive)
REMARK    1  A    between atoms: N_2  and  C_3
REMARK    2  A    between atoms: C_7  and  C_9
REMARK    3  A    between atoms: C_10  and  C_11
REMARK                            x       y       z     vdW  Elec       q    Type
REMARK                         _______ _______ _______ _____ _____    ______ ____
ROOT
ATOM      1  C   UNL     1     104.985 123.036  80.801  0.00  0.00    +0.000 A 
ATOM      2  C   UNL     1     105.963 123.369  79.868  0.00  0.00    +0.000 A 
ATOM      3  C   UNL     1     105.972 124.653  79.330  0.00  0.00    +0.000 A 
ATOM      4  C   UNL     1     105.003 125.583  79.724  0.00  0.00    +0.000 A 
ATOM      5  C   UNL     1     104.007 125.239  80.652  0.00  0.00    +0.000 A 
ATOM      6  C   UNL     1     104.014 123.952  81.203  0.00  0.00    +0.000 A 
ENDROOT
BRANCH   1   8
ATOM      7  C   UNL     1     104.971 120.682  81.808  0.00  0.00    +0.000 C 
ATOM      8  N   UNL     1     104.978 121.760  81.347  0.00  0.00    +0.000 NA
ENDBRANCH   1   8
BRANCH   5   9
ATOM      9  C   UNL     1     102.997 126.203  81.110  0.00  0.00    +0.000 C 
ATOM     10  C   UNL     1     102.125 125.956  82.101  0.00  0.00    +0.000 C 
BRANCH  10  11
ATOM     11  C   UNL     1     101.127 126.929  82.571  0.00  0.00    +0.000 A 
ATOM     12  C   UNL     1     101.487 128.108  83.236  0.00  0.00    +0.000 A 
ATOM     13  C   UNL     1     100.512 129.023  83.640  0.00  0.00    +0.000 A 
ATOM     14  C   UNL     1      99.167 128.774  83.371  0.00  0.00    +0.000 A 
ATOM     15  C   UNL     1      98.798 127.612  82.696  0.00  0.00    +0.000 A 
ATOM     16  C   UNL     1      99.773 126.698  82.293  0.00  0.00    +0.000 A 
ENDBRANCH  10  11
ENDBRANCH   5   9
TORSDOF 3
ENDMDL
