MODEL 1
REMARK VINA RESULT:      -3.8      0.000      0.000
REMARK  Name = *****
REMARK  3 active torsions:
REMARK  status: ('A' for Active; 'I' for Inactive)
REMARK    1  A    between atoms: C_1  and  C_2
REMARK    2  A    between atoms: C_2  and  C_8
REMARK    3  A    between atoms: C_8  and  C_9
REMARK                            x       y       z     vdW  Elec       q    Type
REMARK                         _______ _______ _______ _____ _____    ______ ____
ROOT
ATOM      1  C   UNL     1     103.179 127.437  80.888  0.00  0.00    +0.000 C 
ATOM      2  C   UNL     1     103.549 126.212  81.746  0.00  0.00    +0.000 C 
ATOM      3  S   UNL     1     104.943 126.626  82.876  0.00  0.00    +0.000 S 
ATOM      4  C   UNL     1     106.288 126.937  81.703  0.00  0.00    +0.000 C 
ATOM      5  C   UNL     1     106.598 125.741  80.818  0.00  0.00    +0.000 C 
ATOM      6  C   UNL     1     105.488 125.403  79.839  0.00  0.00    +0.000 C 
ATOM      7  S   UNL     1     103.979 124.801  80.644  0.00  0.00    +0.000 S 
ENDROOT
BRANCH   2   8
ATOM      8  C   UNL     1     102.282 125.848  82.599  0.00  0.00    +0.000 C 
BRANCH   8   9
ATOM      9  C   UNL     1     101.193 126.889  82.847  0.00  0.00    +0.000 C 
ATOM     10  C   UNL     1      99.938 126.704  82.390  0.00  0.00    +0.000 C 
ATOM     11  C   UNL     1      98.809 127.669  82.608  0.00  0.00    +0.000 C 
ATOM     12  C   UNL     1      99.258 129.013  83.180  0.00  0.00    +0.000 C 
ATOM     13  C   UNL     1     100.319 128.820  84.255  0.00  0.00    +0.000 C 
ATOM     14  C   UNL     1     101.544 128.095  83.688  0.00  0.00    +0.000 C 
ENDBRANCH   8   9
ENDBRANCH   2   8
TORSDOF 2
ENDMDL
