MODEL 1
REMARK VINA RESULT:      -4.3      0.000      0.000
REMARK  Name = *****
REMARK  3 active torsions:
REMARK  status: ('A' for Active; 'I' for Inactive)
REMARK    1  A    between atoms: C_4  and  N_7
REMARK    2  A    between atoms: N_7  and  C_8
REMARK    3  A    between atoms: C_8  and  C_9
REMARK                            x       y       z     vdW  Elec       q    Type
REMARK                         _______ _______ _______ _____ _____    ______ ____
ROOT
ATOM      1  C   UNL     1      88.497  69.915  87.036  0.00  0.00    +0.000 C 
ENDROOT
BRANCH   1   2
ATOM      2  C   UNL     1      88.795  68.478  86.890  0.00  0.00    +0.000 A 
ATOM      3  C   UNL     1      87.866  67.522  87.330  0.00  0.00    +0.000 A 
ATOM      4  C   UNL     1      88.121  66.158  87.154  0.00  0.00    +0.000 A 
ATOM      5  C   UNL     1      89.297  65.750  86.530  0.00  0.00    +0.000 A 
ATOM      6  C   UNL     1      90.219  66.689  86.077  0.00  0.00    +0.000 A 
ATOM      7  C   UNL     1      89.967  68.053  86.251  0.00  0.00    +0.000 A 
ATOM      8 CL   UNL     1      89.610  64.073  86.311  0.00  0.00    +0.000 Cl
ATOM      9 CL   UNL     1      86.393  67.957  88.125  0.00  0.00    +0.000 Cl
ENDBRANCH   1   2
BRANCH   1  10
ATOM     10  N   UNL     1      87.813  70.622  86.165  0.00  0.00    +0.000 N 
ATOM     11  O   UNL     1      88.203  70.805  84.964  0.00  0.00    +0.000 OA
BRANCH  10  15
ATOM     12  C   UNL     1      84.231  72.488  87.455  0.00  0.00    +0.000 A 
ATOM     13  C   UNL     1      84.488  72.325  86.094  0.00  0.00    +0.000 A 
ATOM     14  C   UNL     1      85.668  71.711  85.674  0.00  0.00    +0.000 A 
ATOM     15  C   UNL     1      86.594  71.270  86.626  0.00  0.00    +0.000 A 
ATOM     16  C   UNL     1      86.332  71.416  87.994  0.00  0.00    +0.000 A 
ATOM     17  C   UNL     1      85.148  72.032  88.404  0.00  0.00    +0.000 A 
ENDBRANCH  10  15
ENDBRANCH   1  10
TORSDOF 3
ENDMDL
