MODEL 1
REMARK VINA RESULT:      -4.4      0.000      0.000
REMARK  Name = *****
REMARK  5 active torsions:
REMARK  status: ('A' for Active; 'I' for Inactive)
REMARK    1  A    between atoms: C_1  and  C_2
REMARK    2  A    between atoms: C_2  and  C_3
REMARK    3  A    between atoms: C_2  and  O_8
REMARK    4  A    between atoms: O_8  and  C_9
REMARK    5  A    between atoms: C_9  and  C_11
REMARK                            x       y       z     vdW  Elec       q    Type
REMARK                         _______ _______ _______ _____ _____    ______ ____
ROOT
ATOM      1  O   UNL     1     100.328 126.416  82.595  0.00  0.00    +0.000 OA
ENDROOT
BRANCH   1   3
ATOM      2  C   UNL     1     102.318 125.757  83.796  0.00  0.00    +0.000 C 
ATOM      3  C   UNL     1     101.569 126.912  83.134  0.00  0.00    +0.000 C 
BRANCH   3   4
ATOM      4  C   UNL     1     102.395 127.541  82.000  0.00  0.00    +0.000 C 
ATOM      5  C   UNL     1     103.089 126.508  81.110  0.00  0.00    +0.000 C 
ATOM      6  C   UNL     1     104.101 127.331  80.320  0.00  0.00    +0.000 C 
ATOM      7  C   UNL     1     104.466 128.514  81.215  0.00  0.00    +0.000 C 
ATOM      8  C   UNL     1     103.575 128.407  82.451  0.00  0.00    +0.000 C 
ENDBRANCH   3   4
ENDBRANCH   1   3
BRANCH   1   9
ATOM      9  C   UNL     1      99.245 127.238  82.704  0.00  0.00    +0.000 C 
ATOM     10  O   UNL     1      98.227 127.152  82.033  0.00  0.00    +0.000 OA
BRANCH   9  11
ATOM     11  C   UNL     1      99.494 128.267  83.794  0.00  0.00    +0.000 C 
ATOM     12  C   UNL     1      98.567 128.030  84.993  0.00  0.00    +0.000 C 
ATOM     13  C   UNL     1      98.756 129.094  86.072  0.00  0.00    +0.000 C 
ATOM     14  C   UNL     1      98.576 130.500  85.508  0.00  0.00    +0.000 C 
ATOM     15  C   UNL     1      99.493 130.747  84.314  0.00  0.00    +0.000 C 
ATOM     16  C   UNL     1      99.312 129.683  83.234  0.00  0.00    +0.000 C 
ENDBRANCH   9  11
ENDBRANCH   1   9
TORSDOF 4
ENDMDL
