MODEL 1
REMARK VINA RESULT:      -4.9      0.000      0.000
REMARK  Name = *****
REMARK  2 active torsions:
REMARK  status: ('A' for Active; 'I' for Inactive)
REMARK    1  A    between atoms: N_9  and  C_10
REMARK    2  A    between atoms: C_10  and  C_11
REMARK                            x       y       z     vdW  Elec       q    Type
REMARK                         _______ _______ _______ _____ _____    ______ ____
ROOT
ATOM      1  C   UNL     1      84.280  72.453  86.726  0.00  0.00    +0.000 A 
ATOM      2  C   UNL     1      84.973  72.062  87.875  0.00  0.00    +0.000 A 
ATOM      3  C   UNL     1      86.234  71.458  87.795  0.00  0.00    +0.000 A 
ATOM      4  C   UNL     1      86.760  71.270  86.513  0.00  0.00    +0.000 A 
ATOM      5  C   UNL     1      86.090  71.650  85.356  0.00  0.00    +0.000 A 
ATOM      6  C   UNL     1      84.828  72.251  85.453  0.00  0.00    +0.000 A 
ATOM      7  N   UNL     1      86.850  71.343  84.259  0.00  0.00    +0.000 NA
ATOM      8  N   UNL     1      87.977  70.785  84.681  0.00  0.00    +0.000 NA
ATOM      9  N   UNL     1      87.922  70.730  86.027  0.00  0.00    +0.000 N 
ENDROOT
BRANCH   9  10
ATOM     10  C   UNL     1      89.041  70.183  86.773  0.00  0.00    +0.000 C 
BRANCH  10  11
ATOM     11  C   UNL     1      89.020  68.672  86.791  0.00  0.00    +0.000 A 
ATOM     12  C   UNL     1      90.054  67.936  86.192  0.00  0.00    +0.000 A 
ATOM     13  C   UNL     1      90.037  66.535  86.207  0.00  0.00    +0.000 A 
ATOM     14  C   UNL     1      88.979  65.857  86.819  0.00  0.00    +0.000 A 
ATOM     15  C   UNL     1      87.944  66.582  87.414  0.00  0.00    +0.000 A 
ATOM     16  C   UNL     1      87.963  67.979  87.398  0.00  0.00    +0.000 A 
ATOM     17 CL   UNL     1      88.890  64.132  86.874  0.00  0.00    +0.000 Cl
ATOM     18 CL   UNL     1      91.353  65.711  85.448  0.00  0.00    +0.000 Cl
ENDBRANCH  10  11
ENDBRANCH   9  10
TORSDOF 2
ENDMDL
