MODEL 1
REMARK VINA RESULT:      -4.9      0.000      0.000
REMARK  Name = *****
REMARK  7 active torsions:
REMARK  status: ('A' for Active; 'I' for Inactive)
REMARK    1  A    between atoms: C_1  and  C_2
REMARK    2  A    between atoms: C_5  and  C_8
REMARK    3  A    between atoms: C_9  and  C_10
REMARK    4  A    between atoms: C_12  and  O_18
REMARK    5  A    between atoms: C_14  and  O_16
REMARK    6  A    between atoms: O_16  and  C_17
REMARK    7  A    between atoms: O_18  and  C_19
REMARK                            x       y       z     vdW  Elec       q    Type
REMARK                         _______ _______ _______ _____ _____    ______ ____
ROOT
ATOM      1  C   UNL     1     101.278 127.018  82.782  0.00  0.00    +0.000 A 
ATOM      2  C   UNL     1      99.947 126.681  82.498  0.00  0.00    +0.000 A 
ATOM      3  C   UNL     1      98.913 127.574  82.792  0.00  0.00    +0.000 A 
ATOM      4  C   UNL     1      99.209 128.805  83.388  0.00  0.00    +0.000 A 
ATOM      5  C   UNL     1     100.526 129.147  83.693  0.00  0.00    +0.000 A 
ATOM      6  C   UNL     1     101.552 128.248  83.391  0.00  0.00    +0.000 A 
ENDROOT
BRANCH   1   8
ATOM      7  C   UNL     1     102.795 125.742  81.285  0.00  0.00    +0.000 C 
ATOM      8  C   UNL     1     102.392 126.095  82.517  0.00  0.00    +0.000 C 
BRANCH   7  13
ATOM      9  C   UNL     1     107.284 122.189  80.412  0.00  0.00    +0.000 C 
ATOM     10  C   UNL     1     106.103 123.091  80.612  0.00  0.00    +0.000 A 
ATOM     11  C   UNL     1     105.784 124.065  79.660  0.00  0.00    +0.000 A 
ATOM     12  C   UNL     1     104.702 124.928  79.862  0.00  0.00    +0.000 A 
ATOM     13  C   UNL     1     103.919 124.833  81.019  0.00  0.00    +0.000 A 
ATOM     14  C   UNL     1     104.260 123.878  81.984  0.00  0.00    +0.000 A 
ATOM     15  C   UNL     1     105.342 123.015  81.783  0.00  0.00    +0.000 A 
ENDBRANCH   7  13
ENDBRANCH   1   8
BRANCH   5  16
ATOM     16  O   UNL     1     100.940 130.311  84.280  0.00  0.00    +0.000 OA
ATOM     17  C   UNL     1     102.315 130.397  84.632  0.00  0.00    +0.000 C 
ENDBRANCH   5  16
BRANCH   3  18
ATOM     18  O   UNL     1      97.580 127.363  82.558  0.00  0.00    +0.000 OA
ATOM     19  C   UNL     1      96.809 126.847  83.636  0.00  0.00    +0.000 C 
ENDBRANCH   3  18
TORSDOF 4
ENDMDL
