REMARK  Name = *****
REMARK  4 active torsions:
REMARK  status: ('A' for Active; 'I' for Inactive)
REMARK    1  A    between atoms: C_4  and  S_6
REMARK    2  A    between atoms: S_6  and  C_7
REMARK    3  A    between atoms: C_7  and  S_9
REMARK    4  A    between atoms: S_9  and  C_10
REMARK                            x       y       z     vdW  Elec       q    Type
REMARK                         _______ _______ _______ _____ _____    ______ ____
ROOT
ATOM      1  C   UNL     1      -2.813   1.499   1.963  0.00  0.00    +0.000 C 
ATOM      2  S   UNL     1      -3.799   1.630   0.616  0.00  0.00    +0.000 S 
ENDROOT
BRANCH   1   3
ATOM      3  S   UNL     1      -1.057   1.436   1.886  0.00  0.00    +0.000 S 
BRANCH   3   7
ATOM      4  C   UNL     1       1.250  -0.960   2.059  0.00  0.00    +0.000 C 
ATOM      5  C   UNL     1       0.065  -1.586   2.793  0.00  0.00    +0.000 C 
ATOM      6  C   UNL     1      -1.150  -1.369   1.895  0.00  0.00    +0.000 C 
ATOM      7  C   UNL     1      -0.803  -0.160   1.028  0.00  0.00    +0.000 C 
ATOM      8  C   UNL     1       0.686  -0.384   0.761  0.00  0.00    +0.000 C 
ENDBRANCH   3   7
ENDBRANCH   1   3
BRANCH   1   9
ATOM      9  S   UNL     1      -3.440   1.430   3.606  0.00  0.00    +0.000 S 
BRANCH   9  10
ATOM     10  C   UNL     1      -3.923   3.165   3.839  0.00  0.00    +0.000 C 
ATOM     11  C   UNL     1      -2.742   4.128   3.920  0.00  0.00    +0.000 C 
ATOM     12  C   UNL     1      -3.301   5.355   4.640  0.00  0.00    +0.000 C 
ATOM     13  C   UNL     1      -4.555   4.886   5.377  0.00  0.00    +0.000 C 
ATOM     14  C   UNL     1      -4.605   3.373   5.188  0.00  0.00    +0.000 C 
ENDBRANCH   9  10
ENDBRANCH   1   9
TORSDOF 4
