MODEL 1
REMARK VINA RESULT:      -4.8      0.000      0.000
REMARK  Name = *****
REMARK  5 active torsions:
REMARK  status: ('A' for Active; 'I' for Inactive)
REMARK    1  A    between atoms: C_1  and  S_2
REMARK    2  A    between atoms: S_2  and  C_3
REMARK    3  A    between atoms: S_2  and  C_14
REMARK    4  A    between atoms: C_3  and  C_4
REMARK    5  A    between atoms: C_7  and  C_10
REMARK                            x       y       z     vdW  Elec       q    Type
REMARK                         _______ _______ _______ _____ _____    ______ ____
ROOT
ATOM      1  C   UNL     1      88.147  67.739  87.501  0.00  0.00    +0.000 A 
ATOM      2  C   UNL     1      89.179  68.329  86.758  0.00  0.00    +0.000 A 
ATOM      3  C   UNL     1      90.091  67.539  86.054  0.00  0.00    +0.000 A 
ATOM      4  C   UNL     1      89.991  66.141  86.081  0.00  0.00    +0.000 A 
ATOM      5  C   UNL     1      88.950  65.551  86.813  0.00  0.00    +0.000 A 
ATOM      6  C   UNL     1      88.038  66.343  87.516  0.00  0.00    +0.000 A 
ENDROOT
BRANCH   4   7
ATOM      7  C   UNL     1      90.955  65.282  85.303  0.00  0.00    +0.000 C 
ATOM      8  F   UNL     1      90.725  65.294  83.959  0.00  0.00    +0.000 F 
ATOM      9  F   UNL     1      92.254  65.667  85.457  0.00  0.00    +0.000 F 
ATOM     10  F   UNL     1      90.908  63.974  85.679  0.00  0.00    +0.000 F 
ENDBRANCH   4   7
BRANCH   1  11
ATOM     11  C   UNL     1      87.153  68.596  88.243  0.00  0.00    +0.000 C 
BRANCH  11  13
ATOM     12  C   UNL     1      87.105  70.569  90.091  0.00  0.00    +0.000 C 
ATOM     13  S   UNL     1      87.740  70.307  88.422  0.00  0.00    +0.000 S 
BRANCH  13  14
ATOM     14  C   UNL     1      86.494  71.164  87.448  0.00  0.00    +0.000 A 
ATOM     15  C   UNL     1      86.688  71.201  86.063  0.00  0.00    +0.000 A 
ATOM     16  C   UNL     1      85.765  71.834  85.229  0.00  0.00    +0.000 A 
ATOM     17  C   UNL     1      84.635  72.438  85.775  0.00  0.00    +0.000 A 
ATOM     18  C   UNL     1      84.430  72.407  87.153  0.00  0.00    +0.000 A 
ATOM     19  C   UNL     1      85.355  71.772  87.987  0.00  0.00    +0.000 A 
ENDBRANCH  13  14
ENDBRANCH  11  13
ENDBRANCH   1  11
TORSDOF 4
ENDMDL
