REMARK  Name = *****
REMARK  6 active torsions:
REMARK  status: ('A' for Active; 'I' for Inactive)
REMARK    1  A    between atoms: C_1  and  O_2
REMARK    2  A    between atoms: O_2  and  C_3
REMARK    3  A    between atoms: C_3  and  C_5
REMARK    4  A    between atoms: C_10  and  S_11
REMARK    5  A    between atoms: S_11  and  C_12
REMARK    6  A    between atoms: C_12  and  C_13
REMARK                            x       y       z     vdW  Elec       q    Type
REMARK                         _______ _______ _______ _____ _____    ______ ____
ROOT
ATOM      1  C   UNL     1       4.659  -0.787  -1.165  0.00  0.00    +0.000 A 
ATOM      2  C   UNL     1       5.179  -1.268   0.048  0.00  0.00    +0.000 A 
ATOM      3  C   UNL     1       6.538  -1.140   0.331  0.00  0.00    +0.000 A 
ATOM      4  C   UNL     1       7.381  -0.521  -0.588  0.00  0.00    +0.000 A 
ATOM      5  C   UNL     1       6.865  -0.023  -1.787  0.00  0.00    +0.000 A 
ATOM      6  C   UNL     1       5.500  -0.151  -2.094  0.00  0.00    +0.000 A 
ENDROOT
BRANCH   1   7
ATOM      7  C   UNL     1       3.208  -0.973  -1.370  0.00  0.00    +0.000 C 
ATOM      8  O   UNL     1       2.369  -0.682  -0.533  0.00  0.00    +0.000 OA
BRANCH   7  10
ATOM      9  C   UNL     1       1.615  -1.884  -2.804  0.00  0.00    +0.000 C 
ATOM     10  O   UNL     1       2.994  -1.627  -2.538  0.00  0.00    +0.000 OA
ENDBRANCH   7  10
ENDBRANCH   1   7
BRANCH   6  11
ATOM     11  S   UNL     1       4.926   0.588  -3.620  0.00  0.00    +0.000 S 
BRANCH  11  12
ATOM     12  C   UNL     1       5.461  -0.716  -4.775  0.00  0.00    +0.000 C 
BRANCH  12  13
ATOM     13  C   UNL     1       4.930  -0.472  -6.164  0.00  0.00    +0.000 A 
ATOM     14  C   UNL     1       3.722  -1.054  -6.574  0.00  0.00    +0.000 A 
ATOM     15  C   UNL     1       3.234  -0.814  -7.855  0.00  0.00    +0.000 A 
ATOM     16  C   UNL     1       3.922   0.003  -8.743  0.00  0.00    +0.000 A 
ATOM     17  C   UNL     1       5.118   0.596  -8.344  0.00  0.00    +0.000 A 
ATOM     18  C   UNL     1       5.619   0.362  -7.060  0.00  0.00    +0.000 A 
ATOM     19  F   UNL     1       2.082  -1.381  -8.237  0.00  0.00    +0.000 F 
ENDBRANCH  12  13
ENDBRANCH  11  12
ENDBRANCH   6  11
TORSDOF 5
