MODEL 1
REMARK VINA RESULT:      -4.5      0.000      0.000
REMARK  Name = *****
REMARK  4 active torsions:
REMARK  status: ('A' for Active; 'I' for Inactive)
REMARK    1  A    between atoms: C_1  and  C_2
REMARK    2  A    between atoms: C_4  and  C_8
REMARK    3  A    between atoms: C_8  and  O_10
REMARK    4  A    between atoms: O_10  and  C_11
REMARK                            x       y       z     vdW  Elec       q    Type
REMARK                         _______ _______ _______ _____ _____    ______ ____
ROOT
ATOM      1  C   UNL     1     101.786 126.218  84.368  0.00  0.00    +0.000 C 
ATOM      2  O   UNL     1     101.534 125.261  85.085  0.00  0.00    +0.000 OA
ENDROOT
BRANCH   1   6
ATOM      3  C   UNL     1      99.688 130.809  84.025  0.00  0.00    +0.000 C 
ATOM      4  C   UNL     1      99.698 129.347  83.691  0.00  0.00    +0.000 A 
ATOM      5  C   UNL     1     100.709 128.512  84.192  0.00  0.00    +0.000 A 
ATOM      6  C   UNL     1     100.741 127.149  83.857  0.00  0.00    +0.000 A 
ATOM      7  C   UNL     1      99.760 126.629  83.002  0.00  0.00    +0.000 A 
ATOM      8  C   UNL     1      98.761 127.457  82.490  0.00  0.00    +0.000 A 
ATOM      9  C   UNL     1      98.734 128.811  82.829  0.00  0.00    +0.000 A 
ENDBRANCH   1   6
BRANCH   1  10
ATOM     10  O   UNL     1     103.032 126.630  83.937  0.00  0.00    +0.000 OA
BRANCH  10  11
ATOM     11  C   UNL     1     103.326 126.179  82.651  0.00  0.00    +0.000 A 
ATOM     12  C   UNL     1     103.667 124.840  82.467  0.00  0.00    +0.000 A 
ATOM     13  C   UNL     1     104.002 124.393  81.187  0.00  0.00    +0.000 A 
ATOM     14  C   UNL     1     104.007 125.286  80.109  0.00  0.00    +0.000 A 
ATOM     15  C   UNL     1     103.684 126.630  80.308  0.00  0.00    +0.000 A 
ATOM     16  C   UNL     1     103.350 127.073  81.582  0.00  0.00    +0.000 A 
ATOM     17  F   UNL     1     103.064 128.368  81.777  0.00  0.00    +0.000 F 
ENDBRANCH  10  11
ENDBRANCH   1  10
TORSDOF 3
ENDMDL
