MODEL 1
REMARK VINA RESULT:      -4.5      0.000      0.000
REMARK  Name = *****
REMARK  5 active torsions:
REMARK  status: ('A' for Active; 'I' for Inactive)
REMARK    1  A    between atoms: C_3  and  C_17
REMARK    2  A    between atoms: C_6  and  C_7
REMARK    3  A    between atoms: C_7  and  C_8
REMARK    4  A    between atoms: C_8  and  C_9
REMARK    5  A    between atoms: C_12  and  C_15
REMARK                            x       y       z     vdW  Elec       q    Type
REMARK                         _______ _______ _______ _____ _____    ______ ____
ROOT
ATOM      1  C   UNL     1      87.187  70.818  88.113  0.00  0.00    +0.000 C 
ENDROOT
BRANCH   1   7
ATOM      2  C   UNL     1      86.425  71.465  85.792  0.00  0.00    +0.000 A 
ATOM      3  C   UNL     1      85.493  72.037  84.921  0.00  0.00    +0.000 A 
ATOM      4  C   UNL     1      84.318  72.602  85.424  0.00  0.00    +0.000 A 
ATOM      5  C   UNL     1      84.077  72.591  86.801  0.00  0.00    +0.000 A 
ATOM      6  C   UNL     1      85.009  72.020  87.671  0.00  0.00    +0.000 A 
ATOM      7  C   UNL     1      86.192  71.457  87.174  0.00  0.00    +0.000 A 
BRANCH   4   8
ATOM      8  C   UNL     1      83.362  73.187  84.530  0.00  0.00    +0.000 C 
ATOM      9  N   UNL     1      82.588  73.659  83.805  0.00  0.00    +0.000 NA
ENDBRANCH   4   8
ENDBRANCH   1   7
BRANCH   1  10
ATOM     10  C   UNL     1      86.891  69.330  88.321  0.00  0.00    +0.000 C 
BRANCH  10  11
ATOM     11  C   UNL     1      87.913  68.457  87.635  0.00  0.00    +0.000 A 
ATOM     12  C   UNL     1      89.012  69.030  86.981  0.00  0.00    +0.000 A 
ATOM     13  C   UNL     1      89.951  68.223  86.332  0.00  0.00    +0.000 A 
ATOM     14  C   UNL     1      89.796  66.833  86.326  0.00  0.00    +0.000 A 
ATOM     15  C   UNL     1      88.698  66.256  86.970  0.00  0.00    +0.000 A 
ATOM     16  C   UNL     1      87.760  67.064  87.619  0.00  0.00    +0.000 A 
BRANCH  14  17
ATOM     17  C   UNL     1      90.758  66.005  85.661  0.00  0.00    +0.000 C 
ATOM     18  N   UNL     1      91.536  65.333  85.123  0.00  0.00    +0.000 NA
ENDBRANCH  14  17
ENDBRANCH  10  11
ENDBRANCH   1  10
TORSDOF 5
ENDMDL
