MODEL 1
REMARK VINA RESULT:      -3.6      0.000      0.000
REMARK  Name = *****
REMARK  3 active torsions:
REMARK  status: ('A' for Active; 'I' for Inactive)
REMARK    1  A    between atoms: C_5  and  C_6
REMARK    2  A    between atoms: C_6  and  S_8
REMARK    3  A    between atoms: S_8  and  C_9
REMARK                            x       y       z     vdW  Elec       q    Type
REMARK                         _______ _______ _______ _____ _____    ______ ____
ROOT
ATOM      1  C   UNL     1      89.478  69.356  82.911  0.00  0.00    +0.000 C 
ATOM      2  O   UNL     1      90.565  69.786  82.557  0.00  0.00    +0.000 OA
ENDROOT
BRANCH   1   7
ATOM      3  C   UNL     1      88.166  70.568  87.825  0.00  0.00    +0.000 C 
ATOM      4  C   UNL     1      89.334  69.832  87.168  0.00  0.00    +0.000 C 
ATOM      5  C   UNL     1      89.745  70.486  85.847  0.00  0.00    +0.000 C 
ATOM      6  C   UNL     1      88.557  70.612  84.920  0.00  0.00    +0.000 C 
ATOM      7  C   UNL     1      88.454  70.136  83.663  0.00  0.00    +0.000 C 
ATOM      8  C   UNL     1      87.400  71.364  85.548  0.00  0.00    +0.000 C 
ATOM      9  C   UNL     1      86.984  70.715  86.869  0.00  0.00    +0.000 C 
ENDBRANCH   1   7
BRANCH   1  10
ATOM     10  S   UNL     1      88.993  67.686  82.634  0.00  0.00    +0.000 S 
BRANCH  10  11
ATOM     11  C   UNL     1      88.996  67.060  84.302  0.00  0.00    +0.000 A 
ATOM     12  C   UNL     1      90.190  66.831  84.992  0.00  0.00    +0.000 A 
ATOM     13  C   UNL     1      90.168  66.356  86.306  0.00  0.00    +0.000 A 
ATOM     14  C   UNL     1      88.951  66.116  86.940  0.00  0.00    +0.000 A 
ATOM     15  C   UNL     1      87.755  66.353  86.264  0.00  0.00    +0.000 A 
ATOM     16  C   UNL     1      87.777  66.827  84.950  0.00  0.00    +0.000 A 
ENDBRANCH  10  11
ENDBRANCH   1  10
TORSDOF 3
ENDMDL
