MODEL 1
REMARK VINA RESULT:      -4.6      0.000      0.000
REMARK  Name = *****
REMARK  6 active torsions:
REMARK  status: ('A' for Active; 'I' for Inactive)
REMARK    1  A    between atoms: C_1  and  O_2
REMARK    2  A    between atoms: O_2  and  C_3
REMARK    3  A    between atoms: C_6  and  C_9
REMARK    4  A    between atoms: C_9  and  S_10
REMARK    5  A    between atoms: C_9  and  N_12
REMARK    6  A    between atoms: N_12  and  C_13
REMARK                            x       y       z     vdW  Elec       q    Type
REMARK                         _______ _______ _______ _____ _____    ______ ____
ROOT
ATOM      1  C   UNL     1      89.165  64.467  86.656  0.00  0.00    +0.000 C 
ENDROOT
BRANCH   1   5
ATOM      2  C   UNL     1      88.819  68.738  86.897  0.00  0.00    +0.000 A 
ATOM      3  C   UNL     1      87.775  67.932  87.353  0.00  0.00    +0.000 A 
ATOM      4  C   UNL     1      87.873  66.538  87.269  0.00  0.00    +0.000 A 
ATOM      5  C   UNL     1      89.015  65.944  86.722  0.00  0.00    +0.000 A 
ATOM      6  C   UNL     1      90.067  66.750  86.273  0.00  0.00    +0.000 A 
ATOM      7  C   UNL     1      89.964  68.140  86.363  0.00  0.00    +0.000 A 
BRANCH   2   9
ATOM      8  C   UNL     1      89.680  70.746  85.962  0.00  0.00    +0.000 C 
ATOM      9  O   UNL     1      88.849  70.105  86.923  0.00  0.00    +0.000 OA
ENDBRANCH   2   9
ENDBRANCH   1   5
BRANCH   1  10
ATOM     10  S   UNL     1      89.260  63.717  85.200  0.00  0.00    +0.000 S 
ATOM     11  O   UNL     1      88.496  62.443  85.083  0.00  0.00    +0.000 OA
ENDBRANCH   1  10
BRANCH   1  12
ATOM     12  N   UNL     1      89.156  63.845  87.899  0.00  0.00    +0.000 N 
ATOM     13  H   UNL     1      90.052  63.634  88.249  0.00  0.00    +0.000 HD
BRANCH  12  14
ATOM     14  C   UNL     1      88.097  63.458  88.751  0.00  0.00    +0.000 A 
ATOM     15  C   UNL     1      87.134  62.495  88.446  0.00  0.00    +0.000 A 
ATOM     16  C   UNL     1      86.136  62.169  89.373  0.00  0.00    +0.000 A 
ATOM     17  C   UNL     1      86.098  62.791  90.616  0.00  0.00    +0.000 A 
ATOM     18  C   UNL     1      87.067  63.734  90.942  0.00  0.00    +0.000 A 
ATOM     19  C   UNL     1      88.063  64.058  90.018  0.00  0.00    +0.000 A 
ENDBRANCH  12  14
ENDBRANCH   1  12
TORSDOF 5
ENDMDL
