REMARK  Name = *****
REMARK  4 active torsions:
REMARK  status: ('A' for Active; 'I' for Inactive)
REMARK    1  A    between atoms: C_1  and  C_2
REMARK    2  A    between atoms: C_3  and  C_16
REMARK    3  A    between atoms: C_5  and  C_8
REMARK    4  A    between atoms: C_9  and  C_10
REMARK                            x       y       z     vdW  Elec       q    Type
REMARK                         _______ _______ _______ _____ _____    ______ ____
ROOT
ATOM      1  C   UNL     1       1.887   1.494   0.020  0.00  0.00    +0.000 C 
ATOM      2  C   UNL     1       0.597   0.722   0.004  0.00  0.00    +0.000 A 
ATOM      3  C   UNL     1       0.582  -0.685  -0.049  0.00  0.00    +0.000 A 
ATOM      4  C   UNL     1      -0.652  -1.361  -0.062  0.00  0.00    +0.000 A 
ATOM      5  C   UNL     1      -1.866  -0.664  -0.024  0.00  0.00    +0.000 A 
ATOM      6  C   UNL     1      -1.838   0.731   0.054  0.00  0.00    +0.000 A 
ATOM      7  C   UNL     1      -0.620   1.416   0.063  0.00  0.00    +0.000 A 
ATOM      8  C   UNL     1       1.857  -1.482  -0.106  0.00  0.00    +0.000 C 
ENDROOT
BRANCH   5   9
ATOM      9  C   UNL     1      -3.124  -1.425  -0.005  0.00  0.00    +0.000 C 
ATOM     10  C   UNL     1      -4.236  -1.041  -0.655  0.00  0.00    +0.000 C 
BRANCH  10  11
ATOM     11  C   UNL     1      -5.489  -1.809  -0.652  0.00  0.00    +0.000 A 
ATOM     12  C   UNL     1      -5.961  -2.467   0.485  0.00  0.00    +0.000 A 
ATOM     13  C   UNL     1      -7.170  -3.140   0.409  0.00  0.00    +0.000 A 
ATOM     14  N   UNL     1      -7.932  -3.193  -0.704  0.00  0.00    +0.000 NA
ATOM     15  C   UNL     1      -7.466  -2.538  -1.787  0.00  0.00    +0.000 A 
ATOM     16  C   UNL     1      -6.271  -1.836  -1.808  0.00  0.00    +0.000 A 
ENDBRANCH  10  11
ENDBRANCH   5   9
TORSDOF 2
