MODEL 1
REMARK VINA RESULT:      -4.6      0.000      0.000
REMARK  Name = *****
REMARK  5 active torsions:
REMARK  status: ('A' for Active; 'I' for Inactive)
REMARK    1  A    between atoms: C_1  and  C_2
REMARK    2  A    between atoms: C_2  and  C_3
REMARK    3  A    between atoms: C_2  and  C_4
REMARK    4  A    between atoms: C_2  and  C_11
REMARK    5  A    between atoms: C_4  and  C_5
REMARK                            x       y       z     vdW  Elec       q    Type
REMARK                         _______ _______ _______ _____ _____    ______ ____
ROOT
ATOM      1  C   UNL     1      88.474  71.814  84.619  0.00  0.00    +0.000 C 
ATOM      2  C   UNL     1      87.792  70.709  85.460  0.00  0.00    +0.000 C 
ATOM      3  C   UNL     1      87.313  69.582  84.514  0.00  0.00    +0.000 C 
ENDROOT
BRANCH   2   4
ATOM      4  C   UNL     1      86.547  71.321  86.160  0.00  0.00    +0.000 A 
ATOM      5  C   UNL     1      85.517  71.902  85.391  0.00  0.00    +0.000 A 
ATOM      6  C   UNL     1      84.381  72.462  85.984  0.00  0.00    +0.000 A 
ATOM      7  C   UNL     1      84.244  72.456  87.367  0.00  0.00    +0.000 A 
ATOM      8  C   UNL     1      85.243  71.891  88.152  0.00  0.00    +0.000 A 
ATOM      9  C   UNL     1      86.379  71.330  87.556  0.00  0.00    +0.000 A 
ENDBRANCH   2   4
BRANCH   2  10
ATOM     10  C   UNL     1      88.825  70.124  86.485  0.00  0.00    +0.000 C 
BRANCH  10  11
ATOM     11  C   UNL     1      88.896  68.619  86.646  0.00  0.00    +0.000 A 
ATOM     12  C   UNL     1      89.977  67.894  86.123  0.00  0.00    +0.000 A 
ATOM     13  C   UNL     1      90.047  66.509  86.280  0.00  0.00    +0.000 A 
ATOM     14  C   UNL     1      89.041  65.833  86.968  0.00  0.00    +0.000 A 
ATOM     15  C   UNL     1      87.968  66.542  87.503  0.00  0.00    +0.000 A 
ATOM     16  C   UNL     1      87.897  67.928  87.346  0.00  0.00    +0.000 A 
ENDBRANCH  10  11
ENDBRANCH   2  10
TORSDOF 3
ENDMDL
