MODEL 1
REMARK VINA RESULT:      -4.4      0.000      0.000
REMARK  Name = *****
REMARK  4 active torsions:
REMARK  status: ('A' for Active; 'I' for Inactive)
REMARK    1  A    between atoms: C_1  and  C_2
REMARK    2  A    between atoms: N_8  and  C_9
REMARK    3  A    between atoms: C_9  and  C_10
REMARK    4  A    between atoms: C_9  and  C_11
REMARK                            x       y       z     vdW  Elec       q    Type
REMARK                         _______ _______ _______ _____ _____    ______ ____
ROOT
ATOM      1  C   UNL     1      98.763 118.912  83.501  0.00  0.00    +0.000 C 
ATOM      2  C   UNL     1      98.174 118.587  82.129  0.00  0.00    +0.000 C 
ATOM      3  C   UNL     1      98.319 119.752  81.140  0.00  0.00    +0.000 C 
ATOM      4  C   UNL     1      97.407 120.940  81.459  0.00  0.00    +0.000 C 
ATOM      5  C   UNL     1      95.945 120.508  81.574  0.00  0.00    +0.000 C 
ATOM      6  C   UNL     1      95.763 119.393  82.595  0.00  0.00    +0.000 C 
ATOM      7  C   UNL     1      96.693 118.239  82.253  0.00  0.00    +0.000 C 
ATOM      8  N   UNL     1      96.153 117.083  82.099  0.00  0.00    +0.000 NA
ENDROOT
BRANCH   8   9
ATOM      9  C   UNL     1      96.900 115.886  81.710  0.00  0.00    +0.000 C 
ATOM     10  C   UNL     1      96.378 114.684  82.498  0.00  0.00    +0.000 C 
BRANCH   9  11
ATOM     11  C   UNL     1      96.761 115.613  80.219  0.00  0.00    +0.000 A 
ATOM     12  C   UNL     1      97.604 116.261  79.301  0.00  0.00    +0.000 A 
ATOM     13  C   UNL     1      97.503 116.000  77.933  0.00  0.00    +0.000 A 
ATOM     14  C   UNL     1      96.563 115.085  77.464  0.00  0.00    +0.000 A 
ATOM     15  C   UNL     1      95.724 114.429  78.362  0.00  0.00    +0.000 A 
ATOM     16  C   UNL     1      95.823 114.688  79.730  0.00  0.00    +0.000 A 
ENDBRANCH   9  11
ENDBRANCH   8   9
TORSDOF 2
ENDMDL
