MODEL 1
REMARK VINA RESULT:      -4.4      0.000      0.000
REMARK  Name = *****
REMARK  5 active torsions:
REMARK  status: ('A' for Active; 'I' for Inactive)
REMARK    1  A    between atoms: C_1  and  C_2
REMARK    2  A    between atoms: C_5  and  S_8
REMARK    3  A    between atoms: S_8  and  N_10
REMARK    4  A    between atoms: N_10  and  C_11
REMARK    5  A    between atoms: N_10  and  C_12
REMARK                            x       y       z     vdW  Elec       q    Type
REMARK                         _______ _______ _______ _____ _____    ______ ____
ROOT
ATOM      1  S   UNL     1      87.140  62.923  87.495  0.00  0.00    +0.000 S 
ATOM      2  O   UNL     1      85.686  62.559  87.469  0.00  0.00    +0.000 OA
ENDROOT
BRANCH   1   7
ATOM      3  C   UNL     1      88.269  64.639  93.263  0.00  0.00    +0.000 C 
ATOM      4  C   UNL     1      87.992  64.193  91.856  0.00  0.00    +0.000 A 
ATOM      5  C   UNL     1      89.043  64.018  90.948  0.00  0.00    +0.000 A 
ATOM      6  C   UNL     1      88.783  63.629  89.631  0.00  0.00    +0.000 A 
ATOM      7  C   UNL     1      87.466  63.426  89.205  0.00  0.00    +0.000 A 
ATOM      8  C   UNL     1      86.414  63.604  90.109  0.00  0.00    +0.000 A 
ATOM      9  C   UNL     1      86.675  63.993  91.425  0.00  0.00    +0.000 A 
ENDBRANCH   1   7
BRANCH   1  10
ATOM     10  N   UNL     1      87.415  64.451  86.837  0.00  0.00    +0.000 N 
ATOM     11  C   UNL     1      86.393  65.479  87.029  0.00  0.00    +0.000 C 
BRANCH  10  12
ATOM     12  C   UNL     1      88.677  64.911  86.392  0.00  0.00    +0.000 A 
ATOM     13  C   UNL     1      89.585  64.029  85.774  0.00  0.00    +0.000 A 
ATOM     14  C   UNL     1      90.839  64.454  85.319  0.00  0.00    +0.000 A 
ATOM     15  C   UNL     1      91.223  65.780  85.476  0.00  0.00    +0.000 A 
ATOM     16  C   UNL     1      90.354  66.674  86.092  0.00  0.00    +0.000 A 
ATOM     17  C   UNL     1      89.101  66.242  86.544  0.00  0.00    +0.000 A 
ENDBRANCH  10  12
ENDBRANCH   1  10
TORSDOF 3
ENDMDL
