REMARK  Name = *****
REMARK  3 active torsions:
REMARK  status: ('A' for Active; 'I' for Inactive)
REMARK    1  A    between atoms: C_4  and  O_7
REMARK    2  A    between atoms: O_7  and  C_8
REMARK    3  A    between atoms: C_8  and  C_10
REMARK                            x       y       z     vdW  Elec       q    Type
REMARK                         _______ _______ _______ _____ _____    ______ ____
ROOT
ATOM      1  C   UNL     1       3.467  -1.673   0.678  0.00  0.00    +0.000 C 
ATOM      2  O   UNL     1       3.096  -2.146   1.742  0.00  0.00    +0.000 OA
ENDROOT
BRANCH   1   3
ATOM      3  C   UNL     1       4.739  -2.046  -0.056  0.00  0.00    +0.000 C 
ATOM      4  C   UNL     1       5.597  -3.122   0.681  0.00  0.00    +0.000 C 
ATOM      5  C   UNL     1       6.942  -2.396   0.899  0.00  0.00    +0.000 C 
ATOM      6  C   UNL     1       6.466  -0.975   1.202  0.00  0.00    +0.000 C 
ATOM      7  C   UNL     1       5.707  -0.839  -0.125  0.00  0.00    +0.000 C 
ATOM      8  C   UNL     1       6.829  -1.212  -1.070  0.00  0.00    +0.000 C 
ATOM      9  C   UNL     1       7.566  -2.151  -0.456  0.00  0.00    +0.000 C 
ENDBRANCH   1   3
BRANCH   1  10
ATOM     10  O   UNL     1       2.779  -0.742  -0.045  0.00  0.00    +0.000 OA
BRANCH  10  14
ATOM     11  C   UNL     1      -1.235   0.630   0.047  0.00  0.00    +0.000 C 
ATOM     12  C   UNL     1      -0.948  -0.753   0.623  0.00  0.00    +0.000 C 
ATOM     13  C   UNL     1       0.415  -1.275   0.179  0.00  0.00    +0.000 C 
ATOM     14  C   UNL     1       1.536  -0.289   0.521  0.00  0.00    +0.000 C 
ATOM     15  C   UNL     1       1.242   1.092  -0.073  0.00  0.00    +0.000 C 
ATOM     16  C   UNL     1      -0.119   1.619   0.370  0.00  0.00    +0.000 C 
ENDBRANCH  10  14
ENDBRANCH   1  10
TORSDOF 3
