REMARK  Name = *****
REMARK  4 active torsions:
REMARK  status: ('A' for Active; 'I' for Inactive)
REMARK    1  A    between atoms: C_4  and  C_7
REMARK    2  A    between atoms: C_7  and  C_8
REMARK    3  A    between atoms: C_8  and  C_10
REMARK    4  A    between atoms: C_15  and  C_16
REMARK                            x       y       z     vdW  Elec       q    Type
REMARK                         _______ _______ _______ _____ _____    ______ ____
ROOT
ATOM      1  C   UNL     1      -4.801  -0.750  -0.641  0.00  0.00    +0.000 A 
ATOM      2  C   UNL     1      -5.338   0.528  -0.862  0.00  0.00    +0.000 A 
ATOM      3  C   UNL     1      -6.677   0.787  -0.567  0.00  0.00    +0.000 A 
ATOM      4  C   UNL     1      -7.486  -0.227  -0.064  0.00  0.00    +0.000 A 
ATOM      5  C   UNL     1      -6.958  -1.502   0.148  0.00  0.00    +0.000 A 
ATOM      6  C   UNL     1      -5.607  -1.784  -0.132  0.00  0.00    +0.000 A 
ENDROOT
BRANCH   6   7
ATOM      7  C   UNL     1      -5.070  -3.172   0.119  0.00  0.00    +0.000 C 
ATOM      8  F   UNL     1      -3.836  -3.187   0.696  0.00  0.00    +0.000 F 
ATOM      9  F   UNL     1      -5.862  -3.881   0.981  0.00  0.00    +0.000 F 
ATOM     10  F   UNL     1      -4.999  -3.935  -1.003  0.00  0.00    +0.000 F 
ENDBRANCH   6   7
BRANCH   1  11
ATOM     11  C   UNL     1      -3.383  -1.001  -1.002  0.00  0.00    +0.000 C 
ATOM     12  O   UNL     1      -3.128  -1.978  -1.702  0.00  0.00    +0.000 OA
BRANCH  11  13
ATOM     13  C   UNL     1      -2.313  -0.020  -0.558  0.00  0.00    +0.000 C 
BRANCH  13  17
ATOM     14  C   UNL     1      -2.525   0.999   3.628  0.00  0.00    +0.000 A 
ATOM     15  C   UNL     1      -2.236  -0.308   3.241  0.00  0.00    +0.000 A 
ATOM     16  C   UNL     1      -2.161  -0.634   1.886  0.00  0.00    +0.000 A 
ATOM     17  C   UNL     1      -2.381   0.343   0.905  0.00  0.00    +0.000 A 
ATOM     18  C   UNL     1      -2.662   1.657   1.306  0.00  0.00    +0.000 A 
ATOM     19  C   UNL     1      -2.735   1.981   2.662  0.00  0.00    +0.000 A 
ENDBRANCH  13  17
ENDBRANCH  11  13
ENDBRANCH   1  11
TORSDOF 4
