MODEL 1
REMARK VINA RESULT:      -5.0      0.000      0.000
REMARK  Name = *****
REMARK  4 active torsions:
REMARK  status: ('A' for Active; 'I' for Inactive)
REMARK    1  A    between atoms: C_6  and  C_7
REMARK    2  A    between atoms: C_7  and  C_8
REMARK    3  A    between atoms: C_7  and  N_17
REMARK    4  A    between atoms: C_8  and  C_9
REMARK                            x       y       z     vdW  Elec       q    Type
REMARK                         _______ _______ _______ _____ _____    ______ ____
ROOT
ATOM      1  C   UNL     1      87.658  63.854  87.746  0.00  0.00    +0.000 C 
ENDROOT
BRANCH   1   7
ATOM      2  C   UNL     1      86.707  64.380  90.031  0.00  0.00    +0.000 A 
ATOM      3  C   UNL     1      86.825  64.533  91.413  0.00  0.00    +0.000 A 
ATOM      4  C   UNL     1      88.053  64.316  92.023  0.00  0.00    +0.000 A 
ATOM      5  C   UNL     1      89.163  63.941  91.277  0.00  0.00    +0.000 A 
ATOM      6  C   UNL     1      89.046  63.783  89.895  0.00  0.00    +0.000 A 
ATOM      7  C   UNL     1      87.818  64.014  89.249  0.00  0.00    +0.000 A 
ATOM      8  F   UNL     1      88.167  64.464  93.349  0.00  0.00    +0.000 F 
ENDBRANCH   1   7
BRANCH   1   9
ATOM      9  N   UNL     1      87.363  62.450  87.428  0.00  0.00    +0.000 N 
ATOM     10  H   UNL     1      87.357  62.325  86.415  0.00  0.00    +0.000 HD
ATOM     11  H   UNL     1      86.450  62.200  87.807  0.00  0.00    +0.000 HD
ATOM     12  H   UNL     1      88.078  61.851  87.840  0.00  0.00    +0.000 HD
ENDBRANCH   1   9
BRANCH   1  13
ATOM     13  C   UNL     1      88.863  64.371  86.914  0.00  0.00    +0.000 C 
BRANCH  13  14
ATOM     14  C   UNL     1      88.957  65.883  86.817  0.00  0.00    +0.000 A 
ATOM     15  C   UNL     1      90.030  66.553  86.201  0.00  0.00    +0.000 A 
ATOM     16  C   UNL     1      90.066  67.951  86.149  0.00  0.00    +0.000 A 
ATOM     17  C   UNL     1      89.029  68.692  86.705  0.00  0.00    +0.000 A 
ATOM     18  C   UNL     1      87.952  68.053  87.308  0.00  0.00    +0.000 A 
ATOM     19  C   UNL     1      87.914  66.658  87.359  0.00  0.00    +0.000 A 
ATOM     20 CL   UNL     1      89.074  70.410  86.639  0.00  0.00    +0.000 Cl
ATOM     21 CL   UNL     1      91.348  65.712  85.463  0.00  0.00    +0.000 Cl
ENDBRANCH  13  14
ENDBRANCH   1  13
TORSDOF 4
ENDMDL
