MODEL 1
REMARK VINA RESULT:      -4.1      0.000      0.000
REMARK  Name = *****
REMARK  6 active torsions:
REMARK  status: ('A' for Active; 'I' for Inactive)
REMARK    1  A    between atoms: C_1  and  C_2
REMARK    2  A    between atoms: C_2  and  C_3
REMARK    3  A    between atoms: C_3  and  C_4
REMARK    4  A    between atoms: C_4  and  C_5
REMARK    5  A    between atoms: C_6  and  C_9
REMARK    6  A    between atoms: C_10  and  C_11
REMARK                            x       y       z     vdW  Elec       q    Type
REMARK                         _______ _______ _______ _____ _____    ______ ____
ROOT
ATOM      1  C   UNL     1      89.736  68.225  84.907  0.00  0.00    +0.000 C 
ATOM      2  C   UNL     1      89.512  68.157  86.234  0.00  0.00    +0.000 C 
ATOM      3  C   UNL     1      90.064  66.760  86.369  0.00  0.00    +0.000 C 
ATOM      4  C   UNL     1      90.326  66.826  84.853  0.00  0.00    +0.000 C 
ENDROOT
BRANCH   2   5
ATOM      5  C   UNL     1      88.923  69.121  87.223  0.00  0.00    +0.000 C 
ATOM      6  C   UNL     1      88.449  69.889  88.015  0.00  0.00    +0.000 C 
BRANCH   6   7
ATOM      7  C   UNL     1      87.881  70.800  88.960  0.00  0.00    +0.000 A 
ATOM      8  C   UNL     1      86.519  71.107  88.904  0.00  0.00    +0.000 A 
ATOM      9  C   UNL     1      85.965  71.996  89.828  0.00  0.00    +0.000 A 
ATOM     10  C   UNL     1      86.771  72.578  90.806  0.00  0.00    +0.000 A 
ATOM     11  C   UNL     1      88.131  72.273  90.863  0.00  0.00    +0.000 A 
ATOM     12  C   UNL     1      88.686  71.384  89.941  0.00  0.00    +0.000 A 
ENDBRANCH   6   7
ENDBRANCH   2   5
BRANCH   1  13
ATOM     13  C   UNL     1      89.490  69.301  83.860  0.00  0.00    +0.000 C 
BRANCH  13  14
ATOM     14  C   UNL     1      90.381  70.521  84.020  0.00  0.00    +0.000 C 
BRANCH  14  16
ATOM     15  C   UNL     1      88.115  71.526  84.475  0.00  0.00    +0.000 C 
ATOM     16  C   UNL     1      89.618  71.689  84.643  0.00  0.00    +0.000 C 
ENDBRANCH  14  16
ENDBRANCH  13  14
ENDBRANCH   1  13
TORSDOF 5
ENDMDL
