MODEL 1
REMARK VINA RESULT:      -4.7      0.000      0.000
REMARK  Name = *****
REMARK  4 active torsions:
REMARK  status: ('A' for Active; 'I' for Inactive)
REMARK    1  A    between atoms: C_1  and  C_2
REMARK    2  A    between atoms: C_5  and  N_8
REMARK    3  A    between atoms: N_8  and  N_10
REMARK    4  A    between atoms: N_10  and  C_11
REMARK                            x       y       z     vdW  Elec       q    Type
REMARK                         _______ _______ _______ _____ _____    ______ ____
ROOT
ATOM      1  N   UNL     1      88.976  64.427  86.884  0.00  0.00    +0.000 N 
ATOM      2  O   UNL     1      88.948  63.841  85.819  0.00  0.00    +0.000 OA
ENDROOT
BRANCH   1   7
ATOM      3  C   UNL     1      88.998  70.172  86.825  0.00  0.00    +0.000 C 
ATOM      4  C   UNL     1      88.977  68.672  86.816  0.00  0.00    +0.000 A 
ATOM      5  C   UNL     1      90.053  67.953  86.279  0.00  0.00    +0.000 A 
ATOM      6  C   UNL     1      90.053  66.557  86.303  0.00  0.00    +0.000 A 
ATOM      7  C   UNL     1      88.974  65.876  86.871  0.00  0.00    +0.000 A 
ATOM      8  C   UNL     1      87.905  66.580  87.434  0.00  0.00    +0.000 A 
ATOM      9  C   UNL     1      87.912  67.976  87.407  0.00  0.00    +0.000 A 
ENDBRANCH   1   7
BRANCH   1  10
ATOM     10  N   UNL     1      88.956  63.738  88.126  0.00  0.00    +0.000 N 
ATOM     11  H   UNL     1      89.845  63.544  88.503  0.00  0.00    +0.000 HD
BRANCH  10  12
ATOM     12  C   UNL     1      87.878  63.289  88.905  0.00  0.00    +0.000 A 
ATOM     13  C   UNL     1      87.560  63.811  90.162  0.00  0.00    +0.000 A 
ATOM     14  C   UNL     1      86.464  63.332  90.888  0.00  0.00    +0.000 A 
ATOM     15  C   UNL     1      85.662  62.323  90.364  0.00  0.00    +0.000 A 
ATOM     16  C   UNL     1      85.956  61.794  89.112  0.00  0.00    +0.000 A 
ATOM     17  C   UNL     1      87.053  62.276  88.391  0.00  0.00    +0.000 A 
ENDBRANCH  10  12
ENDBRANCH   1  10
TORSDOF 3
ENDMDL
