MODEL 1
REMARK VINA RESULT:      -5.1      0.000      0.000
REMARK  Name = *****
REMARK  5 active torsions:
REMARK  status: ('A' for Active; 'I' for Inactive)
REMARK    1  A    between atoms: C_1  and  C_2
REMARK    2  A    between atoms: C_2  and  C_3
REMARK    3  A    between atoms: C_2  and  C_9
REMARK    4  A    between atoms: C_9  and  C_10
REMARK    5  A    between atoms: C_9  and  C_11
REMARK                            x       y       z     vdW  Elec       q    Type
REMARK                         _______ _______ _______ _____ _____    ______ ____
ROOT
ATOM      1  C   UNL     1     103.623 128.610  82.840  0.00  0.00    +0.000 C 
ATOM      2  C   UNL     1     102.744 127.369  82.622  0.00  0.00    +0.000 C 
ENDROOT
BRANCH   2   3
ATOM      3  C   UNL     1     101.261 127.638  82.869  0.00  0.00    +0.000 A 
ATOM      4  C   UNL     1     100.796 128.785  83.529  0.00  0.00    +0.000 A 
ATOM      5  C   UNL     1      99.428 128.995  83.719  0.00  0.00    +0.000 A 
ATOM      6  C   UNL     1      98.504 128.065  83.249  0.00  0.00    +0.000 A 
ATOM      7  C   UNL     1      98.947 126.925  82.585  0.00  0.00    +0.000 A 
ATOM      8  C   UNL     1     100.314 126.714  82.395  0.00  0.00    +0.000 A 
ENDBRANCH   2   3
BRANCH   2   9
ATOM      9  C   UNL     1     102.967 126.659  81.247  0.00  0.00    +0.000 C 
ATOM     10  C   UNL     1     103.683 127.525  80.198  0.00  0.00    +0.000 C 
BRANCH   9  11
ATOM     11  C   UNL     1     103.617 125.289  81.433  0.00  0.00    +0.000 A 
ATOM     12  C   UNL     1     103.657 124.725  82.721  0.00  0.00    +0.000 A 
ATOM     13  C   UNL     1     104.253 123.481  82.941  0.00  0.00    +0.000 A 
ATOM     14  C   UNL     1     104.822 122.784  81.879  0.00  0.00    +0.000 A 
ATOM     15  C   UNL     1     104.797 123.331  80.598  0.00  0.00    +0.000 A 
ATOM     16  C   UNL     1     104.201 124.575  80.377  0.00  0.00    +0.000 A 
ENDBRANCH   9  11
ENDBRANCH   2   9
TORSDOF 3
ENDMDL
