MODEL 1
REMARK VINA RESULT:      -4.5      0.000      0.000
REMARK  Name = *****
REMARK  2 active torsions:
REMARK  status: ('A' for Active; 'I' for Inactive)
REMARK    1  A    between atoms: C_5  and  C_7
REMARK    2  A    between atoms: C_8  and  C_9
REMARK                            x       y       z     vdW  Elec       q    Type
REMARK                         _______ _______ _______ _____ _____    ______ ____
ROOT
ATOM      1  C   UNL     1     101.385 127.709  82.965  0.00  0.00    +0.000 C 
ATOM      2  C   UNL     1     102.696 127.416  82.847  0.00  0.00    +0.000 C 
ATOM      3 CL   UNL     1     100.180 126.594  82.381  0.00  0.00    +0.000 Cl
ENDROOT
BRANCH   2   4
ATOM      4  C   UNL     1     103.248 126.199  82.248  0.00  0.00    +0.000 A 
ATOM      5  C   UNL     1     103.432 126.119  80.863  0.00  0.00    +0.000 A 
ATOM      6  C   UNL     1     103.953 124.955  80.290  0.00  0.00    +0.000 A 
ATOM      7  C   UNL     1     104.289 123.874  81.104  0.00  0.00    +0.000 A 
ATOM      8  C   UNL     1     104.109 123.946  82.484  0.00  0.00    +0.000 A 
ATOM      9  C   UNL     1     103.588 125.108  83.057  0.00  0.00    +0.000 A 
ATOM     10 CL   UNL     1     104.931 122.442  80.399  0.00  0.00    +0.000 Cl
ENDBRANCH   2   4
BRANCH   1  15
ATOM     11  C   UNL     1      99.258 130.636  84.143  0.00  0.00    +0.000 A 
ATOM     12  C   UNL     1     100.230 131.372  84.806  0.00  0.00    +0.000 A 
ATOM     13  C   UNL     1     101.516 130.869  84.828  0.00  0.00    +0.000 A 
ATOM     14  N   UNL     1     101.879 129.706  84.244  0.00  0.00    +0.000 NA
ATOM     15  C   UNL     1     100.928 128.982  83.593  0.00  0.00    +0.000 A 
ATOM     16  C   UNL     1      99.607 129.432  83.531  0.00  0.00    +0.000 A 
ENDBRANCH   1  15
TORSDOF 2
ENDMDL
