MODEL 1
REMARK VINA RESULT:      -5.0      0.000      0.000
REMARK  Name = *****
REMARK  1 active torsions:
REMARK  status: ('A' for Active; 'I' for Inactive)
REMARK    1  A    between atoms: C_4  and  C_5
REMARK                            x       y       z     vdW  Elec       q    Type
REMARK                         _______ _______ _______ _____ _____    ______ ____
ROOT
ATOM      1  C   UNL     1     103.767 125.798  79.958  0.00  0.00    +0.000 C 
ATOM      2  C   UNL     1     102.958 126.643  80.952  0.00  0.00    +0.000 C 
ATOM      3  C   UNL     1     102.765 125.781  82.181  0.00  0.00    +0.000 C 
ATOM      4  C   UNL     1     101.889 125.969  83.180  0.00  0.00    +0.000 C 
ATOM      5  C   UNL     1     103.699 124.661  82.071  0.00  0.00    +0.000 A 
ATOM      6  C   UNL     1     104.040 123.678  82.989  0.00  0.00    +0.000 A 
ATOM      7  C   UNL     1     104.988 122.716  82.627  0.00  0.00    +0.000 A 
ATOM      8  C   UNL     1     105.581 122.744  81.358  0.00  0.00    +0.000 A 
ATOM      9  C   UNL     1     105.235 123.734  80.437  0.00  0.00    +0.000 A 
ATOM     10  C   UNL     1     104.300 124.689  80.810  0.00  0.00    +0.000 A 
ENDROOT
BRANCH   4  11
ATOM     11  C   UNL     1     100.973 127.108  83.233  0.00  0.00    +0.000 A 
ATOM     12  C   UNL     1     101.369 128.301  83.848  0.00  0.00    +0.000 A 
ATOM     13  C   UNL     1     100.490 129.385  83.907  0.00  0.00    +0.000 A 
ATOM     14  C   UNL     1      99.215 129.280  83.352  0.00  0.00    +0.000 A 
ATOM     15  C   UNL     1      98.815 128.093  82.740  0.00  0.00    +0.000 A 
ATOM     16  C   UNL     1      99.691 127.008  82.682  0.00  0.00    +0.000 A 
ENDBRANCH   4  11
TORSDOF 1
ENDMDL
