MODEL 1
REMARK VINA RESULT:      -4.3      0.000      0.000
REMARK  Name = *****
REMARK  2 active torsions:
REMARK  status: ('A' for Active; 'I' for Inactive)
REMARK    1  A    between atoms: C_4  and  C_7
REMARK    2  A    between atoms: C_8  and  C_9
REMARK                            x       y       z     vdW  Elec       q    Type
REMARK                         _______ _______ _______ _____ _____    ______ ____
ROOT
ATOM      1  C   UNL     1     102.145 126.313  81.920  0.00  0.00    +0.000 C 
ATOM      2  C   UNL     1     103.021 125.674  81.405  0.00  0.00    +0.000 C 
ENDROOT
BRANCH   1   6
ATOM      3  C   UNL     1      99.061 128.575  83.713  0.00  0.00    +0.000 A 
ATOM      4  C   UNL     1      98.745 127.456  82.942  0.00  0.00    +0.000 A 
ATOM      5  C   UNL     1      99.764 126.707  82.348  0.00  0.00    +0.000 A 
ATOM      6  C   UNL     1     101.099 127.079  82.526  0.00  0.00    +0.000 A 
ATOM      7  C   UNL     1     101.413 128.199  83.299  0.00  0.00    +0.000 A 
ATOM      8  C   UNL     1     100.393 128.946  83.892  0.00  0.00    +0.000 A 
ENDBRANCH   1   6
BRANCH   2   9
ATOM      9  C   UNL     1     104.062 124.918  80.791  0.00  0.00    +0.000 A 
ATOM     10  C   UNL     1     104.802 125.332  79.703  0.00  0.00    +0.000 A 
ATOM     11  C   UNL     1     105.759 124.358  79.326  0.00  0.00    +0.000 A 
ATOM     12  C   UNL     1     105.737 123.238  80.118  0.00  0.00    +0.000 A 
ATOM     13  S   UNL     1     104.539 123.367  81.336  0.00  0.00    +0.000 S 
ATOM     14 BR   UNL     1     106.930 124.620  77.872  0.00  0.00    +0.000 Br
ENDBRANCH   2   9
TORSDOF 2
ENDMDL
