MODEL 1
REMARK VINA RESULT:      -4.6      0.000      0.000
REMARK  Name = *****
REMARK  3 active torsions:
REMARK  status: ('A' for Active; 'I' for Inactive)
REMARK    1  A    between atoms: C_1  and  C_16
REMARK    2  A    between atoms: C_2  and  C_10
REMARK    3  A    between atoms: N_3  and  C_4
REMARK                            x       y       z     vdW  Elec       q    Type
REMARK                         _______ _______ _______ _____ _____    ______ ____
ROOT
ATOM      1  C   UNL     1     104.059 126.600  81.164  0.00  0.00    +0.000 C 
ATOM      2  C   UNL     1     103.268 126.339  82.445  0.00  0.00    +0.000 C 
ATOM      3  N   UNL     1     103.348 125.349  81.363  0.00  0.00    +0.000 N 
ATOM      4  C   UNL     1     103.589 127.525  80.096  0.00  0.00    +0.000 C 
ENDROOT
BRANCH   3   5
ATOM      5  C   UNL     1     104.082 124.157  81.570  0.00  0.00    +0.000 A 
ATOM      6  C   UNL     1     104.151 123.568  82.840  0.00  0.00    +0.000 A 
ATOM      7  C   UNL     1     104.849 122.374  83.038  0.00  0.00    +0.000 A 
ATOM      8  C   UNL     1     105.470 121.743  81.962  0.00  0.00    +0.000 A 
ATOM      9  C   UNL     1     105.385 122.300  80.688  0.00  0.00    +0.000 A 
ATOM     10  C   UNL     1     104.688 123.494  80.493  0.00  0.00    +0.000 A 
ENDBRANCH   3   5
BRANCH   2  11
ATOM     11  C   UNL     1     101.948 127.018  82.702  0.00  0.00    +0.000 A 
ATOM     12  C   UNL     1     100.722 126.440  82.330  0.00  0.00    +0.000 A 
ATOM     13  C   UNL     1      99.504 127.075  82.588  0.00  0.00    +0.000 A 
ATOM     14  C   UNL     1      99.487 128.308  83.234  0.00  0.00    +0.000 A 
ATOM     15  C   UNL     1     100.684 128.901  83.620  0.00  0.00    +0.000 A 
ATOM     16  C   UNL     1     101.898 128.261  83.357  0.00  0.00    +0.000 A 
ENDBRANCH   2  11
TORSDOF 2
ENDMDL
