MODEL 1
REMARK VINA RESULT:      -4.5      0.000      0.000
REMARK  Name = *****
REMARK  4 active torsions:
REMARK  status: ('A' for Active; 'I' for Inactive)
REMARK    1  A    between atoms: C_1  and  C_2
REMARK    2  A    between atoms: C_2  and  C_3
REMARK    3  A    between atoms: C_2  and  O_9
REMARK    4  A    between atoms: O_9  and  C_10
REMARK                            x       y       z     vdW  Elec       q    Type
REMARK                         _______ _______ _______ _____ _____    ______ ____
ROOT
ATOM      1  C   UNL     1     103.346 128.576  83.157  0.00  0.00    +0.000 C 
ATOM      2  C   UNL     1     102.568 127.295  82.852  0.00  0.00    +0.000 C 
ENDROOT
BRANCH   2   3
ATOM      3  C   UNL     1     101.072 127.582  82.909  0.00  0.00    +0.000 A 
ATOM      4  C   UNL     1     100.572 128.763  83.478  0.00  0.00    +0.000 A 
ATOM      5  C   UNL     1      99.197 128.998  83.542  0.00  0.00    +0.000 A 
ATOM      6  C   UNL     1      98.304 128.053  83.045  0.00  0.00    +0.000 A 
ATOM      7  C   UNL     1      98.785 126.871  82.484  0.00  0.00    +0.000 A 
ATOM      8  C   UNL     1     100.158 126.634  82.418  0.00  0.00    +0.000 A 
ENDBRANCH   2   3
BRANCH   2   9
ATOM      9  O   UNL     1     102.895 126.824  81.539  0.00  0.00    +0.000 OA
BRANCH   9  10
ATOM     10  C   UNL     1     103.540 125.630  81.388  0.00  0.00    +0.000 A 
ATOM     11  C   UNL     1     104.146 125.151  80.227  0.00  0.00    +0.000 A 
ATOM     12  C   UNL     1     104.769 123.897  80.223  0.00  0.00    +0.000 A 
ATOM     13  C   UNL     1     104.783 123.122  81.381  0.00  0.00    +0.000 A 
ATOM     14  C   UNL     1     104.179 123.589  82.544  0.00  0.00    +0.000 A 
ATOM     15  C   UNL     1     103.559 124.841  82.543  0.00  0.00    +0.000 A 
ATOM     16 CL   UNL     1     105.550 121.582  81.372  0.00  0.00    +0.000 Cl
ENDBRANCH   9  10
ENDBRANCH   2   9
TORSDOF 3
ENDMDL
