REMARK  Name = *****
REMARK  4 active torsions:
REMARK  status: ('A' for Active; 'I' for Inactive)
REMARK    1  A    between atoms: C_2  and  C_3
REMARK    2  A    between atoms: C_2  and  C_9
REMARK    3  A    between atoms: C_9  and  S_11
REMARK    4  A    between atoms: S_11  and  C_12
REMARK                            x       y       z     vdW  Elec       q    Type
REMARK                         _______ _______ _______ _____ _____    ______ ____
ROOT
ATOM      1  C   UNL     1       3.322  -0.141  -1.743  0.00  0.00    +0.000 C 
ATOM      2  O   UNL     1       2.695  -1.140  -2.077  0.00  0.00    +0.000 OA
ENDROOT
BRANCH   1   4
ATOM      3  C   UNL     1       3.264   2.323  -1.168  0.00  0.00    +0.000 C 
ATOM      4  C   UNL     1       2.629   1.159  -1.406  0.00  0.00    +0.000 C 
BRANCH   4   5
ATOM      5  C   UNL     1       1.149   1.191  -1.367  0.00  0.00    +0.000 A 
ATOM      6  C   UNL     1       0.403   0.944  -2.528  0.00  0.00    +0.000 A 
ATOM      7  C   UNL     1      -0.993   0.985  -2.496  0.00  0.00    +0.000 A 
ATOM      8  C   UNL     1      -1.656   1.273  -1.305  0.00  0.00    +0.000 A 
ATOM      9  C   UNL     1      -0.926   1.518  -0.143  0.00  0.00    +0.000 A 
ATOM     10  C   UNL     1       0.470   1.477  -0.173  0.00  0.00    +0.000 A 
ENDBRANCH   4   5
ENDBRANCH   1   4
BRANCH   1  11
ATOM     11  S   UNL     1       5.080  -0.174  -1.613  0.00  0.00    +0.000 S 
BRANCH  11  12
ATOM     12  C   UNL     1       5.452  -1.718  -2.518  0.00  0.00    +0.000 C 
ATOM     13  C   UNL     1       6.886  -2.151  -2.181  0.00  0.00    +0.000 C 
ATOM     14  C   UNL     1       7.283  -3.407  -2.958  0.00  0.00    +0.000 C 
ATOM     15  C   UNL     1       7.105  -3.217  -4.461  0.00  0.00    +0.000 C 
ATOM     16  C   UNL     1       5.690  -2.765  -4.807  0.00  0.00    +0.000 C 
ATOM     17  C   UNL     1       5.292  -1.510  -4.030  0.00  0.00    +0.000 C 
ENDBRANCH  11  12
ENDBRANCH   1  11
TORSDOF 4
