REMARK  Name = *****
REMARK  6 active torsions:
REMARK  status: ('A' for Active; 'I' for Inactive)
REMARK    1  A    between atoms: C_1  and  O_2
REMARK    2  A    between atoms: O_2  and  C_3
REMARK    3  A    between atoms: C_3  and  C_5
REMARK    4  A    between atoms: C_5  and  C_6
REMARK    5  A    between atoms: C_5  and  C_13
REMARK    6  A    between atoms: C_6  and  C_7
REMARK                            x       y       z     vdW  Elec       q    Type
REMARK                         _______ _______ _______ _____ _____    ______ ____
ROOT
ATOM      1  C   UNL     1       4.708   0.794   1.161  0.00  0.00    +0.000 C 
ENDROOT
BRANCH   1   2
ATOM      2  C   UNL     1       4.947   1.613   2.420  0.00  0.00    +0.000 A 
ATOM      3  C   UNL     1       5.652   1.050   3.495  0.00  0.00    +0.000 A 
ATOM      4  C   UNL     1       5.870   1.781   4.664  0.00  0.00    +0.000 A 
ATOM      5  C   UNL     1       5.385   3.082   4.774  0.00  0.00    +0.000 A 
ATOM      6  C   UNL     1       4.680   3.653   3.716  0.00  0.00    +0.000 A 
ATOM      7  C   UNL     1       4.461   2.924   2.546  0.00  0.00    +0.000 A 
ENDBRANCH   1   2
BRANCH   1   8
ATOM      8  C   UNL     1       5.204   1.528  -0.078  0.00  0.00    +0.000 C 
ATOM      9  O   UNL     1       4.506   2.211  -0.818  0.00  0.00    +0.000 OA
BRANCH   8  11
ATOM     10  C   UNL     1       7.106   2.029  -1.353  0.00  0.00    +0.000 C 
ATOM     11  O   UNL     1       6.546   1.332  -0.239  0.00  0.00    +0.000 OA
ENDBRANCH   8  11
ENDBRANCH   1   8
BRANCH   1  12
ATOM     12  C   UNL     1       3.227   0.409   0.964  0.00  0.00    +0.000 C 
BRANCH  12  13
ATOM     13  C   UNL     1       2.735  -0.601   1.977  0.00  0.00    +0.000 A 
ATOM     14  C   UNL     1       2.037  -0.181   3.117  0.00  0.00    +0.000 A 
ATOM     15  C   UNL     1       1.601  -1.111   4.062  0.00  0.00    +0.000 A 
ATOM     16  C   UNL     1       1.859  -2.467   3.878  0.00  0.00    +0.000 A 
ATOM     17  C   UNL     1       2.555  -2.896   2.749  0.00  0.00    +0.000 A 
ATOM     18  C   UNL     1       2.993  -1.968   1.802  0.00  0.00    +0.000 A 
ENDBRANCH  12  13
ENDBRANCH   1  12
TORSDOF 5
