REMARK  Name = *****
REMARK  2 active torsions:
REMARK  status: ('A' for Active; 'I' for Inactive)
REMARK    1  A    between atoms: N_7  and  C_11
REMARK    2  A    between atoms: C_11  and  C_12
REMARK                            x       y       z     vdW  Elec       q    Type
REMARK                         _______ _______ _______ _____ _____    ______ ____
ROOT
ATOM      1  C   UNL     1      -2.051  -0.678   0.366  0.00  0.00    +0.000 A 
ATOM      2  C   UNL     1      -2.179   0.701   0.153  0.00  0.00    +0.000 A 
ATOM      3  C   UNL     1      -1.060   1.472  -0.167  0.00  0.00    +0.000 A 
ATOM      4  C   UNL     1       0.170   0.840  -0.265  0.00  0.00    +0.000 A 
ATOM      5  C   UNL     1       0.307  -0.533  -0.053  0.00  0.00    +0.000 A 
ATOM      6  C   UNL     1      -0.804  -1.304   0.263  0.00  0.00    +0.000 A 
ATOM      7  N   UNL     1       1.640  -0.976  -0.202  0.00  0.00    +0.000 N 
ATOM      8  C   UNL     1       2.553   0.019  -0.522  0.00  0.00    +0.000 A 
ATOM      9  O   UNL     1       3.756  -0.109  -0.691  0.00  0.00    +0.000 OA
ATOM     10  S   UNL     1       1.727   1.580  -0.657  0.00  0.00    +0.000 S 
ENDROOT
BRANCH   7  11
ATOM     11  C   UNL     1       2.065  -2.346  -0.003  0.00  0.00    +0.000 C 
BRANCH  11  12
ATOM     12  C   UNL     1       2.269  -2.697   1.454  0.00  0.00    +0.000 A 
ATOM     13  C   UNL     1       1.454  -3.651   2.082  0.00  0.00    +0.000 A 
ATOM     14  C   UNL     1       1.647  -3.966   3.428  0.00  0.00    +0.000 A 
ATOM     15  C   UNL     1       2.653  -3.346   4.164  0.00  0.00    +0.000 A 
ATOM     16  C   UNL     1       3.477  -2.405   3.548  0.00  0.00    +0.000 A 
ATOM     17  C   UNL     1       3.287  -2.084   2.202  0.00  0.00    +0.000 A 
ATOM     18 CL   UNL     1       0.631  -5.131   4.183  0.00  0.00    +0.000 Cl
ENDBRANCH  11  12
ENDBRANCH   7  11
TORSDOF 2
