REMARK  Name = *****
REMARK  3 active torsions:
REMARK  status: ('A' for Active; 'I' for Inactive)
REMARK    1  A    between atoms: C_4  and  C_7
REMARK    2  A    between atoms: C_8  and  C_9
REMARK    3  A    between atoms: C_10  and  C_14
REMARK                            x       y       z     vdW  Elec       q    Type
REMARK                         _______ _______ _______ _____ _____    ______ ____
ROOT
ATOM      1  C   UNL     1       2.896   0.136  -0.274  0.00  0.00    +0.000 C 
ATOM      2  C   UNL     1       4.088   0.227  -0.381  0.00  0.00    +0.000 C 
ENDROOT
BRANCH   1   6
ATOM      3  C   UNL     1      -1.306  -0.058   0.095  0.00  0.00    +0.000 A 
ATOM      4  C   UNL     1      -0.666   1.180   0.032  0.00  0.00    +0.000 A 
ATOM      5  C   UNL     1       0.723   1.242  -0.089  0.00  0.00    +0.000 A 
ATOM      6  C   UNL     1       1.473   0.065  -0.148  0.00  0.00    +0.000 A 
ATOM      7  C   UNL     1       0.832  -1.174  -0.084  0.00  0.00    +0.000 A 
ATOM      8  C   UNL     1      -0.558  -1.234   0.037  0.00  0.00    +0.000 A 
ENDBRANCH   1   6
BRANCH   2   9
ATOM      9  C   UNL     1       5.507   0.359  -0.511  0.00  0.00    +0.000 A 
ATOM     10  C   UNL     1       6.175   1.566  -0.575  0.00  0.00    +0.000 A 
ATOM     11  S   UNL     1       7.868   1.340  -0.731  0.00  0.00    +0.000 S 
ATOM     12  C   UNL     1       7.711  -0.362  -0.713  0.00  0.00    +0.000 A 
ATOM     13  C   UNL     1       6.396  -0.754  -0.591  0.00  0.00    +0.000 A 
BRANCH  10  14
ATOM     14  C   UNL     1       5.662   2.919  -0.531  0.00  0.00    +0.000 C 
ATOM     15  O   UNL     1       4.479   3.239  -0.422  0.00  0.00    +0.000 OA
ENDBRANCH  10  14
ENDBRANCH   2   9
TORSDOF 3
