MODEL 1
REMARK VINA RESULT:      -4.9      0.000      0.000
REMARK  Name = *****
REMARK  3 active torsions:
REMARK  status: ('A' for Active; 'I' for Inactive)
REMARK    1  A    between atoms: C_4  and  C_7
REMARK    2  A    between atoms: C_7  and  C_16
REMARK    3  A    between atoms: C_8  and  C_9
REMARK                            x       y       z     vdW  Elec       q    Type
REMARK                         _______ _______ _______ _____ _____    ______ ____
ROOT
ATOM      1  C   UNL     1     103.038 125.734  81.755  0.00  0.00    +0.000 C 
ATOM      2  C   UNL     1     102.045 125.769  82.669  0.00  0.00    +0.000 C 
ENDROOT
BRANCH   2   3
ATOM      3  C   UNL     1     101.117 126.886  82.873  0.00  0.00    +0.000 A 
ATOM      4  C   UNL     1     101.522 128.051  83.533  0.00  0.00    +0.000 A 
ATOM      5  C   UNL     1     100.609 129.085  83.722  0.00  0.00    +0.000 A 
ATOM      6  C   UNL     1      99.299 128.981  83.268  0.00  0.00    +0.000 A 
ATOM      7  C   UNL     1      98.889 127.820  82.616  0.00  0.00    +0.000 A 
ATOM      8  C   UNL     1      99.795 126.774  82.421  0.00  0.00    +0.000 A 
ATOM      9  F   UNL     1     100.999 130.197  84.359  0.00  0.00    +0.000 F 
ENDBRANCH   2   3
BRANCH   1  13
ATOM     10  C   UNL     1     105.463 122.207  81.504  0.00  0.00    +0.000 A 
ATOM     11  C   UNL     1     104.929 122.603  82.729  0.00  0.00    +0.000 A 
ATOM     12  C   UNL     1     104.140 123.752  82.811  0.00  0.00    +0.000 A 
ATOM     13  C   UNL     1     103.879 124.520  81.666  0.00  0.00    +0.000 A 
ATOM     14  C   UNL     1     104.419 124.107  80.438  0.00  0.00    +0.000 A 
ATOM     15  C   UNL     1     105.207 122.958  80.359  0.00  0.00    +0.000 A 
ENDBRANCH   1  13
BRANCH   1  16
ATOM     16  C   UNL     1     103.277 126.808  80.840  0.00  0.00    +0.000 C 
ATOM     17  N   UNL     1     103.469 127.671  80.089  0.00  0.00    +0.000 NA
ENDBRANCH   1  16
TORSDOF 3
ENDMDL
