MODEL 1
REMARK VINA RESULT:      -4.1      0.000      0.000
REMARK  Name = *****
REMARK  3 active torsions:
REMARK  status: ('A' for Active; 'I' for Inactive)
REMARK    1  A    between atoms: C_6  and  C_7
REMARK    2  A    between atoms: C_7  and  C_8
REMARK    3  A    between atoms: C_8  and  C_9
REMARK                            x       y       z     vdW  Elec       q    Type
REMARK                         _______ _______ _______ _____ _____    ______ ____
ROOT
ATOM      1  C   UNL     1      87.949  70.157  88.233  0.00  0.00    +0.000 C 
ENDROOT
BRANCH   1   7
ATOM      2  C   UNL     1      86.565  71.679  85.207  0.00  0.00    +0.000 C 
ATOM      3  C   UNL     1      85.706  70.451  85.377  0.00  0.00    +0.000 C 
ATOM      4  C   UNL     1      86.017  71.324  86.548  0.00  0.00    +0.000 C 
ATOM      5  C   UNL     1      85.033  72.116  87.333  0.00  0.00    +0.000 C 
ATOM      6  C   UNL     1      85.830  71.683  88.565  0.00  0.00    +0.000 C 
ATOM      7  C   UNL     1      86.730  70.980  87.834  0.00  0.00    +0.000 C 
ENDBRANCH   1   7
BRANCH   1   8
ATOM      8  C   UNL     1      89.271  70.661  87.709  0.00  0.00    +0.000 C 
BRANCH   8   9
ATOM      9  C   UNL     1      89.611  70.232  86.288  0.00  0.00    +0.000 C 
ATOM     10  C   UNL     1      90.056  70.860  85.174  0.00  0.00    +0.000 C 
ATOM     11  C   UNL     1      90.054  69.570  84.345  0.00  0.00    +0.000 C 
ATOM     12  C   UNL     1      89.567  68.902  85.579  0.00  0.00    +0.000 C 
ATOM     13  C   UNL     1      88.541  67.824  85.670  0.00  0.00    +0.000 C 
ATOM     14  C   UNL     1      89.967  67.557  86.086  0.00  0.00    +0.000 C 
ENDBRANCH   8   9
ENDBRANCH   1   8
TORSDOF 3
ENDMDL
