MODEL 1
REMARK VINA RESULT:      -4.7      0.000      0.000
REMARK  Name = *****
REMARK  3 active torsions:
REMARK  status: ('A' for Active; 'I' for Inactive)
REMARK    1  A    between atoms: C_4  and  C_7
REMARK    2  A    between atoms: C_8  and  C_9
REMARK    3  A    between atoms: C_14  and  C_15
REMARK                            x       y       z     vdW  Elec       q    Type
REMARK                         _______ _______ _______ _____ _____    ______ ____
ROOT
ATOM      1  C   UNL     1     102.872 125.990  81.258  0.00  0.00    +0.000 C 
ATOM      2  C   UNL     1     102.231 125.957  82.437  0.00  0.00    +0.000 C 
ENDROOT
BRANCH   1   6
ATOM      3  C   UNL     1     105.863 123.133  80.161  0.00  0.00    +0.000 A 
ATOM      4  C   UNL     1     105.705 124.287  79.396  0.00  0.00    +0.000 A 
ATOM      5  C   UNL     1     104.728 125.226  79.737  0.00  0.00    +0.000 A 
ATOM      6  C   UNL     1     103.891 125.015  80.841  0.00  0.00    +0.000 A 
ATOM      7  C   UNL     1     104.071 123.858  81.611  0.00  0.00    +0.000 A 
ATOM      8  C   UNL     1     105.048 122.920  81.270  0.00  0.00    +0.000 A 
ENDBRANCH   1   6
BRANCH   2   9
ATOM      9  C   UNL     1     101.218 126.958  82.791  0.00  0.00    +0.000 A 
ATOM     10  C   UNL     1      99.897 126.755  82.361  0.00  0.00    +0.000 A 
ATOM     11  C   UNL     1      98.902 127.686  82.656  0.00  0.00    +0.000 A 
ATOM     12  C   UNL     1      99.218 128.831  83.382  0.00  0.00    +0.000 A 
ATOM     13  C   UNL     1     100.527 129.042  83.816  0.00  0.00    +0.000 A 
ATOM     14  C   UNL     1     101.542 128.108  83.537  0.00  0.00    +0.000 A 
BRANCH  14  15
ATOM     15  C   UNL     1     102.939 128.382  84.026  0.00  0.00    +0.000 C 
ATOM     16 CL   UNL     1     103.924 129.111  82.740  0.00  0.00    +0.000 Cl
ENDBRANCH  14  15
ENDBRANCH   2   9
TORSDOF 3
ENDMDL
