MODEL 1
REMARK VINA RESULT:      -4.2      0.000      0.000
REMARK  Name = *****
REMARK  1 active torsions:
REMARK  status: ('A' for Active; 'I' for Inactive)
REMARK    1  A    between atoms: C_8  and  C_10
REMARK                            x       y       z     vdW  Elec       q    Type
REMARK                         _______ _______ _______ _____ _____    ______ ____
ROOT
ATOM      1  C   UNL     1      88.896  68.669  86.951  0.00  0.00    +0.000 A 
ATOM      2  C   UNL     1      89.957  67.994  86.341  0.00  0.00    +0.000 A 
ATOM      3  C   UNL     1      89.933  66.602  86.232  0.00  0.00    +0.000 A 
ATOM      4  C   UNL     1      88.847  65.892  86.739  0.00  0.00    +0.000 A 
ATOM      5  C   UNL     1      87.788  66.567  87.348  0.00  0.00    +0.000 A 
ATOM      6  C   UNL     1      87.808  67.956  87.454  0.00  0.00    +0.000 A 
ATOM      7  S   UNL     1      86.439  65.583  87.943  0.00  0.00    +0.000 S 
ATOM      8  C   UNL     1      87.274  63.952  87.752  0.00  0.00    +0.000 C 
ATOM      9  S   UNL     1      88.728  64.127  86.635  0.00  0.00    +0.000 S 
ENDROOT
BRANCH   8  10
ATOM     10  C   UNL     1      87.685  63.269  89.084  0.00  0.00    +0.000 C 
ATOM     11  C   UNL     1      86.849  63.701  90.274  0.00  0.00    +0.000 C 
ATOM     12  C   UNL     1      87.647  64.151  91.256  0.00  0.00    +0.000 C 
ATOM     13  C   UNL     1      89.023  64.061  90.837  0.00  0.00    +0.000 C 
ATOM     14  C   UNL     1      89.082  63.557  89.596  0.00  0.00    +0.000 C 
ENDBRANCH   8  10
TORSDOF 1
ENDMDL
