REMARK  Name = *****
REMARK  3 active torsions:
REMARK  status: ('A' for Active; 'I' for Inactive)
REMARK    1  A    between atoms: C_5  and  C_7
REMARK    2  A    between atoms: C_7  and  C_15
REMARK    3  A    between atoms: C_8  and  C_9
REMARK                            x       y       z     vdW  Elec       q    Type
REMARK                         _______ _______ _______ _____ _____    ______ ____
ROOT
ATOM      1  C   UNL     1      -0.539  -2.459  -0.385  0.00  0.00    +0.000 C 
ATOM      2  C   UNL     1      -0.068  -3.594   0.169  0.00  0.00    +0.000 C 
ENDROOT
BRANCH   1   7
ATOM      3  C   UNL     1       0.531   0.780   1.221  0.00  0.00    +0.000 A 
ATOM      4  C   UNL     1       1.576   1.186   0.393  0.00  0.00    +0.000 A 
ATOM      5  C   UNL     1       1.942   0.404  -0.702  0.00  0.00    +0.000 A 
ATOM      6  C   UNL     1       1.262  -0.788  -0.973  0.00  0.00    +0.000 A 
ATOM      7  C   UNL     1       0.207  -1.208  -0.145  0.00  0.00    +0.000 A 
ATOM      8  C   UNL     1      -0.150  -0.410   0.955  0.00  0.00    +0.000 A 
ATOM      9 CL   UNL     1       1.767  -1.711  -2.345  0.00  0.00    +0.000 Cl
ENDBRANCH   1   7
BRANCH   2  10
ATOM     10  C   UNL     1      -0.658  -4.933   0.050  0.00  0.00    +0.000 A 
ATOM     11  C   UNL     1      -0.910  -5.690   1.193  0.00  0.00    +0.000 A 
ATOM     12  N   UNL     1      -1.422  -6.943   1.184  0.00  0.00    +0.000 NA
ATOM     13  C   UNL     1      -1.694  -7.475  -0.027  0.00  0.00    +0.000 A 
ATOM     14  C   UNL     1      -1.466  -6.817  -1.223  0.00  0.00    +0.000 A 
ATOM     15  C   UNL     1      -0.933  -5.530  -1.182  0.00  0.00    +0.000 A 
ENDBRANCH   2  10
BRANCH   1  16
ATOM     16  C   UNL     1      -1.731  -2.394  -1.170  0.00  0.00    +0.000 C 
ATOM     17  N   UNL     1      -2.698  -2.333  -1.809  0.00  0.00    +0.000 NA
ENDBRANCH   1  16
TORSDOF 3
