MODEL 1
REMARK VINA RESULT:      -4.7      0.000      0.000
REMARK  Name = *****
REMARK  5 active torsions:
REMARK  status: ('A' for Active; 'I' for Inactive)
REMARK    1  A    between atoms: C_1  and  C_2
REMARK    2  A    between atoms: C_2  and  O_4
REMARK    3  A    between atoms: O_4  and  C_5
REMARK    4  A    between atoms: C_5  and  C_13
REMARK    5  A    between atoms: C_6  and  C_7
REMARK                            x       y       z     vdW  Elec       q    Type
REMARK                         _______ _______ _______ _____ _____    ______ ____
ROOT
ATOM      1  C   UNL     1     102.684 126.027  81.824  0.00  0.00    +0.000 C 
ATOM      2  C   UNL     1     101.720 126.003  82.762  0.00  0.00    +0.000 C 
ENDROOT
BRANCH   2   3
ATOM      3  C   UNL     1     100.801 127.119  82.994  0.00  0.00    +0.000 A 
ATOM      4  C   UNL     1      99.494 127.070  82.498  0.00  0.00    +0.000 A 
ATOM      5  C   UNL     1      98.623 128.139  82.708  0.00  0.00    +0.000 A 
ATOM      6  C   UNL     1      99.053 129.261  83.415  0.00  0.00    +0.000 A 
ATOM      7  C   UNL     1     100.356 129.316  83.912  0.00  0.00    +0.000 A 
ATOM      8  C   UNL     1     101.229 128.246  83.702  0.00  0.00    +0.000 A 
ENDBRANCH   2   3
BRANCH   1   9
ATOM      9  C   UNL     1     103.639 124.918  81.645  0.00  0.00    +0.000 A 
ATOM     10  C   UNL     1     104.151 124.601  80.380  0.00  0.00    +0.000 A 
ATOM     11  C   UNL     1     105.063 123.554  80.223  0.00  0.00    +0.000 A 
ATOM     12  C   UNL     1     105.476 122.818  81.332  0.00  0.00    +0.000 A 
ATOM     13  C   UNL     1     104.981 123.128  82.597  0.00  0.00    +0.000 A 
ATOM     14  C   UNL     1     104.070 124.176  82.754  0.00  0.00    +0.000 A 
ENDBRANCH   1   9
BRANCH   1  15
ATOM     15  O   UNL     1     102.927 127.158  81.028  0.00  0.00    +0.000 OA
BRANCH  15  17
ATOM     16  C   UNL     1     104.618 128.573  80.251  0.00  0.00    +0.000 C 
ATOM     17  C   UNL     1     104.025 127.873  81.438  0.00  0.00    +0.000 C 
ATOM     18  O   UNL     1     104.476 127.960  82.574  0.00  0.00    +0.000 OA
ENDBRANCH  15  17
ENDBRANCH   1  15
TORSDOF 4
ENDMDL
