REMARK  Name = *****
REMARK  2 active torsions:
REMARK  status: ('A' for Active; 'I' for Inactive)
REMARK    1  A    between atoms: C_1  and  C_2
REMARK    2  A    between atoms: C_9  and  C_11
REMARK                            x       y       z     vdW  Elec       q    Type
REMARK                         _______ _______ _______ _____ _____    ______ ____
ROOT
ATOM      1  C   UNL     1       1.010  -0.074  -0.105  0.00  0.00    +0.000 C 
ATOM      2  C   UNL     1       2.511  -0.012  -0.070  0.00  0.00    +0.000 A 
ATOM      3  C   UNL     1       3.269  -1.192  -0.147  0.00  0.00    +0.000 A 
ATOM      4  C   UNL     1       4.650  -1.034  -0.118  0.00  0.00    +0.000 A 
ATOM      5  C   UNL     1       5.305   0.181  -0.021  0.00  0.00    +0.000 A 
ATOM      6  C   UNL     1       4.547   1.355   0.050  0.00  0.00    +0.000 A 
ATOM      7  C   UNL     1       3.147   1.241   0.022  0.00  0.00    +0.000 A 
ATOM      8  N   UNL     1       6.662  -0.020  -0.016  0.00  0.00    +0.000 NA
ATOM      9  C   UNL     1       6.786  -1.333  -0.111  0.00  0.00    +0.000 A 
ATOM     10  O   UNL     1       5.596  -2.015  -0.177  0.00  0.00    +0.000 OA
ENDROOT
BRANCH   9  11
ATOM     11  C   UNL     1       8.007  -2.137  -0.153  0.00  0.00    +0.000 A 
ATOM     12  C   UNL     1       9.257  -1.503  -0.048  0.00  0.00    +0.000 A 
ATOM     13  C   UNL     1      10.441  -2.244  -0.087  0.00  0.00    +0.000 A 
ATOM     14  C   UNL     1      10.379  -3.624  -0.232  0.00  0.00    +0.000 A 
ATOM     15  C   UNL     1       9.156  -4.276  -0.339  0.00  0.00    +0.000 A 
ATOM     16  C   UNL     1       7.972  -3.534  -0.299  0.00  0.00    +0.000 A 
ATOM     17  F   UNL     1      11.512  -4.336  -0.271  0.00  0.00    +0.000 F 
ENDBRANCH   9  11
TORSDOF 1
