MODEL 1
REMARK VINA RESULT:      -4.4      0.000      0.000
REMARK  Name = *****
REMARK  2 active torsions:
REMARK  status: ('A' for Active; 'I' for Inactive)
REMARK    1  A    between atoms: C_3  and  C_6
REMARK    2  A    between atoms: C_7  and  C_8
REMARK                            x       y       z     vdW  Elec       q    Type
REMARK                         _______ _______ _______ _____ _____    ______ ____
ROOT
ATOM      1  C   UNL     1     103.007 125.705  81.700  0.00  0.00    +0.000 A 
ATOM      2  C   UNL     1     103.427 124.704  82.588  0.00  0.00    +0.000 A 
ATOM      3  C   UNL     1     104.373 123.750  82.193  0.00  0.00    +0.000 A 
ATOM      4  C   UNL     1     104.898 123.781  80.898  0.00  0.00    +0.000 A 
ATOM      5  C   UNL     1     104.469 124.763  80.003  0.00  0.00    +0.000 A 
ATOM      6  C   UNL     1     103.526 125.716  80.400  0.00  0.00    +0.000 A 
ATOM      7 CL   UNL     1     106.065 122.637  80.340  0.00  0.00    +0.000 Cl
ATOM      8 CL   UNL     1     104.845 122.560  83.355  0.00  0.00    +0.000 Cl
ENDROOT
BRANCH   1  10
ATOM      9  C   UNL     1     100.681 126.394  82.257  0.00  0.00    +0.000 C 
ATOM     10  C   UNL     1     101.993 126.667  82.149  0.00  0.00    +0.000 C 
BRANCH   9  13
ATOM     11  C   UNL     1      98.072 127.866  84.402  0.00  0.00    +0.000 C 
ATOM     12  C   UNL     1      99.512 127.456  84.219  0.00  0.00    +0.000 C 
ATOM     13  C   UNL     1      99.621 127.362  82.703  0.00  0.00    +0.000 C 
ATOM     14  O   UNL     1      98.318 126.990  82.222  0.00  0.00    +0.000 OA
ATOM     15  C   UNL     1      97.389 127.074  83.311  0.00  0.00    +0.000 C 
ENDBRANCH   9  13
ENDBRANCH   1  10
TORSDOF 2
ENDMDL
