MODEL 1
REMARK VINA RESULT:      -4.8      0.000      0.000
REMARK  Name = *****
REMARK  3 active torsions:
REMARK  status: ('A' for Active; 'I' for Inactive)
REMARK    1  A    between atoms: C_4  and  C_7
REMARK    2  A    between atoms: C_8  and  C_9
REMARK    3  A    between atoms: C_14  and  C_15
REMARK                            x       y       z     vdW  Elec       q    Type
REMARK                         _______ _______ _______ _____ _____    ______ ____
ROOT
ATOM      1  C   UNL     1     102.477 126.568  82.697  0.00  0.00    +0.000 C 
ATOM      2  C   UNL     1     101.858 127.518  83.095  0.00  0.00    +0.000 C 
ENDROOT
BRANCH   1   6
ATOM      3  C   UNL     1     104.726 123.278  81.301  0.00  0.00    +0.000 A 
ATOM      4  C   UNL     1     104.292 124.255  80.405  0.00  0.00    +0.000 A 
ATOM      5  C   UNL     1     103.548 125.344  80.864  0.00  0.00    +0.000 A 
ATOM      6  C   UNL     1     103.238 125.455  82.223  0.00  0.00    +0.000 A 
ATOM      7  C   UNL     1     103.673 124.475  83.118  0.00  0.00    +0.000 A 
ATOM      8  C   UNL     1     104.416 123.387  82.656  0.00  0.00    +0.000 A 
ENDBRANCH   1   6
BRANCH   2   9
ATOM      9  C   UNL     1     101.141 128.666  83.567  0.00  0.00    +0.000 A 
ATOM     10  C   UNL     1     101.852 129.677  84.227  0.00  0.00    +0.000 A 
ATOM     11  C   UNL     1     101.191 130.810  84.703  0.00  0.00    +0.000 A 
ATOM     12  C   UNL     1      99.815 130.943  84.521  0.00  0.00    +0.000 A 
ATOM     13  C   UNL     1      99.100 129.940  83.864  0.00  0.00    +0.000 A 
ATOM     14  C   UNL     1      99.757 128.798  83.384  0.00  0.00    +0.000 A 
BRANCH  14  15
ATOM     15  C   UNL     1      98.989 127.786  82.715  0.00  0.00    +0.000 C 
ATOM     16  N   UNL     1      98.348 126.980  82.179  0.00  0.00    +0.000 NA
ENDBRANCH  14  15
ENDBRANCH   2   9
TORSDOF 3
ENDMDL
