MODEL 1
REMARK VINA RESULT:      -5.0      0.000      0.000
REMARK  Name = *****
REMARK  2 active torsions:
REMARK  status: ('A' for Active; 'I' for Inactive)
REMARK    1  A    between atoms: C_1  and  C_11
REMARK    2  A    between atoms: C_2  and  C_5
REMARK                            x       y       z     vdW  Elec       q    Type
REMARK                         _______ _______ _______ _____ _____    ______ ____
ROOT
ATOM      1  C   UNL     1     102.099 126.005  81.671  0.00  0.00    +0.000 C 
ATOM      2  C   UNL     1     103.558 125.640  82.226  0.00  0.00    +0.000 C 
ATOM      3  C   UNL     1     103.310 126.455  81.100  0.00  0.00    +0.000 C 
ATOM      4  C   UNL     1     103.856 127.171  80.139  0.00  0.00    +0.000 C 
ENDROOT
BRANCH   2   5
ATOM      5  C   UNL     1     104.071 124.238  82.023  0.00  0.00    +0.000 A 
ATOM      6  C   UNL     1     104.475 123.774  80.758  0.00  0.00    +0.000 A 
ATOM      7  C   UNL     1     104.972 122.479  80.579  0.00  0.00    +0.000 A 
ATOM      8  C   UNL     1     105.084 121.620  81.668  0.00  0.00    +0.000 A 
ATOM      9  C   UNL     1     104.704 122.056  82.933  0.00  0.00    +0.000 A 
ATOM     10  C   UNL     1     104.208 123.351  83.106  0.00  0.00    +0.000 A 
ENDBRANCH   2   5
BRANCH   1  11
ATOM     11  C   UNL     1     101.253 126.971  82.460  0.00  0.00    +0.000 A 
ATOM     12  C   UNL     1     101.815 128.077  83.121  0.00  0.00    +0.000 A 
ATOM     13  C   UNL     1     101.024 128.983  83.833  0.00  0.00    +0.000 A 
ATOM     14  C   UNL     1      99.645 128.806  83.891  0.00  0.00    +0.000 A 
ATOM     15  C   UNL     1      99.059 127.728  83.236  0.00  0.00    +0.000 A 
ATOM     16  C   UNL     1      99.857 126.825  82.527  0.00  0.00    +0.000 A 
ENDBRANCH   1  11
TORSDOF 2
ENDMDL
