MODEL 1
REMARK VINA RESULT:      -4.7      0.000      0.000
REMARK  Name = *****
REMARK  2 active torsions:
REMARK  status: ('A' for Active; 'I' for Inactive)
REMARK    1  A    between atoms: C_1  and  C_2
REMARK    2  A    between atoms: C_2  and  C_7
REMARK                            x       y       z     vdW  Elec       q    Type
REMARK                         _______ _______ _______ _____ _____    ______ ____
ROOT
ATOM      1  C   UNL     1      87.264  70.883  86.263  0.00  0.00    +0.000 A 
ATOM      2  C   UNL     1      86.636  71.138  87.503  0.00  0.00    +0.000 A 
ATOM      3  C   UNL     1      85.406  71.817  87.600  0.00  0.00    +0.000 A 
ATOM      4  C   UNL     1      84.808  72.081  88.843  0.00  0.00    +0.000 A 
ATOM      5  C   UNL     1      83.587  72.753  88.921  0.00  0.00    +0.000 A 
ATOM      6  C   UNL     1      82.946  73.167  87.758  0.00  0.00    +0.000 A 
ATOM      7  C   UNL     1      83.528  72.912  86.514  0.00  0.00    +0.000 A 
ATOM      8  C   UNL     1      84.758  72.242  86.422  0.00  0.00    +0.000 A 
ATOM      9  C   UNL     1      85.359  71.978  85.185  0.00  0.00    +0.000 A 
ATOM     10  C   UNL     1      86.588  71.311  85.108  0.00  0.00    +0.000 A 
ENDROOT
BRANCH   1  12
ATOM     11  C   UNL     1      89.343  69.996  87.533  0.00  0.00    +0.000 C 
ATOM     12  C   UNL     1      88.592  70.121  86.194  0.00  0.00    +0.000 C 
ATOM     13  S   UNL     1      89.740  70.983  85.026  0.00  0.00    +0.000 S 
ATOM     14  C   UNL     1      89.829  69.677  83.778  0.00  0.00    +0.000 C 
ATOM     15  C   UNL     1      89.774  68.341  84.487  0.00  0.00    +0.000 C 
ATOM     16  S   UNL     1      88.353  68.381  85.604  0.00  0.00    +0.000 S 
ENDBRANCH   1  12
TORSDOF 1
ENDMDL
