MODEL 1
REMARK VINA RESULT:      -4.8      0.000      0.000
REMARK  Name = *****
REMARK  2 active torsions:
REMARK  status: ('A' for Active; 'I' for Inactive)
REMARK    1  A    between atoms: C_1  and  C_2
REMARK    2  A    between atoms: C_8  and  C_11
REMARK                            x       y       z     vdW  Elec       q    Type
REMARK                         _______ _______ _______ _____ _____    ______ ____
ROOT
ATOM      1  C   UNL     1     105.995 122.871  80.040  0.00  0.00    +0.000 C 
ATOM      2  C   UNL     1     105.121 123.562  81.006  0.00  0.00    +0.000 A 
ATOM      3  N   UNL     1     105.094 123.457  82.321  0.00  0.00    +0.000 NA
ATOM      4  C   UNL     1     104.093 124.318  82.693  0.00  0.00    +0.000 A 
ATOM      5  C   UNL     1     103.545 124.915  81.571  0.00  0.00    +0.000 A 
ATOM      6  O   UNL     1     104.203 124.432  80.477  0.00  0.00    +0.000 OA
ATOM      7  C   UNL     1     102.508 125.841  81.590  0.00  0.00    +0.000 A 
ATOM      8  C   UNL     1     101.989 126.184  82.855  0.00  0.00    +0.000 A 
ATOM      9  C   UNL     1     102.535 125.586  84.013  0.00  0.00    +0.000 A 
ATOM     10  C   UNL     1     103.585 124.651  83.951  0.00  0.00    +0.000 A 
ENDROOT
BRANCH   8  11
ATOM     11  C   UNL     1     100.890 127.159  82.967  0.00  0.00    +0.000 A 
ATOM     12  C   UNL     1      99.604 126.857  82.488  0.00  0.00    +0.000 A 
ATOM     13  C   UNL     1      98.560 127.781  82.593  0.00  0.00    +0.000 A 
ATOM     14  C   UNL     1      98.786 129.024  83.179  0.00  0.00    +0.000 A 
ATOM     15  C   UNL     1     100.054 129.344  83.658  0.00  0.00    +0.000 A 
ATOM     16  C   UNL     1     101.095 128.419  83.554  0.00  0.00    +0.000 A 
ENDBRANCH   8  11
TORSDOF 1
ENDMDL
