MODEL 1
REMARK VINA RESULT:      -4.9      0.000      0.000
REMARK  Name = *****
REMARK  2 active torsions:
REMARK  status: ('A' for Active; 'I' for Inactive)
REMARK    1  A    between atoms: C_5  and  C_7
REMARK    2  A    between atoms: C_7  and  N_8
REMARK                            x       y       z     vdW  Elec       q    Type
REMARK                         _______ _______ _______ _____ _____    ______ ____
ROOT
ATOM      1  N   UNL     1     103.378 126.942  82.116  0.00  0.00    +0.000 N 
ATOM      2  C   UNL     1     103.848 125.700  81.769  0.00  0.00    +0.000 A 
ATOM      3  C   UNL     1     104.299 125.892  80.467  0.00  0.00    +0.000 A 
ATOM      4  C   UNL     1     104.869 124.820  79.764  0.00  0.00    +0.000 A 
ATOM      5  C   UNL     1     104.963 123.576  80.402  0.00  0.00    +0.000 A 
ATOM      6  C   UNL     1     104.500 123.410  81.708  0.00  0.00    +0.000 A 
ATOM      7  C   UNL     1     103.931 124.467  82.428  0.00  0.00    +0.000 A 
ATOM      8 CL   UNL     1     104.630 121.864  82.458  0.00  0.00    +0.000 Cl
ATOM      9  N   UNL     1     104.080 127.187  80.088  0.00  0.00    +0.000 NA
ATOM     10  N   UNL     1     103.501 127.821  81.099  0.00  0.00    +0.000 NA
ENDROOT
BRANCH   1  11
ATOM     11  C   UNL     1     102.755 127.361  83.362  0.00  0.00    +0.000 C 
BRANCH  11  16
ATOM     12  C   UNL     1      99.097 126.882  82.407  0.00  0.00    +0.000 A 
ATOM     13  C   UNL     1      98.516 128.074  82.827  0.00  0.00    +0.000 A 
ATOM     14  C   UNL     1      99.305 129.052  83.430  0.00  0.00    +0.000 A 
ATOM     15  C   UNL     1     100.677 128.842  83.614  0.00  0.00    +0.000 A 
ATOM     16  C   UNL     1     101.282 127.649  83.186  0.00  0.00    +0.000 A 
ATOM     17  C   UNL     1     100.464 126.670  82.588  0.00  0.00    +0.000 A 
ATOM     18 CL   UNL     1     101.566 130.101  84.394  0.00  0.00    +0.000 Cl
ENDBRANCH  11  16
ENDBRANCH   1  11
TORSDOF 2
ENDMDL
