MODEL 1
REMARK VINA RESULT:      -4.8      0.000      0.000
REMARK  Name = *****
REMARK  5 active torsions:
REMARK  status: ('A' for Active; 'I' for Inactive)
REMARK    1  A    between atoms: C_1  and  O_2
REMARK    2  A    between atoms: O_2  and  C_3
REMARK    3  A    between atoms: C_3  and  C_5
REMARK    4  A    between atoms: C_8  and  C_11
REMARK    5  A    between atoms: C_12  and  C_13
REMARK                            x       y       z     vdW  Elec       q    Type
REMARK                         _______ _______ _______ _____ _____    ______ ____
ROOT
ATOM      1  C   UNL     1     105.959 122.554  81.095  0.00  0.00    +0.000 A 
ATOM      2  C   UNL     1     105.460 123.426  80.118  0.00  0.00    +0.000 A 
ATOM      3  C   UNL     1     104.454 124.343  80.441  0.00  0.00    +0.000 A 
ATOM      4  C   UNL     1     103.943 124.395  81.740  0.00  0.00    +0.000 A 
ATOM      5  C   UNL     1     104.438 123.530  82.718  0.00  0.00    +0.000 A 
ATOM      6  C   UNL     1     105.443 122.612  82.397  0.00  0.00    +0.000 A 
ENDROOT
BRANCH   1   7
ATOM      7  C   UNL     1     107.027 121.556  80.807  0.00  0.00    +0.000 C 
ATOM      8  O   UNL     1     107.960 121.769  80.049  0.00  0.00    +0.000 OA
BRANCH   7  10
ATOM      9  C   UNL     1     107.751 119.373  81.208  0.00  0.00    +0.000 C 
ATOM     10  O   UNL     1     106.811 120.409  81.498  0.00  0.00    +0.000 OA
ENDBRANCH   7  10
ENDBRANCH   1   7
BRANCH   4  11
ATOM     11  C   UNL     1     102.912 125.330  82.066  0.00  0.00    +0.000 C 
ATOM     12  C   UNL     1     102.046 126.116  82.343  0.00  0.00    +0.000 C 
BRANCH  12  13
ATOM     13  C   UNL     1     101.016 127.051  82.676  0.00  0.00    +0.000 A 
ATOM     14  C   UNL     1     101.338 128.246  83.323  0.00  0.00    +0.000 A 
ATOM     15  C   UNL     1     100.332 129.157  83.650  0.00  0.00    +0.000 A 
ATOM     16  C   UNL     1      99.003 128.874  83.331  0.00  0.00    +0.000 A 
ATOM     17  C   UNL     1      98.679 127.681  82.686  0.00  0.00    +0.000 A 
ATOM     18  C   UNL     1      99.685 126.769  82.358  0.00  0.00    +0.000 A 
ENDBRANCH  12  13
ENDBRANCH   4  11
TORSDOF 4
ENDMDL
