MODEL 1
REMARK VINA RESULT:      -3.8      0.000      0.000
REMARK  Name = *****
REMARK  4 active torsions:
REMARK  status: ('A' for Active; 'I' for Inactive)
REMARK    1  A    between atoms: C_4  and  C_7
REMARK    2  A    between atoms: C_7  and  N_8
REMARK    3  A    between atoms: N_8  and  C_9
REMARK    4  A    between atoms: C_9  and  C_10
REMARK                            x       y       z     vdW  Elec       q    Type
REMARK                         _______ _______ _______ _____ _____    ______ ____
ROOT
ATOM      1  C   UNL     1     102.782 127.493  83.189  0.00  0.00    +0.000 C 
ENDROOT
BRANCH   1   5
ATOM      2  C   UNL     1      98.509 127.984  82.843  0.00  0.00    +0.000 A 
ATOM      3  C   UNL     1      99.118 126.826  82.359  0.00  0.00    +0.000 A 
ATOM      4  C   UNL     1     100.500 126.665  82.468  0.00  0.00    +0.000 A 
ATOM      5  C   UNL     1     101.287 127.663  83.058  0.00  0.00    +0.000 A 
ATOM      6  C   UNL     1     100.664 128.821  83.544  0.00  0.00    +0.000 A 
ATOM      7  C   UNL     1      99.281 128.980  83.435  0.00  0.00    +0.000 A 
ENDBRANCH   1   5
BRANCH   1   8
ATOM      8  N   UNL     1     103.545 128.317  82.241  0.00  0.00    +0.000 NA
BRANCH   8   9
ATOM      9  C   UNL     1     103.626 127.800  81.061  0.00  0.00    +0.000 C 
BRANCH   9  10
ATOM     10  C   UNL     1     104.180 126.481  80.877  0.00  0.00    +0.000 A 
ATOM     11  C   UNL     1     103.556 125.329  80.441  0.00  0.00    +0.000 A 
ATOM     12  C   UNL     1     104.446 124.218  80.388  0.00  0.00    +0.000 A 
ATOM     13  C   UNL     1     105.720 124.561  80.784  0.00  0.00    +0.000 A 
ATOM     14  S   UNL     1     105.834 126.212  81.219  0.00  0.00    +0.000 S 
ENDBRANCH   9  10
ENDBRANCH   8   9
ENDBRANCH   1   8
TORSDOF 4
ENDMDL
