MODEL 1
REMARK VINA RESULT:      -3.8      0.000      0.000
REMARK  Name = *****
REMARK  3 active torsions:
REMARK  status: ('A' for Active; 'I' for Inactive)
REMARK    1  A    between atoms: C_4  and  C_6
REMARK    2  A    between atoms: C_7  and  C_8
REMARK    3  A    between atoms: C_11  and  C_13
REMARK                            x       y       z     vdW  Elec       q    Type
REMARK                         _______ _______ _______ _____ _____    ______ ____
ROOT
ATOM      1  C   UNL     1     102.685 126.179  81.629  0.00  0.00    +0.000 C 
ATOM      2  C   UNL     1     101.639 125.984  82.450  0.00  0.00    +0.000 C 
ENDROOT
BRANCH   1   6
ATOM      3  C   UNL     1     105.132 123.666  80.298  0.00  0.00    +0.000 A 
ATOM      4  C   UNL     1     105.181 123.220  81.597  0.00  0.00    +0.000 A 
ATOM      5  S   UNL     1     104.159 124.124  82.622  0.00  0.00    +0.000 S 
ATOM      6  C   UNL     1     103.626 125.146  81.331  0.00  0.00    +0.000 A 
ATOM      7  C   UNL     1     104.241 124.771  80.147  0.00  0.00    +0.000 A 
ENDBRANCH   1   6
BRANCH   2   8
ATOM      8  C   UNL     1     100.695 127.014  82.748  0.00  0.00    +0.000 A 
ATOM      9  C   UNL     1      99.334 127.111  82.499  0.00  0.00    +0.000 A 
ATOM     10  C   UNL     1      98.759 128.329  82.972  0.00  0.00    +0.000 A 
ATOM     11  C   UNL     1      99.692 129.141  83.577  0.00  0.00    +0.000 A 
ATOM     12  S   UNL     1     101.242 128.435  83.565  0.00  0.00    +0.000 S 
BRANCH  11  13
ATOM     13  C   UNL     1      99.418 130.421  84.148  0.00  0.00    +0.000 C 
ATOM     14  N   UNL     1      99.201 131.468  84.598  0.00  0.00    +0.000 NA
ENDBRANCH  11  13
ENDBRANCH   2   8
TORSDOF 3
ENDMDL
