MODEL 1
REMARK VINA RESULT:      -4.7      0.000      0.000
REMARK  Name = *****
REMARK  2 active torsions:
REMARK  status: ('A' for Active; 'I' for Inactive)
REMARK    1  A    between atoms: N_3  and  C_10
REMARK    2  A    between atoms: C_10  and  C_11
REMARK                            x       y       z     vdW  Elec       q    Type
REMARK                         _______ _______ _______ _____ _____    ______ ____
ROOT
ATOM      1  C   UNL     1      88.013  66.406  87.548  0.00  0.00    +0.000 C 
ATOM      2  C   UNL     1      87.747  67.876  87.187  0.00  0.00    +0.000 C 
ATOM      3  N   UNL     1      89.033  68.646  86.937  0.00  0.00    +0.000 NA
ATOM      4  C   UNL     1      90.048  68.063  86.381  0.00  0.00    +0.000 C 
ATOM      5  C   UNL     1      90.076  66.643  86.116  0.00  0.00    +0.000 A 
ATOM      6  C   UNL     1      89.086  65.857  86.664  0.00  0.00    +0.000 A 
ATOM      7  S   UNL     1      89.247  64.218  86.274  0.00  0.00    +0.000 S 
ATOM      8  C   UNL     1      90.669  64.531  85.368  0.00  0.00    +0.000 A 
ATOM      9  C   UNL     1      91.009  65.870  85.371  0.00  0.00    +0.000 A 
ENDROOT
BRANCH   3  10
ATOM     10  C   UNL     1      89.045  70.111  87.238  0.00  0.00    +0.000 C 
BRANCH  10  11
ATOM     11  C   UNL     1      87.701  70.764  87.028  0.00  0.00    +0.000 A 
ATOM     12  C   UNL     1      87.282  71.063  85.718  0.00  0.00    +0.000 A 
ATOM     13  C   UNL     1      86.042  71.659  85.481  0.00  0.00    +0.000 A 
ATOM     14  C   UNL     1      85.201  71.970  86.547  0.00  0.00    +0.000 A 
ATOM     15  C   UNL     1      85.602  71.692  87.852  0.00  0.00    +0.000 A 
ATOM     16  C   UNL     1      86.843  71.098  88.092  0.00  0.00    +0.000 A 
ATOM     17 CL   UNL     1      87.277  70.790  89.735  0.00  0.00    +0.000 Cl
ENDBRANCH  10  11
ENDBRANCH   3  10
TORSDOF 2
ENDMDL
