MODEL 1
REMARK VINA RESULT:      -4.6      0.000      0.000
REMARK  Name = *****
REMARK  5 active torsions:
REMARK  status: ('A' for Active; 'I' for Inactive)
REMARK    1  A    between atoms: C_1  and  C_2
REMARK    2  A    between atoms: C_2  and  C_4
REMARK    3  A    between atoms: C_9  and  C_10
REMARK    4  A    between atoms: C_10  and  C_11
REMARK    5  A    between atoms: C_11  and  C_12
REMARK                            x       y       z     vdW  Elec       q    Type
REMARK                         _______ _______ _______ _____ _____    ______ ____
ROOT
ATOM      1  C   UNL     1      85.860  71.641  85.710  0.00  0.00    +0.000 A 
ATOM      2  C   UNL     1      84.737  72.291  85.170  0.00  0.00    +0.000 A 
ATOM      3  C   UNL     1      83.747  72.800  86.010  0.00  0.00    +0.000 A 
ATOM      4  C   UNL     1      83.866  72.660  87.389  0.00  0.00    +0.000 A 
ATOM      5  C   UNL     1      84.976  72.012  87.931  0.00  0.00    +0.000 A 
ATOM      6  C   UNL     1      85.990  71.496  87.105  0.00  0.00    +0.000 A 
ENDROOT
BRANCH   1   8
ATOM      7  C   UNL     1      88.012  72.010  84.357  0.00  0.00    +0.000 C 
ATOM      8  C   UNL     1      86.880  71.104  84.765  0.00  0.00    +0.000 C 
ATOM      9  O   UNL     1      86.778  69.964  84.318  0.00  0.00    +0.000 OA
ENDBRANCH   1   8
BRANCH   6  10
ATOM     10  C   UNL     1      87.168  70.807  87.759  0.00  0.00    +0.000 C 
BRANCH  10  11
ATOM     11  C   UNL     1      86.872  69.335  88.065  0.00  0.00    +0.000 C 
BRANCH  11  12
ATOM     12  C   UNL     1      87.912  68.424  87.458  0.00  0.00    +0.000 A 
ATOM     13  C   UNL     1      87.769  67.030  87.520  0.00  0.00    +0.000 A 
ATOM     14  C   UNL     1      88.746  66.198  86.972  0.00  0.00    +0.000 A 
ATOM     15  C   UNL     1      89.865  66.760  86.368  0.00  0.00    +0.000 A 
ATOM     16  C   UNL     1      90.028  68.138  86.304  0.00  0.00    +0.000 A 
ATOM     17  C   UNL     1      89.052  68.972  86.851  0.00  0.00    +0.000 A 
ATOM     18  F   UNL     1      90.802  65.959  85.845  0.00  0.00    +0.000 F 
ENDBRANCH  11  12
ENDBRANCH  10  11
ENDBRANCH   6  10
TORSDOF 4
ENDMDL
