REMARK  Name = *****
REMARK  4 active torsions:
REMARK  status: ('A' for Active; 'I' for Inactive)
REMARK    1  A    between atoms: C_1  and  O_2
REMARK    2  A    between atoms: O_2  and  C_3
REMARK    3  A    between atoms: C_6  and  C_9
REMARK    4  A    between atoms: C_11  and  C_12
REMARK                            x       y       z     vdW  Elec       q    Type
REMARK                         _______ _______ _______ _____ _____    ______ ____
ROOT
ATOM      1  C   UNL     1       5.137   4.792  -0.709  0.00  0.00    +0.000 C 
ATOM      2  C   UNL     1       5.720   5.674   0.364  0.00  0.00    +0.000 C 
ATOM      3  C   UNL     1       4.407   6.054  -0.270  0.00  0.00    +0.000 C 
ENDROOT
BRANCH   1   7
ATOM      4  C   UNL     1       3.503   0.877   0.245  0.00  0.00    +0.000 A 
ATOM      5  C   UNL     1       2.722   1.826  -0.409  0.00  0.00    +0.000 A 
ATOM      6  C   UNL     1       3.252   3.087  -0.709  0.00  0.00    +0.000 A 
ATOM      7  C   UNL     1       4.566   3.438  -0.360  0.00  0.00    +0.000 A 
ATOM      8  C   UNL     1       5.337   2.466   0.293  0.00  0.00    +0.000 A 
ATOM      9  C   UNL     1       4.813   1.205   0.595  0.00  0.00    +0.000 A 
BRANCH   4  11
ATOM     10  C   UNL     1       1.799  -0.778   0.224  0.00  0.00    +0.000 C 
ATOM     11  O   UNL     1       3.115  -0.387   0.593  0.00  0.00    +0.000 OA
ENDBRANCH   4  11
ENDBRANCH   1   7
BRANCH   3  12
ATOM     12  C   UNL     1       4.323   7.233  -1.211  0.00  0.00    +0.000 A 
ATOM     13  C   UNL     1       3.795   7.095  -2.506  0.00  0.00    +0.000 A 
ATOM     14  C   UNL     1       3.700   8.186  -3.375  0.00  0.00    +0.000 A 
ATOM     15  C   UNL     1       4.127   9.444  -2.960  0.00  0.00    +0.000 A 
ATOM     16  C   UNL     1       4.645   9.610  -1.679  0.00  0.00    +0.000 A 
ATOM     17  C   UNL     1       4.738   8.515  -0.816  0.00  0.00    +0.000 A 
ENDBRANCH   3  12
TORSDOF 3
