MODEL 1
REMARK VINA RESULT:      -3.9      0.000      0.000
REMARK  Name = *****
REMARK  3 active torsions:
REMARK  status: ('A' for Active; 'I' for Inactive)
REMARK    1  A    between atoms: N_4  and  C_7
REMARK    2  A    between atoms: C_7  and  S_9
REMARK    3  A    between atoms: S_9  and  C_10
REMARK                            x       y       z     vdW  Elec       q    Type
REMARK                         _______ _______ _______ _____ _____    ______ ____
ROOT
ATOM      1  C   UNL     1     103.316 125.937  83.378  0.00  0.00    +0.000 C 
ATOM      2  S   UNL     1     103.071 125.588  85.011  0.00  0.00    +0.000 S 
ENDROOT
BRANCH   1   6
ATOM      3  C   UNL     1     104.980 123.263  80.414  0.00  0.00    +0.000 C 
ATOM      4  C   UNL     1     105.285 123.133  81.900  0.00  0.00    +0.000 C 
ATOM      5  C   UNL     1     104.127 123.639  82.757  0.00  0.00    +0.000 C 
ATOM      6  N   UNL     1     103.727 125.011  82.395  0.00  0.00    +0.000 N 
ATOM      7  C   UNL     1     103.442 125.180  80.957  0.00  0.00    +0.000 C 
ATOM      8  C   UNL     1     104.596 124.699  80.082  0.00  0.00    +0.000 C 
ENDBRANCH   1   6
BRANCH   1   9
ATOM      9  S   UNL     1     103.022 127.598  82.854  0.00  0.00    +0.000 S 
BRANCH   9  10
ATOM     10  C   UNL     1     101.248 127.795  82.970  0.00  0.00    +0.000 A 
ATOM     11  C   UNL     1     100.606 128.895  83.549  0.00  0.00    +0.000 A 
ATOM     12  C   UNL     1      99.208 128.967  83.586  0.00  0.00    +0.000 A 
ATOM     13  C   UNL     1      98.439 127.941  83.044  0.00  0.00    +0.000 A 
ATOM     14  C   UNL     1      99.065 126.841  82.465  0.00  0.00    +0.000 A 
ATOM     15  C   UNL     1     100.460 126.769  82.429  0.00  0.00    +0.000 A 
ENDBRANCH   9  10
ENDBRANCH   1   9
TORSDOF 3
ENDMDL
