MODEL 1
REMARK VINA RESULT:      -4.4      0.000      0.000
REMARK  Name = *****
REMARK  4 active torsions:
REMARK  status: ('A' for Active; 'I' for Inactive)
REMARK    1  A    between atoms: C_4  and  C_7
REMARK    2  A    between atoms: C_7  and  N_8
REMARK    3  A    between atoms: N_8  and  C_9
REMARK    4  A    between atoms: C_9  and  C_10
REMARK                            x       y       z     vdW  Elec       q    Type
REMARK                         _______ _______ _______ _____ _____    ______ ____
ROOT
ATOM      1  N   UNL     1     103.121 125.751  83.257  0.00  0.00    +0.000 NA
ENDROOT
BRANCH   1   2
ATOM      2  C   UNL     1     102.001 125.842  82.311  0.00  0.00    +0.000 C 
BRANCH   2   6
ATOM      3  C   UNL     1      99.123 128.903  83.326  0.00  0.00    +0.000 A 
ATOM      4  C   UNL     1     100.466 129.075  83.658  0.00  0.00    +0.000 A 
ATOM      5  C   UNL     1     101.396 128.084  83.343  0.00  0.00    +0.000 A 
ATOM      6  C   UNL     1     100.995 126.902  82.703  0.00  0.00    +0.000 A 
ATOM      7  C   UNL     1      99.643 126.748  82.362  0.00  0.00    +0.000 A 
ATOM      8  C   UNL     1      98.712 127.740  82.676  0.00  0.00    +0.000 A 
ENDBRANCH   2   6
ENDBRANCH   1   2
BRANCH   1   9
ATOM      9  C   UNL     1     104.231 125.358  82.729  0.00  0.00    +0.000 C 
BRANCH   9  10
ATOM     10  C   UNL     1     104.423 123.958  82.288  0.00  0.00    +0.000 A 
ATOM     11  C   UNL     1     104.376 122.936  83.248  0.00  0.00    +0.000 A 
ATOM     12  C   UNL     1     104.561 121.604  82.874  0.00  0.00    +0.000 A 
ATOM     13  C   UNL     1     104.794 121.282  81.539  0.00  0.00    +0.000 A 
ATOM     14  C   UNL     1     104.840 122.293  80.577  0.00  0.00    +0.000 A 
ATOM     15  C   UNL     1     104.655 123.631  80.946  0.00  0.00    +0.000 A 
ATOM     16 CL   UNL     1     104.735 124.813  79.688  0.00  0.00    +0.000 Cl
ENDBRANCH   9  10
ENDBRANCH   1   9
TORSDOF 4
ENDMDL
