REMARK  Name = *****
REMARK  4 active torsions:
REMARK  status: ('A' for Active; 'I' for Inactive)
REMARK    1  A    between atoms: C_3  and  C_7
REMARK    2  A    between atoms: C_7  and  O_8
REMARK    3  A    between atoms: O_8  and  C_9
REMARK    4  A    between atoms: C_9  and  C_10
REMARK                            x       y       z     vdW  Elec       q    Type
REMARK                         _______ _______ _______ _____ _____    ______ ____
ROOT
ATOM      1  O   UNL     1      -1.465   1.937  -2.274  0.00  0.00    +0.000 OA
ENDROOT
BRANCH   1   2
ATOM      2  C   UNL     1      -1.397   0.565  -1.882  0.00  0.00    +0.000 C 
BRANCH   2   5
ATOM      3  C   UNL     1      -2.301  -1.959  -0.282  0.00  0.00    +0.000 C 
ATOM      4  C   UNL     1      -1.246  -0.939   0.159  0.00  0.00    +0.000 C 
ATOM      5  C   UNL     1      -1.540   0.479  -0.354  0.00  0.00    +0.000 C 
ATOM      6  C   UNL     1      -2.937   0.932   0.117  0.00  0.00    +0.000 C 
ATOM      7  C   UNL     1      -3.989  -0.136  -0.001  0.00  0.00    +0.000 C 
ATOM      8  C   UNL     1      -3.702  -1.432  -0.194  0.00  0.00    +0.000 C 
ENDBRANCH   2   5
ENDBRANCH   1   2
BRANCH   1   9
ATOM      9  C   UNL     1      -1.365   2.090  -3.691  0.00  0.00    +0.000 C 
BRANCH   9  10
ATOM     10  C   UNL     1      -1.512   3.579  -4.047  0.00  0.00    +0.000 C 
ATOM     11  C   UNL     1      -2.857   4.162  -3.578  0.00  0.00    +0.000 C 
ATOM     12  C   UNL     1      -4.050   3.560  -4.327  0.00  0.00    +0.000 C 
ATOM     13  C   UNL     1      -3.797   3.394  -5.798  0.00  0.00    +0.000 C 
ATOM     14  C   UNL     1      -2.583   3.518  -6.355  0.00  0.00    +0.000 C 
ATOM     15  C   UNL     1      -1.341   3.806  -5.559  0.00  0.00    +0.000 C 
ENDBRANCH   9  10
ENDBRANCH   1   9
TORSDOF 4
