MODEL 1
REMARK VINA RESULT:      -4.3      0.000      0.000
REMARK  Name = *****
REMARK  4 active torsions:
REMARK  status: ('A' for Active; 'I' for Inactive)
REMARK    1  A    between atoms: C_4  and  C_7
REMARK    2  A    between atoms: C_7  and  C_8
REMARK    3  A    between atoms: C_8  and  C_9
REMARK    4  A    between atoms: C_9  and  C_11
REMARK                            x       y       z     vdW  Elec       q    Type
REMARK                         _______ _______ _______ _____ _____    ______ ____
ROOT
ATOM      1  C   UNL     1      88.553  67.595  86.184  0.00  0.00    +0.000 C 
ATOM      2  O   UNL     1      87.919  67.628  85.129  0.00  0.00    +0.000 OA
ENDROOT
BRANCH   1   3
ATOM      3  C   UNL     1      88.115  66.644  87.246  0.00  0.00    +0.000 A 
ATOM      4  C   UNL     1      87.051  66.902  88.115  0.00  0.00    +0.000 A 
ATOM      5  C   UNL     1      86.678  65.979  89.092  0.00  0.00    +0.000 A 
ATOM      6  C   UNL     1      87.374  64.780  89.207  0.00  0.00    +0.000 A 
ATOM      7  C   UNL     1      88.440  64.501  88.356  0.00  0.00    +0.000 A 
ATOM      8  C   UNL     1      88.810  65.431  87.379  0.00  0.00    +0.000 A 
ATOM      9 CL   UNL     1      86.918  63.639  90.409  0.00  0.00    +0.000 Cl
ATOM     10  F   UNL     1      86.355  68.045  88.050  0.00  0.00    +0.000 F 
ENDBRANCH   1   3
BRANCH   1  11
ATOM     11  C   UNL     1      89.752  68.491  86.427  0.00  0.00    +0.000 C 
BRANCH  11  12
ATOM     12  C   UNL     1      89.417  69.962  86.173  0.00  0.00    +0.000 C 
BRANCH  12  16
ATOM     13  C   UNL     1      86.484  71.457  88.958  0.00  0.00    +0.000 A 
ATOM     14  C   UNL     1      86.216  71.465  87.591  0.00  0.00    +0.000 A 
ATOM     15  C   UNL     1      87.161  70.976  86.688  0.00  0.00    +0.000 A 
ATOM     16  C   UNL     1      88.384  70.469  87.148  0.00  0.00    +0.000 A 
ATOM     17  C   UNL     1      88.648  70.469  88.524  0.00  0.00    +0.000 A 
ATOM     18  C   UNL     1      87.700  70.960  89.425  0.00  0.00    +0.000 A 
ENDBRANCH  12  16
ENDBRANCH  11  12
ENDBRANCH   1  11
TORSDOF 4
ENDMDL
