MODEL 1
REMARK VINA RESULT:      -4.6      0.000      0.000
REMARK  Name = *****
REMARK  4 active torsions:
REMARK  status: ('A' for Active; 'I' for Inactive)
REMARK    1  A    between atoms: C_4  and  C_7
REMARK    2  A    between atoms: C_7  and  O_8
REMARK    3  A    between atoms: O_8  and  C_9
REMARK    4  A    between atoms: C_12  and  C_15
REMARK                            x       y       z     vdW  Elec       q    Type
REMARK                         _______ _______ _______ _____ _____    ______ ____
ROOT
ATOM      1  C   UNL     1     103.744 126.294  81.700  0.00  0.00    +0.000 A 
ATOM      2  C   UNL     1     103.866 125.299  82.677  0.00  0.00    +0.000 A 
ATOM      3  C   UNL     1     104.288 124.012  82.338  0.00  0.00    +0.000 A 
ATOM      4  C   UNL     1     104.589 123.716  81.007  0.00  0.00    +0.000 A 
ATOM      5  C   UNL     1     104.469 124.701  80.022  0.00  0.00    +0.000 A 
ATOM      6  C   UNL     1     104.047 125.989  80.371  0.00  0.00    +0.000 A 
ENDROOT
BRANCH   4   7
ATOM      7  C   UNL     1     105.036 122.360  80.635  0.00  0.00    +0.000 C 
ATOM      8  O   UNL     1     104.361 121.351  80.761  0.00  0.00    +0.000 OA
ATOM      9  F   UNL     1     106.268 122.223  80.123  0.00  0.00    +0.000 F 
ENDBRANCH   4   7
BRANCH   1  10
ATOM     10  O   UNL     1     103.323 127.505  82.175  0.00  0.00    +0.000 OA
BRANCH  10  11
ATOM     11  C   UNL     1     102.635 127.515  83.426  0.00  0.00    +0.000 C 
BRANCH  11  15
ATOM     12  C   UNL     1      98.396 128.062  82.807  0.00  0.00    +0.000 A 
ATOM     13  C   UNL     1      99.007 126.871  82.422  0.00  0.00    +0.000 A 
ATOM     14  C   UNL     1     100.379 126.696  82.614  0.00  0.00    +0.000 A 
ATOM     15  C   UNL     1     101.157 127.715  83.183  0.00  0.00    +0.000 A 
ATOM     16  C   UNL     1     100.527 128.906  83.575  0.00  0.00    +0.000 A 
ATOM     17  C   UNL     1      99.154 129.079  83.384  0.00  0.00    +0.000 A 
ENDBRANCH  11  15
ENDBRANCH  10  11
ENDBRANCH   1  10
TORSDOF 4
ENDMDL
