MODEL 1
REMARK VINA RESULT:      -4.4      0.000      0.000
REMARK  Name = *****
REMARK  3 active torsions:
REMARK  status: ('A' for Active; 'I' for Inactive)
REMARK    1  A    between atoms: C_2  and  C_11
REMARK    2  A    between atoms: C_3  and  S_4
REMARK    3  A    between atoms: S_4  and  C_5
REMARK                            x       y       z     vdW  Elec       q    Type
REMARK                         _______ _______ _______ _____ _____    ______ ____
ROOT
ATOM      1  C   UNL     1      90.261  66.422  85.791  0.00  0.00    +0.000 C 
ATOM      2  C   UNL     1      88.867  66.923  86.082  0.00  0.00    +0.000 C 
ATOM      3  C   UNL     1      89.383  65.655  86.737  0.00  0.00    +0.000 C 
ENDROOT
BRANCH   2   4
ATOM      4  C   UNL     1      88.665  68.168  86.913  0.00  0.00    +0.000 A 
ATOM      5  C   UNL     1      87.576  68.294  87.792  0.00  0.00    +0.000 A 
ATOM      6  C   UNL     1      87.379  69.452  88.548  0.00  0.00    +0.000 A 
ATOM      7  C   UNL     1      88.268  70.517  88.435  0.00  0.00    +0.000 A 
ATOM      8  C   UNL     1      89.350  70.424  87.563  0.00  0.00    +0.000 A 
ATOM      9  C   UNL     1      89.541  69.263  86.809  0.00  0.00    +0.000 A 
ENDBRANCH   2   4
BRANCH   3  10
ATOM     10  S   UNL     1      88.747  64.101  86.265  0.00  0.00    +0.000 S 
BRANCH  10  11
ATOM     11  C   UNL     1      87.960  63.665  87.804  0.00  0.00    +0.000 A 
ATOM     12  C   UNL     1      87.060  62.596  87.859  0.00  0.00    +0.000 A 
ATOM     13  C   UNL     1      86.440  62.261  89.065  0.00  0.00    +0.000 A 
ATOM     14  C   UNL     1      86.723  62.989  90.220  0.00  0.00    +0.000 A 
ATOM     15  C   UNL     1      87.625  64.051  90.171  0.00  0.00    +0.000 A 
ATOM     16  C   UNL     1      88.244  64.387  88.965  0.00  0.00    +0.000 A 
ENDBRANCH  10  11
ENDBRANCH   3  10
TORSDOF 3
ENDMDL
