REMARK  Name = *****
REMARK  3 active torsions:
REMARK  status: ('A' for Active; 'I' for Inactive)
REMARK    1  A    between atoms: C_1  and  C_2
REMARK    2  A    between atoms: C_5  and  C_8
REMARK    3  A    between atoms: C_9  and  C_10
REMARK                            x       y       z     vdW  Elec       q    Type
REMARK                         _______ _______ _______ _____ _____    ______ ____
ROOT
ATOM      1  C   UNL     1      -3.263  -0.041  -0.049  0.00  0.00    +0.000 C 
ATOM      2  C   UNL     1      -4.073  -1.115  -0.095  0.00  0.00    +0.000 C 
ATOM      3  F   UNL     1      -3.531  -2.357  -0.118  0.00  0.00    +0.000 F 
ATOM      4  F   UNL     1      -3.806   1.201  -0.025  0.00  0.00    +0.000 F 
ENDROOT
BRANCH   1   9
ATOM      5  C   UNL     1       2.541  -0.016  -0.064  0.00  0.00    +0.000 C 
ATOM      6  C   UNL     1       1.041  -0.026  -0.057  0.00  0.00    +0.000 A 
ATOM      7  C   UNL     1       0.310   1.018  -0.628  0.00  0.00    +0.000 A 
ATOM      8  C   UNL     1      -1.089   0.992  -0.617  0.00  0.00    +0.000 A 
ATOM      9  C   UNL     1      -1.788  -0.082  -0.046  0.00  0.00    +0.000 A 
ATOM     10  C   UNL     1      -1.048  -1.116   0.539  0.00  0.00    +0.000 A 
ATOM     11  C   UNL     1       0.352  -1.092   0.529  0.00  0.00    +0.000 A 
ENDBRANCH   1   9
BRANCH   2  12
ATOM     12  C   UNL     1      -5.548  -1.074  -0.103  0.00  0.00    +0.000 A 
ATOM     13  C   UNL     1      -6.285  -0.041  -0.700  0.00  0.00    +0.000 A 
ATOM     14  C   UNL     1      -7.683  -0.067  -0.702  0.00  0.00    +0.000 A 
ATOM     15  C   UNL     1      -8.364  -1.131  -0.116  0.00  0.00    +0.000 A 
ATOM     16  C   UNL     1      -7.648  -2.173   0.467  0.00  0.00    +0.000 A 
ATOM     17  C   UNL     1      -6.251  -2.146   0.468  0.00  0.00    +0.000 A 
ENDBRANCH   2  12
TORSDOF 2
