MODEL 1
REMARK VINA RESULT:      -4.4      0.000      0.000
REMARK  Name = *****
REMARK  3 active torsions:
REMARK  status: ('A' for Active; 'I' for Inactive)
REMARK    1  A    between atoms: C_2  and  C_3
REMARK    2  A    between atoms: C_6  and  C_8
REMARK    3  A    between atoms: C_9  and  C_10
REMARK                            x       y       z     vdW  Elec       q    Type
REMARK                         _______ _______ _______ _____ _____    ______ ____
ROOT
ATOM      1  C   UNL     1     101.660 125.964  82.262  0.00  0.00    +0.000 C 
ATOM      2  C   UNL     1     102.741 126.220  81.507  0.00  0.00    +0.000 C 
ENDROOT
BRANCH   2   3
ATOM      3  C   UNL     1     103.710 125.190  81.108  0.00  0.00    +0.000 A 
ATOM      4  C   UNL     1     104.455 125.283  79.925  0.00  0.00    +0.000 A 
ATOM      5  C   UNL     1     105.391 124.300  79.594  0.00  0.00    +0.000 A 
ATOM      6  C   UNL     1     105.600 123.220  80.449  0.00  0.00    +0.000 A 
ATOM      7  C   UNL     1     104.877 123.124  81.636  0.00  0.00    +0.000 A 
ATOM      8  C   UNL     1     103.943 124.107  81.967  0.00  0.00    +0.000 A 
ENDBRANCH   2   3
BRANCH   1  12
ATOM      9  C   UNL     1      99.781 129.081  83.580  0.00  0.00    +0.000 A 
ATOM     10  C   UNL     1      98.813 128.281  83.022  0.00  0.00    +0.000 A 
ATOM     11  C   UNL     1      99.357 127.076  82.485  0.00  0.00    +0.000 A 
ATOM     12  C   UNL     1     100.731 126.980  82.642  0.00  0.00    +0.000 A 
ATOM     13  S   UNL     1     101.330 128.384  83.453  0.00  0.00    +0.000 S 
BRANCH   9  15
ATOM     14  C   UNL     1      99.336 131.408  84.715  0.00  0.00    +0.000 C 
ATOM     15  C   UNL     1      99.539 130.345  84.196  0.00  0.00    +0.000 C 
ENDBRANCH   9  15
ENDBRANCH   1  12
TORSDOF 3
ENDMDL
