REMARK  Name = *****
REMARK  3 active torsions:
REMARK  status: ('A' for Active; 'I' for Inactive)
REMARK    1  A    between atoms: C_3  and  C_8
REMARK    2  A    between atoms: C_8  and  S_9
REMARK    3  A    between atoms: S_9  and  C_10
REMARK                            x       y       z     vdW  Elec       q    Type
REMARK                         _______ _______ _______ _____ _____    ______ ____
ROOT
ATOM      1  C   UNL     1       2.302   2.669  -0.019  0.00  0.00    +0.000 C 
ENDROOT
BRANCH   1   4
ATOM      2  C   UNL     1       0.708  -0.551   1.269  0.00  0.00    +0.000 A 
ATOM      3  C   UNL     1       1.333   0.697   1.238  0.00  0.00    +0.000 A 
ATOM      4  C   UNL     1       1.662   1.301   0.014  0.00  0.00    +0.000 A 
ATOM      5  C   UNL     1       1.345   0.633  -1.179  0.00  0.00    +0.000 A 
ATOM      6  C   UNL     1       0.721  -0.613  -1.141  0.00  0.00    +0.000 A 
ATOM      7  C   UNL     1       0.401  -1.208   0.078  0.00  0.00    +0.000 A 
ATOM      8 CL   UNL     1       0.335  -1.421  -2.611  0.00  0.00    +0.000 Cl
ENDBRANCH   1   4
BRANCH   1   9
ATOM      9  S   UNL     1       1.030   3.973  -0.054  0.00  0.00    +0.000 S 
BRANCH   9  10
ATOM     10  C   UNL     1       2.054   5.431  -0.063  0.00  0.00    +0.000 A 
ATOM     11  N   UNL     1       3.397   5.283  -0.042  0.00  0.00    +0.000 NA
ATOM     12  C   UNL     1       4.152   6.404  -0.047  0.00  0.00    +0.000 A 
ATOM     13  C   UNL     1       3.627   7.680  -0.073  0.00  0.00    +0.000 A 
ATOM     14  C   UNL     1       2.246   7.801  -0.095  0.00  0.00    +0.000 A 
ATOM     15  C   UNL     1       1.438   6.672  -0.090  0.00  0.00    +0.000 A 
ATOM     16 CL   UNL     1       1.528   9.365  -0.127  0.00  0.00    +0.000 Cl
ENDBRANCH   9  10
ENDBRANCH   1   9
TORSDOF 3
