MODEL 1
REMARK VINA RESULT:      -4.7      0.000      0.000
REMARK  Name = *****
REMARK  2 active torsions:
REMARK  status: ('A' for Active; 'I' for Inactive)
REMARK    1  A    between atoms: C_6  and  N_7
REMARK    2  A    between atoms: C_8  and  C_9
REMARK                            x       y       z     vdW  Elec       q    Type
REMARK                         _______ _______ _______ _____ _____    ______ ____
ROOT
ATOM      1  N   UNL     1     101.828 125.704  82.305  0.00  0.00    +0.000 NA
ATOM      2  C   UNL     1     103.112 125.649  82.476  0.00  0.00    +0.000 C 
ENDROOT
BRANCH   2   3
ATOM      3  C   UNL     1     103.892 124.466  82.077  0.00  0.00    +0.000 A 
ATOM      4  C   UNL     1     104.217 124.294  80.731  0.00  0.00    +0.000 A 
ATOM      5  C   UNL     1     104.953 123.191  80.313  0.00  0.00    +0.000 A 
ATOM      6  C   UNL     1     105.360 122.257  81.258  0.00  0.00    +0.000 A 
ATOM      7  C   UNL     1     105.046 122.410  82.606  0.00  0.00    +0.000 A 
ATOM      8  C   UNL     1     104.308 123.521  83.021  0.00  0.00    +0.000 A 
ATOM      9  F   UNL     1     106.068 121.191  80.865  0.00  0.00    +0.000 F 
ATOM     10  F   UNL     1     103.827 125.192  79.815  0.00  0.00    +0.000 F 
ENDBRANCH   2   3
BRANCH   1  16
ATOM     11  C   UNL     1     101.948 127.908  83.320  0.00  0.00    +0.000 A 
ATOM     12  C   UNL     1     101.319 129.078  83.756  0.00  0.00    +0.000 A 
ATOM     13  C   UNL     1      99.941 129.216  83.607  0.00  0.00    +0.000 A 
ATOM     14  C   UNL     1      99.185 128.195  83.033  0.00  0.00    +0.000 A 
ATOM     15  C   UNL     1      99.819 127.029  82.598  0.00  0.00    +0.000 A 
ATOM     16  C   UNL     1     101.203 126.884  82.727  0.00  0.00    +0.000 A 
ATOM     17 CL   UNL     1      99.164 130.655  84.144  0.00  0.00    +0.000 Cl
ENDBRANCH   1  16
TORSDOF 2
ENDMDL
