REMARK  Name = *****
REMARK  4 active torsions:
REMARK  status: ('A' for Active; 'I' for Inactive)
REMARK    1  A    between atoms: C_4  and  C_7
REMARK    2  A    between atoms: C_7  and  C_8
REMARK    3  A    between atoms: C_8  and  C_9
REMARK    4  A    between atoms: C_12  and  O_17
REMARK                            x       y       z     vdW  Elec       q    Type
REMARK                         _______ _______ _______ _____ _____    ______ ____
ROOT
ATOM      1  C   UNL     1      -3.319   1.209   1.063  0.00  0.00    +0.000 C 
ATOM      2  F   UNL     1      -4.687   1.299   1.033  0.00  0.00    +0.000 F 
ATOM      3  F   UNL     1      -3.066   0.377   2.122  0.00  0.00    +0.000 F 
ENDROOT
BRANCH   1   4
ATOM      4  C   UNL     1      -2.691   2.564   1.271  0.00  0.00    +0.000 A 
ATOM      5  C   UNL     1      -3.285   3.718   0.760  0.00  0.00    +0.000 A 
ATOM      6  C   UNL     1      -2.698   4.968   0.945  0.00  0.00    +0.000 A 
ATOM      7  C   UNL     1      -1.500   5.087   1.639  0.00  0.00    +0.000 A 
ATOM      8  C   UNL     1      -0.889   3.945   2.143  0.00  0.00    +0.000 A 
ATOM      9  C   UNL     1      -1.480   2.696   1.955  0.00  0.00    +0.000 A 
ATOM     10  F   UNL     1      -0.864   1.605   2.429  0.00  0.00    +0.000 F 
ATOM     11  F   UNL     1       0.273   4.035   2.805  0.00  0.00    +0.000 F 
ATOM     12  F   UNL     1      -3.281   6.070   0.450  0.00  0.00    +0.000 F 
ATOM     13  F   UNL     1      -4.428   3.631   0.068  0.00  0.00    +0.000 F 
BRANCH   7  14
ATOM     14  O   UNL     1      -0.920   6.312   1.822  0.00  0.00    +0.000 OA
ATOM     15  H   UNL     1      -1.332   7.081   1.483  0.00  0.00    +0.000 HD
ENDBRANCH   7  14
ENDBRANCH   1   4
BRANCH   1  16
ATOM     16  C   UNL     1      -2.813   0.547  -0.255  0.00  0.00    +0.000 C 
ATOM     17  F   UNL     1      -1.443   0.470  -0.217  0.00  0.00    +0.000 F 
ATOM     18  F   UNL     1      -3.070   1.395  -1.304  0.00  0.00    +0.000 F 
BRANCH  16  22
ATOM     19  C   UNL     1      -4.587  -3.342  -0.901  0.00  0.00    +0.000 A 
ATOM     20  C   UNL     1      -5.197  -2.203  -1.423  0.00  0.00    +0.000 A 
ATOM     21  C   UNL     1      -4.624  -0.947  -1.219  0.00  0.00    +0.000 A 
ATOM     22  C   UNL     1      -3.432  -0.819  -0.488  0.00  0.00    +0.000 A 
ATOM     23  C   UNL     1      -2.827  -1.974   0.032  0.00  0.00    +0.000 A 
ATOM     24  C   UNL     1      -3.403  -3.228  -0.174  0.00  0.00    +0.000 A 
ENDBRANCH  16  22
ENDBRANCH   1  16
TORSDOF 4
