MODEL 1
REMARK VINA RESULT:      -3.8      0.000      0.000
REMARK  Name = *****
REMARK  4 active torsions:
REMARK  status: ('A' for Active; 'I' for Inactive)
REMARK    1  A    between atoms: C_4  and  C_7
REMARK    2  A    between atoms: C_7  and  S_8
REMARK    3  A    between atoms: S_8  and  C_9
REMARK    4  A    between atoms: C_10  and  C_11
REMARK                            x       y       z     vdW  Elec       q    Type
REMARK                         _______ _______ _______ _____ _____    ______ ____
ROOT
ATOM      1  S   UNL     1      87.744  63.255  86.117  0.00  0.00    +0.000 S 
ENDROOT
BRANCH   1   2
ATOM      2  C   UNL     1      88.175  64.926  86.260  0.00  0.00    +0.000 C 
ATOM      3  C   UNL     1      88.182  65.623  87.407  0.00  0.00    +0.000 C 
BRANCH   3   4
ATOM      4  C   UNL     1      87.819  65.145  88.747  0.00  0.00    +0.000 A 
ATOM      5  C   UNL     1      88.694  64.294  89.432  0.00  0.00    +0.000 A 
ATOM      6  C   UNL     1      88.383  63.850  90.720  0.00  0.00    +0.000 A 
ATOM      7  C   UNL     1      87.202  64.262  91.334  0.00  0.00    +0.000 A 
ATOM      8  C   UNL     1      86.329  65.117  90.661  0.00  0.00    +0.000 A 
ATOM      9  C   UNL     1      86.639  65.561  89.374  0.00  0.00    +0.000 A 
ENDBRANCH   3   4
ENDBRANCH   1   2
BRANCH   1  10
ATOM     10  C   UNL     1      85.936  63.359  86.263  0.00  0.00    +0.000 C 
BRANCH  10  14
ATOM     11  C   UNL     1      84.532  61.643  89.964  0.00  0.00    +0.000 A 
ATOM     12  C   UNL     1      83.701  62.484  89.226  0.00  0.00    +0.000 A 
ATOM     13  C   UNL     1      84.153  63.039  88.028  0.00  0.00    +0.000 A 
ATOM     14  C   UNL     1      85.442  62.753  87.553  0.00  0.00    +0.000 A 
ATOM     15  C   UNL     1      86.273  61.915  88.311  0.00  0.00    +0.000 A 
ATOM     16  C   UNL     1      85.818  61.362  89.508  0.00  0.00    +0.000 A 
ENDBRANCH  10  14
ENDBRANCH   1  10
TORSDOF 4
ENDMDL
