MODEL 1
REMARK VINA RESULT:      -4.6      0.000      0.000
REMARK  Name = *****
REMARK  4 active torsions:
REMARK  status: ('A' for Active; 'I' for Inactive)
REMARK    1  A    between atoms: C_4  and  O_7
REMARK    2  A    between atoms: O_7  and  C_8
REMARK    3  A    between atoms: C_8  and  C_10
REMARK    4  A    between atoms: C_13  and  C_16
REMARK                            x       y       z     vdW  Elec       q    Type
REMARK                         _______ _______ _______ _____ _____    ______ ____
ROOT
ATOM      1  C   UNL     1     103.349 127.311  81.988  0.00  0.00    +0.000 C 
ATOM      2  O   UNL     1     103.622 128.340  81.390  0.00  0.00    +0.000 OA
ENDROOT
BRANCH   1   3
ATOM      3  C   UNL     1     103.838 125.971  81.567  0.00  0.00    +0.000 A 
ATOM      4  C   UNL     1     104.272 125.703  80.263  0.00  0.00    +0.000 A 
ATOM      5  C   UNL     1     104.720 124.424  79.920  0.00  0.00    +0.000 A 
ATOM      6  C   UNL     1     104.736 123.394  80.871  0.00  0.00    +0.000 A 
ATOM      7  C   UNL     1     104.303 123.667  82.176  0.00  0.00    +0.000 A 
ATOM      8  C   UNL     1     103.850 124.944  82.519  0.00  0.00    +0.000 A 
BRANCH   6   9
ATOM      9  C   UNL     1     105.238 122.024  80.503  0.00  0.00    +0.000 C 
ATOM     10 CL   UNL     1     104.302 120.775  81.348  0.00  0.00    +0.000 Cl
ENDBRANCH   6   9
ENDBRANCH   1   3
BRANCH   1  11
ATOM     11  O   UNL     1     102.545 127.171  83.109  0.00  0.00    +0.000 OA
BRANCH  11  15
ATOM     12  C   UNL     1      98.471 128.107  82.853  0.00  0.00    +0.000 A 
ATOM     13  C   UNL     1      99.335 129.030  83.444  0.00  0.00    +0.000 A 
ATOM     14  C   UNL     1     100.698 128.745  83.554  0.00  0.00    +0.000 A 
ATOM     15  C   UNL     1     101.181 127.525  83.087  0.00  0.00    +0.000 A 
ATOM     16  C   UNL     1     100.325 126.605  82.480  0.00  0.00    +0.000 A 
ATOM     17  C   UNL     1      98.965 126.896  82.368  0.00  0.00    +0.000 A 
ENDBRANCH  11  15
ENDBRANCH   1  11
TORSDOF 4
ENDMDL
