MODEL 1
REMARK VINA RESULT:      -3.7      0.000      0.000
REMARK  Name = *****
REMARK  4 active torsions:
REMARK  status: ('A' for Active; 'I' for Inactive)
REMARK    1  A    between atoms: C_4  and  C_7
REMARK    2  A    between atoms: C_7  and  S_15
REMARK    3  A    between atoms: C_8  and  C_9
REMARK    4  A    between atoms: C_8  and  S_14
REMARK                            x       y       z     vdW  Elec       q    Type
REMARK                         _______ _______ _______ _____ _____    ______ ____
ROOT
ATOM      1  C   UNL     1     101.986 127.918  83.150  0.00  0.00    +0.000 C 
ATOM      2  C   UNL     1     100.639 127.991  83.294  0.00  0.00    +0.000 C 
ENDROOT
BRANCH   1   6
ATOM      3  C   UNL     1     103.968 124.960  80.782  0.00  0.00    +0.000 A 
ATOM      4  C   UNL     1     103.585 124.664  82.090  0.00  0.00    +0.000 A 
ATOM      5  C   UNL     1     102.934 125.627  82.862  0.00  0.00    +0.000 A 
ATOM      6  C   UNL     1     102.660 126.894  82.327  0.00  0.00    +0.000 A 
ATOM      7  C   UNL     1     103.049 127.184  81.012  0.00  0.00    +0.000 A 
ATOM      8  C   UNL     1     103.700 126.218  80.242  0.00  0.00    +0.000 A 
ENDBRANCH   1   6
BRANCH   2   9
ATOM      9  C   UNL     1     100.030 129.004  84.103  0.00  0.00    +0.000 A 
ATOM     10  C   UNL     1      99.599 130.270  83.736  0.00  0.00    +0.000 A 
ATOM     11  C   UNL     1      99.046 131.005  84.824  0.00  0.00    +0.000 A 
ATOM     12  C   UNL     1      99.074 130.286  85.996  0.00  0.00    +0.000 A 
ATOM     13  S   UNL     1      99.767 128.739  85.787  0.00  0.00    +0.000 S 
ENDBRANCH   2   9
BRANCH   2  14
ATOM     14  S   UNL     1      99.504 126.872  82.562  0.00  0.00    +0.000 S 
ATOM     15  H   UNL     1      99.587 126.962  81.207  0.00  0.00    +0.000 HD
ENDBRANCH   2  14
BRANCH   1  16
ATOM     16  S   UNL     1     103.115 129.017  83.917  0.00  0.00    +0.000 S 
ATOM     17  H   UNL     1     104.194 128.319  84.364  0.00  0.00    +0.000 HD
ENDBRANCH   1  16
TORSDOF 4
ENDMDL
