MODEL 1
REMARK VINA RESULT:      -4.5      0.000      0.000
REMARK  Name = *****
REMARK  4 active torsions:
REMARK  status: ('A' for Active; 'I' for Inactive)
REMARK    1  A    between atoms: C_1  and  C_2
REMARK    2  A    between atoms: C_2  and  C_11
REMARK    3  A    between atoms: N_3  and  C_4
REMARK    4  A    between atoms: C_4  and  C_5
REMARK                            x       y       z     vdW  Elec       q    Type
REMARK                         _______ _______ _______ _____ _____    ______ ____
ROOT
ATOM      1  C   UNL     1      90.991  65.955  85.552  0.00  0.00    +0.000 C 
ATOM      2  C   UNL     1      89.846  66.754  86.142  0.00  0.00    +0.000 C 
ATOM      3  N   UNL     1      88.896  66.232  86.846  0.00  0.00    +0.000 NA
ENDROOT
BRANCH   2   4
ATOM      4  C   UNL     1      89.825  68.231  85.905  0.00  0.00    +0.000 A 
ATOM      5  C   UNL     1      89.590  69.139  86.944  0.00  0.00    +0.000 A 
ATOM      6  C   UNL     1      89.572  70.513  86.684  0.00  0.00    +0.000 A 
ATOM      7  C   UNL     1      89.778  70.984  85.389  0.00  0.00    +0.000 A 
ATOM      8  C   UNL     1      89.998  70.085  84.347  0.00  0.00    +0.000 A 
ATOM      9  C   UNL     1      90.017  68.712  84.603  0.00  0.00    +0.000 A 
ENDBRANCH   2   4
BRANCH   3  10
ATOM     10  C   UNL     1      88.907  64.799  87.127  0.00  0.00    +0.000 C 
BRANCH  10  11
ATOM     11  C   UNL     1      87.876  64.500  88.229  0.00  0.00    +0.000 C 
ATOM     12  C   UNL     1      87.100  65.765  88.634  0.00  0.00    +0.000 C 
ATOM     13  C   UNL     1      86.120  65.490  89.773  0.00  0.00    +0.000 C 
ATOM     14  C   UNL     1      86.817  64.866  90.978  0.00  0.00    +0.000 C 
ATOM     15  C   UNL     1      87.590  63.610  90.589  0.00  0.00    +0.000 C 
ATOM     16  C   UNL     1      88.573  63.884  89.452  0.00  0.00    +0.000 C 
ENDBRANCH  10  11
ENDBRANCH   3  10
TORSDOF 3
ENDMDL
