MODEL 1
REMARK VINA RESULT:      -5.5      0.000      0.000
REMARK  Name = *****
REMARK  1 active torsions:
REMARK  status: ('A' for Active; 'I' for Inactive)
REMARK    1  A    between atoms: C_3  and  C_11
REMARK                            x       y       z     vdW  Elec       q    Type
REMARK                         _______ _______ _______ _____ _____    ______ ____
ROOT
ATOM      1  C   UNL     1     102.803 128.309  83.343  0.00  0.00    +0.000 C 
ATOM      2  C   UNL     1     103.562 127.572  82.232  0.00  0.00    +0.000 C 
ATOM      3  C   UNL     1     102.956 126.227  81.899  0.00  0.00    +0.000 C 
ATOM      4  C   UNL     1     101.637 126.010  82.058  0.00  0.00    +0.000 C 
ATOM      5  C   UNL     1     100.755 127.066  82.574  0.00  0.00    +0.000 A 
ATOM      6  C   UNL     1      99.365 126.937  82.481  0.00  0.00    +0.000 A 
ATOM      7  C   UNL     1      98.530 127.935  82.990  0.00  0.00    +0.000 A 
ATOM      8  C   UNL     1      99.079 129.061  83.599  0.00  0.00    +0.000 A 
ATOM      9  C   UNL     1     100.463 129.195  83.705  0.00  0.00    +0.000 A 
ATOM     10  C   UNL     1     101.307 128.206  83.185  0.00  0.00    +0.000 A 
ENDROOT
BRANCH   3  11
ATOM     11  C   UNL     1     103.847 125.175  81.355  0.00  0.00    +0.000 A 
ATOM     12  C   UNL     1     104.413 125.311  80.075  0.00  0.00    +0.000 A 
ATOM     13  C   UNL     1     105.242 124.316  79.544  0.00  0.00    +0.000 A 
ATOM     14  C   UNL     1     105.516 123.166  80.281  0.00  0.00    +0.000 A 
ATOM     15  C   UNL     1     104.958 123.009  81.547  0.00  0.00    +0.000 A 
ATOM     16  C   UNL     1     104.132 124.004  82.070  0.00  0.00    +0.000 A 
ATOM     17  F   UNL     1     103.625 123.811  83.298  0.00  0.00    +0.000 F 
ENDBRANCH   3  11
TORSDOF 1
ENDMDL
