MODEL 1
REMARK VINA RESULT:      -5.1      0.000      0.000
REMARK  Name = *****
REMARK  3 active torsions:
REMARK  status: ('A' for Active; 'I' for Inactive)
REMARK    1  A    between atoms: C_1  and  C_2
REMARK    2  A    between atoms: C_10  and  C_11
REMARK    3  A    between atoms: C_11  and  C_12
REMARK                            x       y       z     vdW  Elec       q    Type
REMARK                         _______ _______ _______ _____ _____    ______ ____
ROOT
ATOM      1  C   UNL     1     103.560 127.533  79.983  0.00  0.00    +0.000 C 
ATOM      2  C   UNL     1     103.818 126.170  80.526  0.00  0.00    +0.000 C 
ATOM      3  C   UNL     1     104.416 125.167  79.858  0.00  0.00    +0.000 C 
ATOM      4  C   UNL     1     104.555 124.043  80.764  0.00  0.00    +0.000 A 
ATOM      5  C   UNL     1     105.116 122.799  80.540  0.00  0.00    +0.000 A 
ATOM      6  C   UNL     1     105.148 121.887  81.598  0.00  0.00    +0.000 A 
ATOM      7  C   UNL     1     104.628 122.232  82.855  0.00  0.00    +0.000 A 
ATOM      8  C   UNL     1     104.065 123.492  83.074  0.00  0.00    +0.000 A 
ATOM      9  C   UNL     1     104.027 124.386  82.014  0.00  0.00    +0.000 A 
ATOM     10  C   UNL     1     103.485 125.799  81.973  0.00  0.00    +0.000 C 
ENDROOT
BRANCH  10  11
ATOM     11  C   UNL     1     101.984 125.833  82.324  0.00  0.00    +0.000 C 
BRANCH  11  12
ATOM     12  C   UNL     1     101.500 127.138  82.917  0.00  0.00    +0.000 A 
ATOM     13  C   UNL     1     100.133 127.446  82.926  0.00  0.00    +0.000 A 
ATOM     14  C   UNL     1      99.677 128.641  83.485  0.00  0.00    +0.000 A 
ATOM     15  C   UNL     1     100.583 129.537  84.050  0.00  0.00    +0.000 A 
ATOM     16  C   UNL     1     101.942 129.236  84.061  0.00  0.00    +0.000 A 
ATOM     17  C   UNL     1     102.400 128.041  83.504  0.00  0.00    +0.000 A 
ENDBRANCH  11  12
ENDBRANCH  10  11
TORSDOF 2
ENDMDL
