REMARK  Name = *****
REMARK  2 active torsions:
REMARK  status: ('A' for Active; 'I' for Inactive)
REMARK    1  A    between atoms: C_4  and  N_7
REMARK    2  A    between atoms: C_8  and  C_9
REMARK                            x       y       z     vdW  Elec       q    Type
REMARK                         _______ _______ _______ _____ _____    ______ ____
ROOT
ATOM      1  N   UNL     1      -2.704   0.585  -0.513  0.00  0.00    +0.000 NA
ATOM      2  C   UNL     1      -3.581  -0.300  -0.151  0.00  0.00    +0.000 C 
ENDROOT
BRANCH   2   3
ATOM      3  C   UNL     1      -5.029  -0.091  -0.376  0.00  0.00    +0.000 A 
ATOM      4  C   UNL     1      -5.981  -1.052  -0.009  0.00  0.00    +0.000 A 
ATOM      5  C   UNL     1      -7.341  -0.814  -0.239  0.00  0.00    +0.000 A 
ATOM      6  C   UNL     1      -7.748   0.379  -0.833  0.00  0.00    +0.000 A 
ATOM      7  C   UNL     1      -6.811   1.340  -1.202  0.00  0.00    +0.000 A 
ATOM      8  C   UNL     1      -5.453   1.106  -0.974  0.00  0.00    +0.000 A 
ATOM      9 CL   UNL     1      -9.421   0.666  -1.112  0.00  0.00    +0.000 Cl
ATOM     10 CL   UNL     1      -5.560  -2.557   0.730  0.00  0.00    +0.000 Cl
ENDBRANCH   2   3
BRANCH   1  14
ATOM     11  C   UNL     1       1.315  -0.339   0.288  0.00  0.00    +0.000 A 
ATOM     12  C   UNL     1       0.716  -0.798  -0.884  0.00  0.00    +0.000 A 
ATOM     13  C   UNL     1      -0.620  -0.492  -1.150  0.00  0.00    +0.000 A 
ATOM     14  C   UNL     1      -1.366   0.266  -0.243  0.00  0.00    +0.000 A 
ATOM     15  C   UNL     1      -0.754   0.736   0.921  0.00  0.00    +0.000 A 
ATOM     16  C   UNL     1       0.582   0.432   1.190  0.00  0.00    +0.000 A 
ENDBRANCH   1  14
TORSDOF 2
