MODEL 1
REMARK VINA RESULT:      -4.4      0.000      0.000
REMARK  Name = *****
REMARK  5 active torsions:
REMARK  status: ('A' for Active; 'I' for Inactive)
REMARK    1  A    between atoms: C_1  and  C_2
REMARK    2  A    between atoms: C_7  and  C_8
REMARK    3  A    between atoms: C_8  and  S_9
REMARK    4  A    between atoms: C_8  and  N_11
REMARK    5  A    between atoms: N_11  and  C_12
REMARK                            x       y       z     vdW  Elec       q    Type
REMARK                         _______ _______ _______ _____ _____    ______ ____
ROOT
ATOM      1  C   UNL     1      87.843  63.622  86.628  0.00  0.00    +0.000 C 
ENDROOT
BRANCH   1   8
ATOM      2  C   UNL     1      87.951  66.496  87.361  0.00  0.00    +0.000 C 
ATOM      3  C   UNL     1      89.066  65.818  86.616  0.00  0.00    +0.000 A 
ATOM      4  C   UNL     1      90.176  66.569  86.203  0.00  0.00    +0.000 A 
ATOM      5  C   UNL     1      91.228  65.967  85.509  0.00  0.00    +0.000 A 
ATOM      6  C   UNL     1      91.184  64.607  85.209  0.00  0.00    +0.000 A 
ATOM      7  C   UNL     1      90.084  63.844  85.597  0.00  0.00    +0.000 A 
ATOM      8  C   UNL     1      89.029  64.447  86.299  0.00  0.00    +0.000 A 
ENDBRANCH   1   8
BRANCH   1   9
ATOM      9  S   UNL     1      86.552  63.649  85.619  0.00  0.00    +0.000 S 
ATOM     10  O   UNL     1      85.230  63.440  86.276  0.00  0.00    +0.000 OA
ENDBRANCH   1   9
BRANCH   1  11
ATOM     11  N   UNL     1      87.961  62.939  87.829  0.00  0.00    +0.000 N 
ATOM     12  H   UNL     1      88.034  61.964  87.728  0.00  0.00    +0.000 HD
BRANCH  11  13
ATOM     13  C   UNL     1      87.995  63.379  89.171  0.00  0.00    +0.000 A 
ATOM     14  C   UNL     1      89.152  63.607  89.918  0.00  0.00    +0.000 A 
ATOM     15  C   UNL     1      89.068  64.060  91.240  0.00  0.00    +0.000 A 
ATOM     16  C   UNL     1      87.830  64.300  91.828  0.00  0.00    +0.000 A 
ATOM     17  C   UNL     1      86.670  64.097  91.089  0.00  0.00    +0.000 A 
ATOM     18  C   UNL     1      86.754  63.646  89.768  0.00  0.00    +0.000 A 
ENDBRANCH  11  13
ENDBRANCH   1  11
TORSDOF 4
ENDMDL
