MODEL 1
REMARK VINA RESULT:      -4.6      0.000      0.000
REMARK  Name = *****
REMARK  3 active torsions:
REMARK  status: ('A' for Active; 'I' for Inactive)
REMARK    1  A    between atoms: C_3  and  S_20
REMARK    2  A    between atoms: C_6  and  C_7
REMARK    3  A    between atoms: C_8  and  C_9
REMARK                            x       y       z     vdW  Elec       q    Type
REMARK                         _______ _______ _______ _____ _____    ______ ____
ROOT
ATOM      1  C   UNL     1     101.416 127.159  82.977  0.00  0.00    +0.000 A 
ATOM      2  C   UNL     1     100.076 127.059  82.596  0.00  0.00    +0.000 A 
ATOM      3  C   UNL     1      99.183 128.088  82.875  0.00  0.00    +0.000 A 
ATOM      4  C   UNL     1      99.620 129.228  83.536  0.00  0.00    +0.000 A 
ATOM      5  C   UNL     1     100.949 129.340  83.919  0.00  0.00    +0.000 A 
ATOM      6  C   UNL     1     101.843 128.310  83.640  0.00  0.00    +0.000 A 
ATOM      7  F   UNL     1     103.124 128.436  84.019  0.00  0.00    +0.000 F 
ATOM      8  F   UNL     1     101.373 130.439  84.557  0.00  0.00    +0.000 F 
ATOM      9  F   UNL     1      98.758 130.220  83.804  0.00  0.00    +0.000 F 
ATOM     10  F   UNL     1      97.900 127.980  82.504  0.00  0.00    +0.000 F 
ATOM     11  F   UNL     1      99.635 125.964  81.956  0.00  0.00    +0.000 F 
ENDROOT
BRANCH   1  13
ATOM     12  C   UNL     1     103.107 125.214  82.452  0.00  0.00    +0.000 C 
ATOM     13  C   UNL     1     102.334 126.101  82.691  0.00  0.00    +0.000 C 
BRANCH  12  19
ATOM     14  C   UNL     1     104.501 123.346  83.202  0.00  0.00    +0.000 A 
ATOM     15  C   UNL     1     105.402 122.312  82.926  0.00  0.00    +0.000 A 
ATOM     16  C   UNL     1     105.831 122.084  81.616  0.00  0.00    +0.000 A 
ATOM     17  C   UNL     1     105.359 122.902  80.584  0.00  0.00    +0.000 A 
ATOM     18  C   UNL     1     104.458 123.935  80.859  0.00  0.00    +0.000 A 
ATOM     19  C   UNL     1     104.028 124.157  82.168  0.00  0.00    +0.000 A 
BRANCH  16  20
ATOM     20  S   UNL     1     106.985 120.781  81.250  0.00  0.00    +0.000 S 
ATOM     21  H   UNL     1     106.309 119.691  80.799  0.00  0.00    +0.000 HD
ENDBRANCH  16  20
ENDBRANCH  12  19
ENDBRANCH   1  13
TORSDOF 3
ENDMDL
