MODEL 1
REMARK VINA RESULT:      -4.8      0.000      0.000
REMARK  Name = *****
REMARK  4 active torsions:
REMARK  status: ('A' for Active; 'I' for Inactive)
REMARK    1  A    between atoms: C_1  and  C_2
REMARK    2  A    between atoms: C_5  and  C_8
REMARK    3  A    between atoms: C_8  and  C_10
REMARK    4  A    between atoms: C_10  and  C_11
REMARK                            x       y       z     vdW  Elec       q    Type
REMARK                         _______ _______ _______ _____ _____    ______ ____
ROOT
ATOM      1  C   UNL     1     103.551 127.506  82.224  0.00  0.00    +0.000 C 
ATOM      2  O   UNL     1     103.919 128.432  81.499  0.00  0.00    +0.000 OA
ENDROOT
BRANCH   1   7
ATOM      3  C   UNL     1     104.940 122.105  80.578  0.00  0.00    +0.000 C 
ATOM      4  C   UNL     1     104.553 123.488  81.011  0.00  0.00    +0.000 A 
ATOM      5  C   UNL     1     104.492 124.531  80.084  0.00  0.00    +0.000 A 
ATOM      6  C   UNL     1     104.160 125.826  80.496  0.00  0.00    +0.000 A 
ATOM      7  C   UNL     1     103.899 126.099  81.845  0.00  0.00    +0.000 A 
ATOM      8  C   UNL     1     103.973 125.058  82.776  0.00  0.00    +0.000 A 
ATOM      9  C   UNL     1     104.303 123.763  82.361  0.00  0.00    +0.000 A 
ENDBRANCH   1   7
BRANCH   1  10
ATOM     10  C   UNL     1     102.751 127.778  83.485  0.00  0.00    +0.000 C 
BRANCH  10  11
ATOM     11  C   UNL     1     101.254 127.850  83.268  0.00  0.00    +0.000 A 
ATOM     12  C   UNL     1     100.604 126.795  82.599  0.00  0.00    +0.000 A 
ATOM     13  C   UNL     1      99.229 126.833  82.355  0.00  0.00    +0.000 A 
ATOM     14  C   UNL     1      98.479 127.932  82.760  0.00  0.00    +0.000 A 
ATOM     15  C   UNL     1      99.107 128.998  83.402  0.00  0.00    +0.000 A 
ATOM     16  C   UNL     1     100.484 128.963  83.648  0.00  0.00    +0.000 A 
ATOM     17 CL   UNL     1     101.178 130.341  84.427  0.00  0.00    +0.000 Cl
ENDBRANCH  10  11
ENDBRANCH   1  10
TORSDOF 3
ENDMDL
