REMARK  Name = *****
REMARK  3 active torsions:
REMARK  status: ('A' for Active; 'I' for Inactive)
REMARK    1  A    between atoms: C_5  and  S_7
REMARK    2  A    between atoms: S_7  and  S_8
REMARK    3  A    between atoms: S_8  and  C_9
REMARK                            x       y       z     vdW  Elec       q    Type
REMARK                         _______ _______ _______ _____ _____    ______ ____
ROOT
ATOM      1  S   UNL     1      -2.017  -2.801  -0.308  0.00  0.00    +0.000 S 
ENDROOT
BRANCH   1   6
ATOM      2  C   UNL     1      -1.025   1.240  -0.633  0.00  0.00    +0.000 C 
ATOM      3  C   UNL     1       0.477   0.990  -0.780  0.00  0.00    +0.000 C 
ATOM      4  C   UNL     1       0.927  -0.259  -0.082  0.00  0.00    +0.000 C 
ATOM      5  C   UNL     1       0.076  -1.200   0.360  0.00  0.00    +0.000 C 
ATOM      6  C   UNL     1      -1.421  -1.125   0.172  0.00  0.00    +0.000 C 
ATOM      7  C   UNL     1      -1.826  -0.046  -0.842  0.00  0.00    +0.000 C 
ENDBRANCH   1   6
BRANCH   1   8
ATOM      8  S   UNL     1      -4.068  -2.669  -0.171  0.00  0.00    +0.000 S 
BRANCH   8   9
ATOM      9  C   UNL     1      -4.653  -2.877  -1.906  0.00  0.00    +0.000 C 
ATOM     10  C   UNL     1      -4.231  -1.711  -2.811  0.00  0.00    +0.000 C 
ATOM     11  C   UNL     1      -5.022  -1.711  -4.120  0.00  0.00    +0.000 C 
ATOM     12  C   UNL     1      -6.525  -1.591  -3.861  0.00  0.00    +0.000 C 
ATOM     13  C   UNL     1      -6.991  -2.471  -2.739  0.00  0.00    +0.000 C 
ATOM     14  C   UNL     1      -6.152  -3.061  -1.873  0.00  0.00    +0.000 C 
ENDBRANCH   8   9
ENDBRANCH   1   8
TORSDOF 3
