REMARK  Name = *****
REMARK  2 active torsions:
REMARK  status: ('A' for Active; 'I' for Inactive)
REMARK    1  A    between atoms: C_4  and  S_7
REMARK    2  A    between atoms: S_7  and  C_8
REMARK                            x       y       z     vdW  Elec       q    Type
REMARK                         _______ _______ _______ _____ _____    ______ ____
ROOT
ATOM      1  C   UNL     1      -4.188  -0.826  -0.389  0.00  0.00    +0.000 A 
ATOM      2  N   UNL     1      -4.065  -1.947   0.300  0.00  0.00    +0.000 NA
ATOM      3  C   UNL     1      -5.089  -2.733  -0.158  0.00  0.00    +0.000 A 
ATOM      4  C   UNL     1      -5.475  -4.036   0.180  0.00  0.00    +0.000 A 
ATOM      5  C   UNL     1      -6.587  -4.587  -0.476  0.00  0.00    +0.000 A 
ATOM      6  C   UNL     1      -7.294  -3.857  -1.441  0.00  0.00    +0.000 A 
ATOM      7  C   UNL     1      -6.920  -2.553  -1.787  0.00  0.00    +0.000 A 
ATOM      8  C   UNL     1      -5.814  -2.047  -1.116  0.00  0.00    +0.000 A 
ATOM      9  O   UNL     1      -5.247  -0.818  -1.266  0.00  0.00    +0.000 OA
ENDROOT
BRANCH   1  10
ATOM     10  S   UNL     1      -3.144   0.563  -0.227  0.00  0.00    +0.000 S 
BRANCH  10  14
ATOM     11  C   UNL     1       0.766  -1.408   1.135  0.00  0.00    +0.000 A 
ATOM     12  C   UNL     1       0.237  -1.717  -0.117  0.00  0.00    +0.000 A 
ATOM     13  C   UNL     1      -0.959  -1.130  -0.536  0.00  0.00    +0.000 A 
ATOM     14  C   UNL     1      -1.641  -0.238   0.301  0.00  0.00    +0.000 A 
ATOM     15  C   UNL     1      -1.097   0.075   1.552  0.00  0.00    +0.000 A 
ATOM     16  C   UNL     1       0.101  -0.510   1.969  0.00  0.00    +0.000 A 
ENDBRANCH  10  14
ENDBRANCH   1  10
TORSDOF 2
