MODEL 1
REMARK VINA RESULT:      -4.7      0.000      0.000
REMARK  Name = *****
REMARK  5 active torsions:
REMARK  status: ('A' for Active; 'I' for Inactive)
REMARK    1  A    between atoms: C_1  and  C_2
REMARK    2  A    between atoms: C_2  and  C_4
REMARK    3  A    between atoms: C_5  and  C_11
REMARK    4  A    between atoms: C_11  and  C_12
REMARK    5  A    between atoms: C_12  and  C_13
REMARK                            x       y       z     vdW  Elec       q    Type
REMARK                         _______ _______ _______ _____ _____    ______ ____
ROOT
ATOM      1  C   UNL     1      89.792  69.636  84.916  0.00  0.00    +0.000 A 
ATOM      2  C   UNL     1      89.568  69.455  86.296  0.00  0.00    +0.000 A 
ATOM      3  C   UNL     1      89.448  68.138  86.785  0.00  0.00    +0.000 A 
ATOM      4  C   UNL     1      89.545  67.043  85.927  0.00  0.00    +0.000 A 
ATOM      5  C   UNL     1      89.764  67.231  84.566  0.00  0.00    +0.000 A 
ATOM      6  C   UNL     1      89.891  68.525  84.061  0.00  0.00    +0.000 A 
ATOM      7 CL   UNL     1      89.383  65.450  86.554  0.00  0.00    +0.000 Cl
ENDROOT
BRANCH   1   9
ATOM      8  C   UNL     1      88.730  71.688  83.811  0.00  0.00    +0.000 C 
ATOM      9  C   UNL     1      89.963  70.983  84.310  0.00  0.00    +0.000 C 
ATOM     10  O   UNL     1      91.087  71.457  84.173  0.00  0.00    +0.000 OA
ENDBRANCH   1   9
BRANCH   2  11
ATOM     11  C   UNL     1      89.388  70.599  87.272  0.00  0.00    +0.000 C 
BRANCH  11  12
ATOM     12  C   UNL     1      88.285  70.345  88.310  0.00  0.00    +0.000 C 
BRANCH  12  13
ATOM     13  C   UNL     1      86.985  71.050  88.001  0.00  0.00    +0.000 A 
ATOM     14  C   UNL     1      86.147  71.484  89.037  0.00  0.00    +0.000 A 
ATOM     15  C   UNL     1      84.943  72.129  88.751  0.00  0.00    +0.000 A 
ATOM     16  C   UNL     1      84.565  72.345  87.426  0.00  0.00    +0.000 A 
ATOM     17  C   UNL     1      85.390  71.916  86.388  0.00  0.00    +0.000 A 
ATOM     18  C   UNL     1      86.593  71.269  86.673  0.00  0.00    +0.000 A 
ENDBRANCH  12  13
ENDBRANCH  11  12
ENDBRANCH   2  11
TORSDOF 4
ENDMDL
