MODEL 1
REMARK VINA RESULT:      -4.6      0.000      0.000
REMARK  Name = *****
REMARK  6 active torsions:
REMARK  status: ('A' for Active; 'I' for Inactive)
REMARK    1  A    between atoms: C_1  and  C_2
REMARK    2  A    between atoms: C_3  and  C_9
REMARK    3  A    between atoms: C_4  and  C_8
REMARK    4  A    between atoms: C_9  and  C_10
REMARK    5  A    between atoms: C_10  and  C_11
REMARK    6  A    between atoms: C_11  and  C_13
REMARK                            x       y       z     vdW  Elec       q    Type
REMARK                         _______ _______ _______ _____ _____    ______ ____
ROOT
ATOM      1  C   UNL     1      89.540  68.596  86.759  0.00  0.00    +0.000 C 
ENDROOT
BRANCH   1   2
ATOM      2  C   UNL     1      89.266  70.084  86.724  0.00  0.00    +0.000 C 
ATOM      3  O   UNL     1      89.911  70.865  86.031  0.00  0.00    +0.000 OA
BRANCH   2   4
ATOM      4  C   UNL     1      88.221  70.621  87.620  0.00  0.00    +0.000 A 
ATOM      5  C   UNL     1      86.985  71.082  87.150  0.00  0.00    +0.000 A 
ATOM      6  C   UNL     1      86.036  71.564  88.055  0.00  0.00    +0.000 A 
ATOM      7  C   UNL     1      86.336  71.589  89.414  0.00  0.00    +0.000 A 
ATOM      8  C   UNL     1      87.567  71.154  89.889  0.00  0.00    +0.000 A 
ATOM      9  C   UNL     1      88.519  70.675  88.990  0.00  0.00    +0.000 A 
ATOM     10  F   UNL     1      85.423  72.052  90.277  0.00  0.00    +0.000 F 
ATOM     11 CL   UNL     1      86.586  71.129  85.471  0.00  0.00    +0.000 Cl
ENDBRANCH   2   4
ENDBRANCH   1   2
BRANCH   1  12
ATOM     12  C   UNL     1      88.303  67.779  86.378  0.00  0.00    +0.000 C 
BRANCH  12  15
ATOM     13  C   UNL     1      86.247  67.749  88.608  0.00  0.00    +0.000 C 
ATOM     14  C   UNL     1      87.125  66.564  88.298  0.00  0.00    +0.000 A 
ATOM     15  C   UNL     1      88.080  66.550  87.248  0.00  0.00    +0.000 A 
ATOM     16  C   UNL     1      88.830  65.365  87.024  0.00  0.00    +0.000 A 
ATOM     17  C   UNL     1      88.658  64.258  87.870  0.00  0.00    +0.000 A 
ATOM     18  C   UNL     1      87.755  64.298  88.924  0.00  0.00    +0.000 A 
ATOM     19  C   UNL     1      86.994  65.442  89.135  0.00  0.00    +0.000 A 
ATOM     20  C   UNL     1      89.815  65.230  85.890  0.00  0.00    +0.000 C 
ENDBRANCH  12  15
ENDBRANCH   1  12
TORSDOF 4
ENDMDL
