MODEL 1
REMARK VINA RESULT:      -4.7      0.000      0.000
REMARK  Name = *****
REMARK  4 active torsions:
REMARK  status: ('A' for Active; 'I' for Inactive)
REMARK    1  A    between atoms: C_1  and  C_2
REMARK    2  A    between atoms: C_5  and  C_8
REMARK    3  A    between atoms: N_10  and  C_11
REMARK    4  A    between atoms: C_14  and  C_17
REMARK                            x       y       z     vdW  Elec       q    Type
REMARK                         _______ _______ _______ _____ _____    ______ ____
ROOT
ATOM      1  C   UNL     1      87.231  69.072  87.806  0.00  0.00    +0.000 C 
ATOM      2  C   UNL     1      87.606  70.026  88.905  0.00  0.00    +0.000 C 
ATOM      3  N   UNL     1      87.338  70.523  87.557  0.00  0.00    +0.000 N 
ENDROOT
BRANCH   1   8
ATOM      4  C   UNL     1      91.258  65.605  85.363  0.00  0.00    +0.000 C 
ATOM      5  C   UNL     1      90.243  66.498  86.014  0.00  0.00    +0.000 A 
ATOM      6  C   UNL     1      89.206  65.956  86.778  0.00  0.00    +0.000 A 
ATOM      7  C   UNL     1      88.243  66.789  87.359  0.00  0.00    +0.000 A 
ATOM      8  C   UNL     1      88.282  68.183  87.191  0.00  0.00    +0.000 A 
ATOM      9  C   UNL     1      89.320  68.706  86.404  0.00  0.00    +0.000 A 
ATOM     10  C   UNL     1      90.286  67.881  85.820  0.00  0.00    +0.000 A 
ENDBRANCH   1   8
BRANCH   3  11
ATOM     11  C   UNL     1      86.162  71.275  87.304  0.00  0.00    +0.000 A 
ATOM     12  C   UNL     1      85.675  71.624  86.036  0.00  0.00    +0.000 A 
ATOM     13  C   UNL     1      84.500  72.373  85.896  0.00  0.00    +0.000 A 
ATOM     14  C   UNL     1      83.777  72.781  87.020  0.00  0.00    +0.000 A 
ATOM     15  C   UNL     1      84.261  72.451  88.288  0.00  0.00    +0.000 A 
ATOM     16  C   UNL     1      85.435  71.704  88.424  0.00  0.00    +0.000 A 
ATOM     17  C   UNL     1      82.538  73.613  86.871  0.00  0.00    +0.000 C 
ENDBRANCH   3  11
TORSDOF 2
ENDMDL
