MODEL 1
REMARK VINA RESULT:      -4.7      0.000      0.000
REMARK  Name = *****
REMARK  2 active torsions:
REMARK  status: ('A' for Active; 'I' for Inactive)
REMARK    1  A    between atoms: C_9  and  S_11
REMARK    2  A    between atoms: S_11  and  C_12
REMARK                            x       y       z     vdW  Elec       q    Type
REMARK                         _______ _______ _______ _____ _____    ______ ____
ROOT
ATOM      1  C   UNL     1     104.464 128.715  82.107  0.00  0.00    +0.000 C 
ATOM      2  C   UNL     1     104.517 128.421  80.603  0.00  0.00    +0.000 C 
ATOM      3  C   UNL     1     103.603 127.490  80.241  0.00  0.00    +0.000 C 
ATOM      4  C   UNL     1     102.725 127.250  81.419  0.00  0.00    +0.000 C 
ATOM      5  C   UNL     1     103.834 127.403  82.493  0.00  0.00    +0.000 C 
ATOM      6  C   UNL     1     103.168 126.854  83.753  0.00  0.00    +0.000 C 
ATOM      7  C   UNL     1     102.784 125.478  83.126  0.00  0.00    +0.000 C 
ATOM      8  C   UNL     1     101.893 126.096  82.035  0.00  0.00    +0.000 C 
ATOM      9  C   UNL     1     100.983 126.835  83.019  0.00  0.00    +0.000 C 
ATOM     10  C   UNL     1     101.762 127.354  83.988  0.00  0.00    +0.000 C 
ENDROOT
BRANCH   9  11
ATOM     11  S   UNL     1      99.304 127.055  82.800  0.00  0.00    +0.000 S 
BRANCH  11  12
ATOM     12  C   UNL     1      99.059 128.504  83.813  0.00  0.00    +0.000 A 
ATOM     13  C   UNL     1      99.487 129.754  83.354  0.00  0.00    +0.000 A 
ATOM     14  C   UNL     1      99.290 130.895  84.134  0.00  0.00    +0.000 A 
ATOM     15  C   UNL     1      98.659 130.794  85.373  0.00  0.00    +0.000 A 
ATOM     16  C   UNL     1      98.221 129.552  85.832  0.00  0.00    +0.000 A 
ATOM     17  C   UNL     1      98.417 128.410  85.053  0.00  0.00    +0.000 A 
ENDBRANCH  11  12
ENDBRANCH   9  11
TORSDOF 2
ENDMDL
