MODEL 1
REMARK VINA RESULT:      -3.6      0.000      0.000
REMARK  Name = *****
REMARK  5 active torsions:
REMARK  status: ('A' for Active; 'I' for Inactive)
REMARK    1  A    between atoms: C_1  and  C_2
REMARK    2  A    between atoms: N_7  and  S_8
REMARK    3  A    between atoms: S_8  and  S_9
REMARK    4  A    between atoms: S_9  and  N_10
REMARK    5  A    between atoms: C_15  and  C_16
REMARK                            x       y       z     vdW  Elec       q    Type
REMARK                         _______ _______ _______ _____ _____    ______ ____
ROOT
ATOM      1  S   UNL     1      88.365  65.029  85.638  0.00  0.00    +0.000 S 
ENDROOT
BRANCH   1   8
ATOM      2  C   UNL     1      85.537  64.293  87.332  0.00  0.00    +0.000 C 
ATOM      3  C   UNL     1      86.776  63.404  87.140  0.00  0.00    +0.000 C 
ATOM      4  C   UNL     1      86.874  62.332  88.239  0.00  0.00    +0.000 C 
ATOM      5  C   UNL     1      87.283  62.911  89.587  0.00  0.00    +0.000 C 
ATOM      6  C   UNL     1      88.560  63.723  89.440  0.00  0.00    +0.000 C 
ATOM      7  C   UNL     1      88.454  64.758  88.320  0.00  0.00    +0.000 C 
ATOM      8  N   UNL     1      88.034  64.175  87.038  0.00  0.00    +0.000 NA
ENDBRANCH   1   8
BRANCH   1   9
ATOM      9  S   UNL     1      89.448  66.572  86.461  0.00  0.00    +0.000 S 
BRANCH   9  10
ATOM     10  N   UNL     1      88.507  67.858  85.941  0.00  0.00    +0.000 NA
ATOM     11  C   UNL     1      88.950  68.607  84.746  0.00  0.00    +0.000 C 
ATOM     12  C   UNL     1      90.014  69.656  85.079  0.00  0.00    +0.000 C 
ATOM     13  C   UNL     1      89.527  70.619  86.156  0.00  0.00    +0.000 C 
ATOM     14  C   UNL     1      88.961  69.866  87.358  0.00  0.00    +0.000 C 
ATOM     15  C   UNL     1      87.927  68.814  86.918  0.00  0.00    +0.000 C 
ATOM     16  C   UNL     1      87.280  68.145  88.137  0.00  0.00    +0.000 C 
ENDBRANCH   9  10
ENDBRANCH   1   9
TORSDOF 3
ENDMDL
