MODEL 1
REMARK VINA RESULT:      -4.0      0.000      0.000
REMARK  Name = *****
REMARK  2 active torsions:
REMARK  status: ('A' for Active; 'I' for Inactive)
REMARK    1  A    between atoms: C_7  and  S_9
REMARK    2  A    between atoms: S_9  and  C_10
REMARK                            x       y       z     vdW  Elec       q    Type
REMARK                         _______ _______ _______ _____ _____    ______ ____
ROOT
ATOM      1  C   UNL     1      98.601 117.954  72.703  0.00  0.00    +0.000 C 
ATOM      2  C   UNL     1      99.421 116.721  73.063  0.00  0.00    +0.000 C 
ATOM      3  C   UNL     1      98.541 115.479  73.164  0.00  0.00    +0.000 C 
ATOM      4  N   UNL     1      97.403 115.681  74.059  0.00  0.00    +0.000 N 
ATOM      5  C   UNL     1      96.598 116.879  73.796  0.00  0.00    +0.000 C 
ATOM      6  C   UNL     1      97.460 118.135  73.696  0.00  0.00    +0.000 C 
ATOM      7  C   UNL     1      96.968 114.567  74.780  0.00  0.00    +0.000 C 
ATOM      8  O   UNL     1      97.551 113.487  74.777  0.00  0.00    +0.000 OA
ENDROOT
BRANCH   7   9
ATOM      9  S   UNL     1      95.513 114.743  75.755  0.00  0.00    +0.000 S 
BRANCH   9  10
ATOM     10  C   UNL     1      96.158 115.700  77.116  0.00  0.00    +0.000 A 
ATOM     11  C   UNL     1      95.375 116.724  77.662  0.00  0.00    +0.000 A 
ATOM     12  C   UNL     1      95.854 117.486  78.731  0.00  0.00    +0.000 A 
ATOM     13  C   UNL     1      97.114 117.221  79.261  0.00  0.00    +0.000 A 
ATOM     14  C   UNL     1      97.897 116.196  78.736  0.00  0.00    +0.000 A 
ATOM     15  C   UNL     1      97.417 115.433  77.668  0.00  0.00    +0.000 A 
ATOM     16 CL   UNL     1      97.704 118.162  80.575  0.00  0.00    +0.000 Cl
ENDBRANCH   9  10
ENDBRANCH   7   9
TORSDOF 2
ENDMDL
