MODEL 1
REMARK VINA RESULT:      -5.1      0.000      0.000
REMARK  Name = *****
REMARK  2 active torsions:
REMARK  status: ('A' for Active; 'I' for Inactive)
REMARK    1  A    between atoms: C_1  and  C_2
REMARK    2  A    between atoms: C_10  and  C_12
REMARK                            x       y       z     vdW  Elec       q    Type
REMARK                         _______ _______ _______ _____ _____    ______ ____
ROOT
ATOM      1  C   UNL     1     105.671 125.046  82.699  0.00  0.00    +0.000 C 
ATOM      2  C   UNL     1     104.455 124.177  82.287  0.00  0.00    +0.000 C 
ATOM      3  C   UNL     1     104.585 122.778  82.950  0.00  0.00    +0.000 C 
ATOM      4  C   UNL     1     105.546 121.858  82.251  0.00  0.00    +0.000 C 
ATOM      5  C   UNL     1     105.997 122.071  81.006  0.00  0.00    +0.000 C 
ATOM      6  C   UNL     1     105.576 123.242  80.166  0.00  0.00    +0.000 C 
ATOM      7  C   UNL     1     104.365 123.998  80.745  0.00  0.00    +0.000 C 
ATOM      8  C   UNL     1     104.149 125.330  80.008  0.00  0.00    +0.000 C 
ATOM      9  C   UNL     1     103.169 126.239  80.693  0.00  0.00    +0.000 C 
ATOM     10  C   UNL     1     102.708 126.031  81.940  0.00  0.00    +0.000 C 
ATOM     11  C   UNL     1     103.152 124.861  82.789  0.00  0.00    +0.000 C 
ENDROOT
BRANCH  10  12
ATOM     12  C   UNL     1     101.749 126.980  82.535  0.00  0.00    +0.000 A 
ATOM     13  C   UNL     1     102.205 128.124  83.203  0.00  0.00    +0.000 A 
ATOM     14  C   UNL     1     101.299 129.027  83.764  0.00  0.00    +0.000 A 
ATOM     15  C   UNL     1      99.929 128.794  83.666  0.00  0.00    +0.000 A 
ATOM     16  C   UNL     1      99.464 127.657  83.005  0.00  0.00    +0.000 A 
ATOM     17  C   UNL     1     100.370 126.755  82.442  0.00  0.00    +0.000 A 
ENDBRANCH  10  12
TORSDOF 1
ENDMDL
