REMARK  Name = *****
REMARK  3 active torsions:
REMARK  status: ('A' for Active; 'I' for Inactive)
REMARK    1  A    between atoms: C_4  and  C_7
REMARK    2  A    between atoms: C_7  and  C_8
REMARK    3  A    between atoms: C_8  and  C_9
REMARK                            x       y       z     vdW  Elec       q    Type
REMARK                         _______ _______ _______ _____ _____    ______ ____
ROOT
ATOM      1  C   UNL     1      -3.545  -0.986  -0.268  0.00  0.00    +0.000 C 
ATOM      2 BR   UNL     1      -5.419  -0.616  -0.750  0.00  0.00    +0.000 Br
ENDROOT
BRANCH   1   3
ATOM      3  C   UNL     1      -3.526  -1.660   1.087  0.00  0.00    +0.000 A 
ATOM      4  C   UNL     1      -3.961  -1.007   2.253  0.00  0.00    +0.000 A 
ATOM      5  C   UNL     1      -3.912  -1.650   3.492  0.00  0.00    +0.000 A 
ATOM      6  C   UNL     1      -3.425  -2.951   3.585  0.00  0.00    +0.000 A 
ATOM      7  C   UNL     1      -2.988  -3.612   2.440  0.00  0.00    +0.000 A 
ATOM      8  C   UNL     1      -3.037  -2.972   1.200  0.00  0.00    +0.000 A 
ENDBRANCH   1   3
BRANCH   1   9
ATOM      9  C   UNL     1      -2.741   0.318  -0.364  0.00  0.00    +0.000 C 
BRANCH   9  13
ATOM     10  C   UNL     1       1.513  -0.412  -0.313  0.00  0.00    +0.000 A 
ATOM     11  C   UNL     1       0.813  -0.448  -1.517  0.00  0.00    +0.000 A 
ATOM     12  C   UNL     1      -0.561  -0.206  -1.535  0.00  0.00    +0.000 A 
ATOM     13  C   UNL     1      -1.247   0.080  -0.346  0.00  0.00    +0.000 A 
ATOM     14  C   UNL     1      -0.534   0.111   0.860  0.00  0.00    +0.000 A 
ATOM     15  C   UNL     1       0.840  -0.133   0.875  0.00  0.00    +0.000 A 
ENDBRANCH   9  13
ENDBRANCH   1   9
TORSDOF 3
