MODEL 1
REMARK VINA RESULT:      -4.7      0.000      0.000
REMARK  Name = *****
REMARK  4 active torsions:
REMARK  status: ('A' for Active; 'I' for Inactive)
REMARK    1  A    between atoms: C_1  and  C_2
REMARK    2  A    between atoms: C_4  and  C_8
REMARK    3  A    between atoms: C_5  and  C_7
REMARK    4  A    between atoms: C_9  and  C_10
REMARK                            x       y       z     vdW  Elec       q    Type
REMARK                         _______ _______ _______ _____ _____    ______ ____
ROOT
ATOM      1  C   UNL     1      88.621  68.495  86.857  0.00  0.00    +0.000 C 
ATOM      2  C   UNL     1      89.019  69.621  87.473  0.00  0.00    +0.000 C 
ENDROOT
BRANCH   1   6
ATOM      3  C   UNL     1      91.640  64.847  85.012  0.00  0.00    +0.000 C 
ATOM      4  C   UNL     1      90.780  66.011  85.300  0.00  0.00    +0.000 A 
ATOM      5  C   UNL     1      90.108  66.443  86.422  0.00  0.00    +0.000 A 
ATOM      6  C   UNL     1      89.449  67.647  86.060  0.00  0.00    +0.000 A 
ATOM      7  C   UNL     1      89.765  67.870  84.732  0.00  0.00    +0.000 A 
ATOM      8  O   UNL     1      90.575  66.876  84.269  0.00  0.00    +0.000 OA
ATOM      9  C   UNL     1      89.416  68.925  83.756  0.00  0.00    +0.000 C 
ENDBRANCH   1   6
BRANCH   2  10
ATOM     10  C   UNL     1      88.131  70.470  88.280  0.00  0.00    +0.000 A 
ATOM     11  C   UNL     1      86.903  70.936  87.794  0.00  0.00    +0.000 A 
ATOM     12  C   UNL     1      86.078  71.715  88.607  0.00  0.00    +0.000 A 
ATOM     13  C   UNL     1      86.458  72.028  89.911  0.00  0.00    +0.000 A 
ATOM     14  C   UNL     1      87.671  71.554  90.408  0.00  0.00    +0.000 A 
ATOM     15  C   UNL     1      88.499  70.774  89.598  0.00  0.00    +0.000 A 
ATOM     16 CL   UNL     1      84.575  72.289  87.997  0.00  0.00    +0.000 Cl
ENDBRANCH   2  10
TORSDOF 2
ENDMDL
