REMARK  Name = *****
REMARK  4 active torsions:
REMARK  status: ('A' for Active; 'I' for Inactive)
REMARK    1  A    between atoms: C_4  and  C_8
REMARK    2  A    between atoms: C_8  and  O_9
REMARK    3  A    between atoms: O_9  and  C_10
REMARK    4  A    between atoms: C_10  and  C_12
REMARK                            x       y       z     vdW  Elec       q    Type
REMARK                         _______ _______ _______ _____ _____    ______ ____
ROOT
ATOM      1  O   UNL     1       3.787  -0.878  -0.404  0.00  0.00    +0.000 OA
ENDROOT
BRANCH   1   2
ATOM      2  C   UNL     1       4.664   0.019   0.110  0.00  0.00    +0.000 C 
ATOM      3  O   UNL     1       4.563   0.591   1.183  0.00  0.00    +0.000 OA
BRANCH   2   4
ATOM      4  C   UNL     1       5.799   0.234  -0.829  0.00  0.00    +0.000 A 
ATOM      5  C   UNL     1       5.900  -0.437  -2.056  0.00  0.00    +0.000 A 
ATOM      6  C   UNL     1       6.986  -0.196  -2.900  0.00  0.00    +0.000 A 
ATOM      7  C   UNL     1       7.975   0.714  -2.526  0.00  0.00    +0.000 A 
ATOM      8  C   UNL     1       7.881   1.386  -1.308  0.00  0.00    +0.000 A 
ATOM      9  C   UNL     1       6.797   1.147  -0.461  0.00  0.00    +0.000 A 
ENDBRANCH   2   4
ENDBRANCH   1   2
BRANCH   1  10
ATOM     10  C   UNL     1       2.625  -1.181   0.386  0.00  0.00    +0.000 C 
BRANCH  10  14
ATOM     11  C   UNL     1      -0.150   0.090   1.299  0.00  0.00    +0.000 C 
ATOM     12  C   UNL     1      -0.129   1.115   0.161  0.00  0.00    +0.000 C 
ATOM     13  C   UNL     1       1.259   0.838  -0.458  0.00  0.00    +0.000 C 
ATOM     14  C   UNL     1       1.377  -0.719  -0.365  0.00  0.00    +0.000 C 
ATOM     15  C   UNL     1       0.062  -1.104   0.361  0.00  0.00    +0.000 C 
ATOM     16  C   UNL     1      -1.072  -0.837  -0.605  0.00  0.00    +0.000 C 
ATOM     17  C   UNL     1      -1.179   0.495  -0.731  0.00  0.00    +0.000 C 
ENDBRANCH  10  14
ENDBRANCH   1  10
TORSDOF 4
