REMARK  Name = *****
REMARK  1 active torsions:
REMARK  status: ('A' for Active; 'I' for Inactive)
REMARK    1  A    between atoms: C_10  and  C_13
REMARK                            x       y       z     vdW  Elec       q    Type
REMARK                         _______ _______ _______ _____ _____    ______ ____
ROOT
ATOM      1  C   UNL     1      -1.472   0.296   0.234  0.00  0.00    +0.000 C 
ATOM      2  C   UNL     1      -0.477   1.447   0.122  0.00  0.00    +0.000 C 
ATOM      3  C   UNL     1       0.971   1.101   0.469  0.00  0.00    +0.000 C 
ATOM      4  C   UNL     1       1.633   0.233  -0.600  0.00  0.00    +0.000 C 
ATOM      5  C   UNL     1       1.448  -1.281  -0.415  0.00  0.00    +0.000 C 
ATOM      6  C   UNL     1       0.058  -1.723   0.066  0.00  0.00    +0.000 C 
ATOM      7  C   UNL     1      -1.113  -0.963  -0.554  0.00  0.00    +0.000 C 
ATOM      8  O   UNL     1       1.703  -1.886  -1.706  0.00  0.00    +0.000 OA
ATOM      9  O   UNL     1       2.181  -3.256  -1.448  0.00  0.00    +0.000 OA
ATOM     10  C   UNL     1       3.512  -3.137  -0.909  0.00  0.00    +0.000 C 
ATOM     11  O   UNL     1       3.670  -1.940  -0.128  0.00  0.00    +0.000 OA
ATOM     12  O   UNL     1       2.395  -1.744   0.578  0.00  0.00    +0.000 OA
ENDROOT
BRANCH  10  13
ATOM     13  C   UNL     1       4.589  -3.176  -1.981  0.00  0.00    +0.000 A 
ATOM     14  C   UNL     1       4.284  -3.244  -3.350  0.00  0.00    +0.000 A 
ATOM     15  C   UNL     1       5.301  -3.286  -4.309  0.00  0.00    +0.000 A 
ATOM     16  C   UNL     1       6.634  -3.263  -3.907  0.00  0.00    +0.000 A 
ATOM     17  C   UNL     1       6.960  -3.197  -2.555  0.00  0.00    +0.000 A 
ATOM     18  C   UNL     1       5.943  -3.155  -1.598  0.00  0.00    +0.000 A 
ATOM     19 CL   UNL     1       7.884  -3.314  -5.087  0.00  0.00    +0.000 Cl
ENDBRANCH  10  13
TORSDOF 1
