REMARK  Name = *****
REMARK  1 active torsions:
REMARK  status: ('A' for Active; 'I' for Inactive)
REMARK    1  A    between atoms: C_10  and  C_13
REMARK                            x       y       z     vdW  Elec       q    Type
REMARK                         _______ _______ _______ _____ _____    ______ ____
ROOT
ATOM      1  C   UNL     1      -1.502   0.249   0.212  0.00  0.00    +0.000 C 
ATOM      2  C   UNL     1      -0.514   1.409   0.282  0.00  0.00    +0.000 C 
ATOM      3  C   UNL     1       0.913   1.035   0.683  0.00  0.00    +0.000 C 
ATOM      4  C   UNL     1       1.650   0.284  -0.424  0.00  0.00    +0.000 C 
ATOM      5  C   UNL     1       1.470  -1.242  -0.408  0.00  0.00    +0.000 C 
ATOM      6  C   UNL     1       0.057  -1.736  -0.064  0.00  0.00    +0.000 C 
ATOM      7  C   UNL     1      -1.080  -0.921  -0.677  0.00  0.00    +0.000 C 
ATOM      8  O   UNL     1       1.813  -1.708  -1.735  0.00  0.00    +0.000 OA
ATOM      9  O   UNL     1       2.275  -3.101  -1.593  0.00  0.00    +0.000 OA
ATOM     10  C   UNL     1       3.563  -3.050  -0.947  0.00  0.00    +0.000 C 
ATOM     11  O   UNL     1       3.673  -1.931  -0.050  0.00  0.00    +0.000 OA
ATOM     12  O   UNL     1       2.356  -1.799   0.592  0.00  0.00    +0.000 OA
ENDROOT
BRANCH  10  13
ATOM     13  C   UNL     1       4.719  -3.016  -1.929  0.00  0.00    +0.000 A 
ATOM     14  C   UNL     1       4.531  -2.821  -3.306  0.00  0.00    +0.000 A 
ATOM     15  C   UNL     1       5.621  -2.798  -4.179  0.00  0.00    +0.000 A 
ATOM     16  C   UNL     1       6.914  -2.969  -3.689  0.00  0.00    +0.000 A 
ATOM     17  C   UNL     1       7.120  -3.159  -2.325  0.00  0.00    +0.000 A 
ATOM     18  C   UNL     1       6.031  -3.182  -1.451  0.00  0.00    +0.000 A 
ENDBRANCH  10  13
TORSDOF 1
