MODEL 1
REMARK VINA RESULT:      -4.4      0.000      0.000
REMARK  Name = *****
REMARK  1 active torsions:
REMARK  status: ('A' for Active; 'I' for Inactive)
REMARK    1  A    between atoms: C_4  and  C_7
REMARK                            x       y       z     vdW  Elec       q    Type
REMARK                         _______ _______ _______ _____ _____    ______ ____
ROOT
ATOM      1  C   UNL     1      87.893  70.692  86.983  0.00  0.00    +0.000 C 
ATOM      2  C   UNL     1      88.208  69.390  86.868  0.00  0.00    +0.000 C 
ATOM      3  S   UNL     1      87.183  68.091  87.437  0.00  0.00    +0.000 S 
ATOM      4  C   UNL     1      88.281  66.794  86.916  0.00  0.00    +0.000 A 
ATOM      5  C   UNL     1      88.005  65.442  87.110  0.00  0.00    +0.000 A 
ATOM      6  C   UNL     1      88.922  64.485  86.670  0.00  0.00    +0.000 A 
ATOM      7  C   UNL     1      90.107  64.881  86.041  0.00  0.00    +0.000 A 
ATOM      8  C   UNL     1      90.380  66.238  85.848  0.00  0.00    +0.000 A 
ATOM      9  C   UNL     1      89.464  67.190  86.287  0.00  0.00    +0.000 A 
ATOM     10  S   UNL     1      89.714  68.939  86.093  0.00  0.00    +0.000 S 
ENDROOT
BRANCH   1  14
ATOM     11  C   UNL     1      84.379  72.358  88.737  0.00  0.00    +0.000 A 
ATOM     12  C   UNL     1      85.430  71.944  89.553  0.00  0.00    +0.000 A 
ATOM     13  C   UNL     1      86.581  71.395  88.986  0.00  0.00    +0.000 A 
ATOM     14  C   UNL     1      86.684  71.252  87.598  0.00  0.00    +0.000 A 
ATOM     15  C   UNL     1      85.628  71.675  86.784  0.00  0.00    +0.000 A 
ATOM     16  C   UNL     1      84.478  72.224  87.352  0.00  0.00    +0.000 A 
ENDBRANCH   1  14
TORSDOF 1
ENDMDL
