MODEL 1
REMARK VINA RESULT:      -3.4      0.000      0.000
REMARK  Name = *****
REMARK  4 active torsions:
REMARK  status: ('A' for Active; 'I' for Inactive)
REMARK    1  A    between atoms: C_1  and  C_2
REMARK    2  A    between atoms: C_3  and  S_7
REMARK    3  A    between atoms: S_7  and  S_8
REMARK    4  A    between atoms: S_8  and  C_9
REMARK                            x       y       z     vdW  Elec       q    Type
REMARK                         _______ _______ _______ _____ _____    ______ ____
ROOT
ATOM      1  S   UNL     1     102.262 127.824  83.415  0.00  0.00    +0.000 S 
ENDROOT
BRANCH   1   4
ATOM      2  C   UNL     1      99.684 130.147  83.972  0.00  0.00    +0.000 C 
ATOM      3  C   UNL     1      99.617 128.796  83.379  0.00  0.00    +0.000 A 
ATOM      4  C   UNL     1     100.545 127.811  83.114  0.00  0.00    +0.000 A 
ATOM      5  C   UNL     1      99.837 126.727  82.544  0.00  0.00    +0.000 A 
ATOM      6  C   UNL     1      98.523 127.125  82.479  0.00  0.00    +0.000 A 
ATOM      7  O   UNL     1      98.379 128.379  82.979  0.00  0.00    +0.000 OA
ENDBRANCH   1   4
BRANCH   1   8
ATOM      8  S   UNL     1     102.663 125.904  84.035  0.00  0.00    +0.000 S 
BRANCH   8   9
ATOM      9  C   UNL     1     103.332 125.273  82.537  0.00  0.00    +0.000 A 
ATOM     10  C   UNL     1     103.177 125.828  81.284  0.00  0.00    +0.000 A 
ATOM     11  C   UNL     1     103.852 125.078  80.275  0.00  0.00    +0.000 A 
ATOM     12  C   UNL     1     104.507 123.986  80.798  0.00  0.00    +0.000 A 
ATOM     13  S   UNL     1     104.310 123.871  82.494  0.00  0.00    +0.000 S 
ENDBRANCH   8   9
ENDBRANCH   1   8
TORSDOF 3
ENDMDL
