MODEL 1
REMARK VINA RESULT:      -5.0      0.000      0.000
REMARK  Name = *****
REMARK  2 active torsions:
REMARK  status: ('A' for Active; 'I' for Inactive)
REMARK    1  A    between atoms: C_5  and  C_7
REMARK    2  A    between atoms: C_8  and  C_9
REMARK                            x       y       z     vdW  Elec       q    Type
REMARK                         _______ _______ _______ _____ _____    ______ ____
ROOT
ATOM      1  C   UNL     1     103.944 124.555  81.454  0.00  0.00    +0.000 A 
ATOM      2  C   UNL     1     104.359 123.512  82.284  0.00  0.00    +0.000 A 
ATOM      3  C   UNL     1     105.365 122.641  81.876  0.00  0.00    +0.000 A 
ATOM      4  C   UNL     1     105.965 122.804  80.635  0.00  0.00    +0.000 A 
ATOM      5  C   UNL     1     105.562 123.839  79.802  0.00  0.00    +0.000 A 
ATOM      6  C   UNL     1     104.556 124.710  80.209  0.00  0.00    +0.000 A 
ATOM      7  F   UNL     1     104.181 125.703  79.388  0.00  0.00    +0.000 F 
ATOM      8  F   UNL     1     106.142 123.997  78.604  0.00  0.00    +0.000 F 
ATOM      9  F   UNL     1     106.934 121.965  80.243  0.00  0.00    +0.000 F 
ATOM     10  F   UNL     1     105.753 121.643  82.682  0.00  0.00    +0.000 F 
ATOM     11  F   UNL     1     103.789 123.337  83.487  0.00  0.00    +0.000 F 
ENDROOT
BRANCH   1  13
ATOM     12  C   UNL     1     102.040 126.200  82.225  0.00  0.00    +0.000 C 
ATOM     13  C   UNL     1     102.909 125.447  81.877  0.00  0.00    +0.000 C 
BRANCH  12  18
ATOM     14  C   UNL     1     100.251 129.101  83.683  0.00  0.00    +0.000 A 
ATOM     15  C   UNL     1      98.949 128.728  83.364  0.00  0.00    +0.000 A 
ATOM     16  C   UNL     1      98.755 127.535  82.684  0.00  0.00    +0.000 A 
ATOM     17  N   UNL     1      99.758 126.710  82.311  0.00  0.00    +0.000 NA
ATOM     18  C   UNL     1     101.009 127.099  82.634  0.00  0.00    +0.000 A 
ATOM     19  C   UNL     1     101.307 128.273  83.312  0.00  0.00    +0.000 A 
ENDBRANCH  12  18
ENDBRANCH   1  13
TORSDOF 2
ENDMDL
