MODEL 1
REMARK VINA RESULT:      -4.0      0.000      0.000
REMARK  Name = *****
REMARK  5 active torsions:
REMARK  status: ('A' for Active; 'I' for Inactive)
REMARK    1  A    between atoms: C_1  and  C_2
REMARK    2  A    between atoms: C_4  and  C_16
REMARK    3  A    between atoms: C_6  and  O_8
REMARK    4  A    between atoms: O_8  and  C_9
REMARK    5  A    between atoms: C_9  and  C_11
REMARK                            x       y       z     vdW  Elec       q    Type
REMARK                         _______ _______ _______ _____ _____    ______ ____
ROOT
ATOM      1  C   UNL     1      89.201  63.818  90.732  0.00  0.00    +0.000 C 
ATOM      2  C   UNL     1      87.903  64.392  90.158  0.00  0.00    +0.000 C 
ATOM      3  C   UNL     1      86.742  63.391  90.262  0.00  0.00    +0.000 C 
ATOM      4  C   UNL     1      86.849  62.233  89.258  0.00  0.00    +0.000 C 
ATOM      5  C   UNL     1      87.016  62.761  87.829  0.00  0.00    +0.000 C 
ATOM      6  C   UNL     1      88.208  63.715  87.708  0.00  0.00    +0.000 C 
ATOM      7  C   UNL     1      88.084  64.866  88.711  0.00  0.00    +0.000 C 
ATOM      8  C   UNL     1      85.623  61.325  89.356  0.00  0.00    +0.000 C 
ENDROOT
BRANCH   6   9
ATOM      9  O   UNL     1      88.231  64.299  86.392  0.00  0.00    +0.000 OA
BRANCH   9  10
ATOM     10  C   UNL     1      89.466  64.524  85.851  0.00  0.00    +0.000 C 
ATOM     11  O   UNL     1      90.313  63.652  85.690  0.00  0.00    +0.000 OA
BRANCH  10  12
ATOM     12  C   UNL     1      89.597  65.929  85.511  0.00  0.00    +0.000 A 
ATOM     13  C   UNL     1      89.914  67.007  86.320  0.00  0.00    +0.000 A 
ATOM     14  C   UNL     1      89.945  68.240  85.605  0.00  0.00    +0.000 A 
ATOM     15  C   UNL     1      89.648  68.068  84.272  0.00  0.00    +0.000 A 
ATOM     16  S   UNL     1      89.337  66.431  83.891  0.00  0.00    +0.000 S 
ENDBRANCH  10  12
ENDBRANCH   9  10
ENDBRANCH   6   9
TORSDOF 3
ENDMDL
