MODEL 1
REMARK VINA RESULT:      -4.7      0.000      0.000
REMARK  Name = *****
REMARK  4 active torsions:
REMARK  status: ('A' for Active; 'I' for Inactive)
REMARK    1  A    between atoms: C_4  and  C_7
REMARK    2  A    between atoms: C_7  and  C_8
REMARK    3  A    between atoms: C_8  and  C_16
REMARK    4  A    between atoms: C_9  and  C_10
REMARK                            x       y       z     vdW  Elec       q    Type
REMARK                         _______ _______ _______ _____ _____    ______ ____
ROOT
ATOM      1  C   UNL     1      89.677  68.926  85.520  0.00  0.00    +0.000 C 
ATOM      2  C   UNL     1      90.023  67.978  86.411  0.00  0.00    +0.000 C 
ENDROOT
BRANCH   2   3
ATOM      3  C   UNL     1      90.118  66.542  86.148  0.00  0.00    +0.000 A 
ATOM      4  C   UNL     1      89.096  65.686  86.570  0.00  0.00    +0.000 A 
ATOM      5  C   UNL     1      89.191  64.314  86.333  0.00  0.00    +0.000 A 
ATOM      6  C   UNL     1      90.305  63.793  85.676  0.00  0.00    +0.000 A 
ATOM      7  C   UNL     1      91.326  64.644  85.254  0.00  0.00    +0.000 A 
ATOM      8  C   UNL     1      91.234  66.017  85.487  0.00  0.00    +0.000 A 
ENDBRANCH   2   3
BRANCH   1   9
ATOM      9  C   UNL     1      89.314  68.576  84.118  0.00  0.00    +0.000 C 
ATOM     10  O   UNL     1      90.107  68.662  83.186  0.00  0.00    +0.000 OA
ENDBRANCH   1   9
BRANCH   1  11
ATOM     11  C   UNL     1      89.589  70.384  85.892  0.00  0.00    +0.000 C 
BRANCH  11  15
ATOM     12  C   UNL     1      85.744  71.529  87.490  0.00  0.00    +0.000 A 
ATOM     13  C   UNL     1      85.991  71.634  86.123  0.00  0.00    +0.000 A 
ATOM     14  C   UNL     1      87.232  71.259  85.606  0.00  0.00    +0.000 A 
ATOM     15  C   UNL     1      88.238  70.770  86.450  0.00  0.00    +0.000 A 
ATOM     16  C   UNL     1      87.981  70.675  87.827  0.00  0.00    +0.000 A 
ATOM     17  C   UNL     1      86.739  71.050  88.342  0.00  0.00    +0.000 A 
ENDBRANCH  11  15
ENDBRANCH   1  11
TORSDOF 4
ENDMDL
