MODEL 1
REMARK VINA RESULT:      -4.4      0.000      0.000
REMARK  Name = *****
REMARK  3 active torsions:
REMARK  status: ('A' for Active; 'I' for Inactive)
REMARK    1  A    between atoms: C_6  and  C_7
REMARK    2  A    between atoms: N_9  and  C_10
REMARK    3  A    between atoms: N_9  and  O_17
REMARK                            x       y       z     vdW  Elec       q    Type
REMARK                         _______ _______ _______ _____ _____    ______ ____
ROOT
ATOM      1  C   UNL     1     100.443 127.147  83.059  0.00  0.00    +0.000 C 
ATOM      2  O   UNL     1      99.676 126.569  82.289  0.00  0.00    +0.000 OA
ATOM      3  N   UNL     1     101.794 126.866  83.241  0.00  0.00    +0.000 N 
ENDROOT
BRANCH   1   9
ATOM      4  C   UNL     1      99.903 129.570  83.507  0.00  0.00    +0.000 A 
ATOM      5  C   UNL     1      99.296 130.550  84.296  0.00  0.00    +0.000 A 
ATOM      6  C   UNL     1      98.609 130.181  85.454  0.00  0.00    +0.000 A 
ATOM      7  C   UNL     1      98.516 128.840  85.827  0.00  0.00    +0.000 A 
ATOM      8  C   UNL     1      99.124 127.859  85.040  0.00  0.00    +0.000 A 
ATOM      9  C   UNL     1      99.836 128.224  83.889  0.00  0.00    +0.000 A 
ATOM     10 BR   UNL     1      97.788 131.509  86.518  0.00  0.00    +0.000 Br
ENDBRANCH   1   9
BRANCH   3  11
ATOM     11  C   UNL     1     102.615 125.996  82.469  0.00  0.00    +0.000 A 
ATOM     12  C   UNL     1     102.825 126.180  81.095  0.00  0.00    +0.000 A 
ATOM     13  C   UNL     1     103.636 125.302  80.361  0.00  0.00    +0.000 A 
ATOM     14  C   UNL     1     104.253 124.230  80.995  0.00  0.00    +0.000 A 
ATOM     15  C   UNL     1     104.067 124.028  82.358  0.00  0.00    +0.000 A 
ATOM     16  C   UNL     1     103.256 124.905  83.086  0.00  0.00    +0.000 A 
ATOM     17 CL   UNL     1     105.247 123.154  80.094  0.00  0.00    +0.000 Cl
ENDBRANCH   3  11
BRANCH   3  18
ATOM     18  O   UNL     1     102.461 127.528  84.299  0.00  0.00    +0.000 OA
ATOM     19  H   UNL     1     102.803 128.378  83.984  0.00  0.00    +0.000 HD
ENDBRANCH   3  18
TORSDOF 3
ENDMDL
