MODEL 1
REMARK VINA RESULT:      -4.9      0.000      0.000
REMARK  Name = *****
REMARK  1 active torsions:
REMARK  status: ('A' for Active; 'I' for Inactive)
REMARK    1  A    between atoms: C_2  and  C_11
REMARK                            x       y       z     vdW  Elec       q    Type
REMARK                         _______ _______ _______ _____ _____    ______ ____
ROOT
ATOM      1  C   UNL     1     101.767 125.989  82.051  0.00  0.00    +0.000 C 
ATOM      2  C   UNL     1     103.220 126.398  81.761  0.00  0.00    +0.000 C 
ATOM      3  C   UNL     1     103.874 126.972  83.018  0.00  0.00    +0.000 C 
ATOM      4  S   UNL     1     103.136 128.566  83.483  0.00  0.00    +0.000 S 
ATOM      5  C   UNL     1     101.398 128.230  83.246  0.00  0.00    +0.000 A 
ATOM      6  C   UNL     1     100.504 129.195  83.737  0.00  0.00    +0.000 A 
ATOM      7  C   UNL     1      99.124 129.034  83.601  0.00  0.00    +0.000 A 
ATOM      8  C   UNL     1      98.621 127.902  82.971  0.00  0.00    +0.000 A 
ATOM      9  C   UNL     1      99.498 126.938  82.475  0.00  0.00    +0.000 A 
ATOM     10  C   UNL     1     100.894 127.095  82.592  0.00  0.00    +0.000 A 
ENDROOT
BRANCH   2  11
ATOM     11  C   UNL     1     104.015 125.221  81.211  0.00  0.00    +0.000 A 
ATOM     12  C   UNL     1     104.058 124.016  81.929  0.00  0.00    +0.000 A 
ATOM     13  C   UNL     1     104.779 122.923  81.447  0.00  0.00    +0.000 A 
ATOM     14  C   UNL     1     105.469 123.019  80.242  0.00  0.00    +0.000 A 
ATOM     15  C   UNL     1     105.438 124.208  79.517  0.00  0.00    +0.000 A 
ATOM     16  C   UNL     1     104.717 125.302  79.998  0.00  0.00    +0.000 A 
ENDBRANCH   2  11
TORSDOF 1
ENDMDL
