MODEL 1
REMARK VINA RESULT:      -4.9      0.000      0.000
REMARK  Name = *****
REMARK  6 active torsions:
REMARK  status: ('A' for Active; 'I' for Inactive)
REMARK    1  A    between atoms: C_1  and  C_2
REMARK    2  A    between atoms: C_5  and  C_8
REMARK    3  A    between atoms: C_8  and  P_11
REMARK    4  A    between atoms: P_11  and  C_13
REMARK    5  A    between atoms: P_11  and  O_19
REMARK    6  A    between atoms: O_19  and  C_20
REMARK                            x       y       z     vdW  Elec       q    Type
REMARK                         _______ _______ _______ _____ _____    ______ ____
ROOT
ATOM      1  C   UNL     1      88.576  70.222  86.926  0.00  0.00    +0.000 C 
ATOM      2  F   UNL     1      89.672  70.983  87.211  0.00  0.00    +0.000 F 
ATOM      3  F   UNL     1      88.793  69.012  87.520  0.00  0.00    +0.000 F 
ENDROOT
BRANCH   1   8
ATOM      4  C   UNL     1      83.605  72.807  88.509  0.00  0.00    +0.000 C 
ATOM      5  C   UNL     1      84.870  72.112  88.099  0.00  0.00    +0.000 A 
ATOM      6  C   UNL     1      85.759  71.630  89.065  0.00  0.00    +0.000 A 
ATOM      7  C   UNL     1      86.951  71.009  88.683  0.00  0.00    +0.000 A 
ATOM      8  C   UNL     1      87.281  70.872  87.329  0.00  0.00    +0.000 A 
ATOM      9  C   UNL     1      86.395  71.369  86.363  0.00  0.00    +0.000 A 
ATOM     10  C   UNL     1      85.203  71.988  86.746  0.00  0.00    +0.000 A 
ENDBRANCH   1   8
BRANCH   1  11
ATOM     11  P   UNL     1      88.861  69.828  85.176  0.00  0.00    +0.000 P 
ATOM     12  O   UNL     1      87.642  69.249  84.487  0.00  0.00    +0.000 OA
BRANCH  11  13
ATOM     13  C   UNL     1      89.583  71.230  84.347  0.00  0.00    +0.000 A 
ATOM     14  C   UNL     1      88.835  72.384  84.077  0.00  0.00    +0.000 A 
ATOM     15  C   UNL     1      89.418  73.470  83.421  0.00  0.00    +0.000 A 
ATOM     16  C   UNL     1      90.754  73.415  83.031  0.00  0.00    +0.000 A 
ATOM     17  C   UNL     1      91.511  72.275  83.298  0.00  0.00    +0.000 A 
ATOM     18  C   UNL     1      90.928  71.190  83.953  0.00  0.00    +0.000 A 
ENDBRANCH  11  13
BRANCH  11  19
ATOM     19  O   UNL     1      90.067  68.724  85.206  0.00  0.00    +0.000 OA
ATOM     20  C   UNL     1      89.822  67.465  84.606  0.00  0.00    +0.000 C 
ENDBRANCH  11  19
ENDBRANCH   1  11
TORSDOF 4
ENDMDL
