REMARK  Name = *****
REMARK  5 active torsions:
REMARK  status: ('A' for Active; 'I' for Inactive)
REMARK    1  A    between atoms: C_1  and  C_2
REMARK    2  A    between atoms: C_7  and  C_8
REMARK    3  A    between atoms: C_8  and  C_9
REMARK    4  A    between atoms: C_8  and  C_10
REMARK    5  A    between atoms: C_10  and  C_11
REMARK                            x       y       z     vdW  Elec       q    Type
REMARK                         _______ _______ _______ _____ _____    ______ ____
ROOT
ATOM      1  C   UNL     1       0.922  -2.220  -0.471  0.00  0.00    +0.000 C 
ATOM      2  C   UNL     1       0.712  -2.701  -1.917  0.00  0.00    +0.000 C 
ENDROOT
BRANCH   1   9
ATOM      3  C   UNL     1      -2.130  -1.932  -0.570  0.00  0.00    +0.000 C 
ATOM      4  C   UNL     1      -1.216  -0.792  -0.205  0.00  0.00    +0.000 A 
ATOM      5  C   UNL     1      -1.833   0.447   0.067  0.00  0.00    +0.000 A 
ATOM      6  C   UNL     1      -1.086   1.560   0.438  0.00  0.00    +0.000 A 
ATOM      7  C   UNL     1       0.291   1.451   0.545  0.00  0.00    +0.000 A 
ATOM      8  C   UNL     1       0.919   0.236   0.260  0.00  0.00    +0.000 A 
ATOM      9  C   UNL     1       0.198  -0.904  -0.150  0.00  0.00    +0.000 A 
ENDBRANCH   1   9
BRANCH   1  10
ATOM     10  C   UNL     1       2.421  -2.341  -0.060  0.00  0.00    +0.000 C 
BRANCH  10  11
ATOM     11  C   UNL     1       3.536  -1.758  -0.910  0.00  0.00    +0.000 A 
ATOM     12  C   UNL     1       3.356  -0.772  -1.888  0.00  0.00    +0.000 A 
ATOM     13  C   UNL     1       4.442  -0.270  -2.613  0.00  0.00    +0.000 A 
ATOM     14  C   UNL     1       5.728  -0.741  -2.366  0.00  0.00    +0.000 A 
ATOM     15  C   UNL     1       5.931  -1.711  -1.390  0.00  0.00    +0.000 A 
ATOM     16  C   UNL     1       4.846  -2.211  -0.667  0.00  0.00    +0.000 A 
ENDBRANCH  10  11
ENDBRANCH   1  10
TORSDOF 3
