MODEL 1
REMARK VINA RESULT:      -4.7      0.000      0.000
REMARK  Name = *****
REMARK  5 active torsions:
REMARK  status: ('A' for Active; 'I' for Inactive)
REMARK    1  A    between atoms: C_1  and  C_2
REMARK    2  A    between atoms: C_4  and  C_18
REMARK    3  A    between atoms: C_5  and  C_9
REMARK    4  A    between atoms: C_6  and  C_8
REMARK    5  A    between atoms: C_10  and  C_12
REMARK                            x       y       z     vdW  Elec       q    Type
REMARK                         _______ _______ _______ _____ _____    ______ ____
ROOT
ATOM      1  C   UNL     1      84.801  59.870  90.602  0.00  0.00    +0.000 C 
ATOM      2  C   UNL     1      85.476  61.180  90.328  0.00  0.00    +0.000 A 
ATOM      3  C   UNL     1      86.116  61.409  89.112  0.00  0.00    +0.000 A 
ATOM      4  C   UNL     1      86.725  62.645  88.831  0.00  0.00    +0.000 A 
ATOM      5  C   UNL     1      86.661  63.714  89.763  0.00  0.00    +0.000 A 
ATOM      6  C   UNL     1      86.026  63.460  91.006  0.00  0.00    +0.000 A 
ATOM      7  C   UNL     1      85.426  62.214  91.264  0.00  0.00    +0.000 A 
ATOM      8  C   UNL     1      85.937  64.521  92.074  0.00  0.00    +0.000 C 
ATOM      9  C   UNL     1      87.404  62.811  87.496  0.00  0.00    +0.000 C 
ENDROOT
BRANCH   5  10
ATOM     10  C   UNL     1      87.290  65.062  89.444  0.00  0.00    +0.000 C 
ATOM     11  C   UNL     1      86.927  65.789  88.152  0.00  0.00    +0.000 C 
ATOM     12  O   UNL     1      86.444  66.224  89.428  0.00  0.00    +0.000 OA
BRANCH  11  13
ATOM     13  C   UNL     1      87.968  66.635  87.456  0.00  0.00    +0.000 A 
ATOM     14  C   UNL     1      87.848  68.035  87.418  0.00  0.00    +0.000 A 
ATOM     15  C   UNL     1      88.802  68.834  86.782  0.00  0.00    +0.000 A 
ATOM     16  C   UNL     1      89.904  68.248  86.169  0.00  0.00    +0.000 A 
ATOM     17  C   UNL     1      90.053  66.865  86.196  0.00  0.00    +0.000 A 
ATOM     18  C   UNL     1      89.096  66.071  86.835  0.00  0.00    +0.000 A 
ENDBRANCH  11  13
ENDBRANCH   5  10
TORSDOF 2
ENDMDL
