MODEL 1
REMARK VINA RESULT:      -4.6      0.000      0.000
REMARK  Name = *****
REMARK  4 active torsions:
REMARK  status: ('A' for Active; 'I' for Inactive)
REMARK    1  A    between atoms: C_1  and  C_2
REMARK    2  A    between atoms: C_5  and  C_8
REMARK    3  A    between atoms: C_9  and  C_11
REMARK    4  A    between atoms: C_14  and  C_17
REMARK                            x       y       z     vdW  Elec       q    Type
REMARK                         _______ _______ _______ _____ _____    ______ ____
ROOT
ATOM      1  C   UNL     1      87.704  63.992  86.182  0.00  0.00    +0.000 C 
ATOM      2  C   UNL     1      87.447  63.032  87.332  0.00  0.00    +0.000 C 
ATOM      3  O   UNL     1      86.374  63.649  86.604  0.00  0.00    +0.000 OA
ENDROOT
BRANCH   1   8
ATOM      4  C   UNL     1      89.546  69.488  86.963  0.00  0.00    +0.000 C 
ATOM      5  C   UNL     1      89.075  68.074  86.794  0.00  0.00    +0.000 A 
ATOM      6  C   UNL     1      89.972  67.065  86.433  0.00  0.00    +0.000 A 
ATOM      7  C   UNL     1      89.525  65.754  86.244  0.00  0.00    +0.000 A 
ATOM      8  C   UNL     1      88.173  65.408  86.405  0.00  0.00    +0.000 A 
ATOM      9  C   UNL     1      87.284  66.438  86.748  0.00  0.00    +0.000 A 
ATOM     10  C   UNL     1      87.724  67.753  86.938  0.00  0.00    +0.000 A 
ENDBRANCH   1   8
BRANCH   2  11
ATOM     11  C   UNL     1      87.646  63.432  88.773  0.00  0.00    +0.000 A 
ATOM     12  C   UNL     1      88.923  63.534  89.347  0.00  0.00    +0.000 A 
ATOM     13  C   UNL     1      89.101  63.921  90.679  0.00  0.00    +0.000 A 
ATOM     14  C   UNL     1      87.997  64.227  91.478  0.00  0.00    +0.000 A 
ATOM     15  C   UNL     1      86.718  64.137  90.924  0.00  0.00    +0.000 A 
ATOM     16  C   UNL     1      86.549  63.749  89.591  0.00  0.00    +0.000 A 
ATOM     17  C   UNL     1      88.168  64.640  92.910  0.00  0.00    +0.000 C 
ENDBRANCH   2  11
TORSDOF 2
ENDMDL
