MODEL 1
REMARK VINA RESULT:      -4.0      0.000      0.000
REMARK  Name = *****
REMARK  7 active torsions:
REMARK  status: ('A' for Active; 'I' for Inactive)
REMARK    1  A    between atoms: C_3  and  C_9
REMARK    2  A    between atoms: C_4  and  S_8
REMARK    3  A    between atoms: C_5  and  S_7
REMARK    4  A    between atoms: C_9  and  C_10
REMARK    5  A    between atoms: C_10  and  C_11
REMARK    6  A    between atoms: C_12  and  S_18
REMARK    7  A    between atoms: C_13  and  S_17
REMARK                            x       y       z     vdW  Elec       q    Type
REMARK                         _______ _______ _______ _____ _____    ______ ____
ROOT
ATOM      1  C   UNL     1     102.956 125.298  83.531  0.00  0.00    +0.000 C 
ENDROOT
BRANCH   1   4
ATOM      2  C   UNL     1     104.367 124.676  80.061  0.00  0.00    +0.000 A 
ATOM      3  C   UNL     1     103.690 125.229  81.143  0.00  0.00    +0.000 A 
ATOM      4  C   UNL     1     103.740 124.629  82.416  0.00  0.00    +0.000 A 
ATOM      5  C   UNL     1     104.486 123.438  82.588  0.00  0.00    +0.000 A 
ATOM      6  C   UNL     1     105.174 122.883  81.482  0.00  0.00    +0.000 A 
ATOM      7  C   UNL     1     105.105 123.509  80.230  0.00  0.00    +0.000 A 
BRANCH   6   8
ATOM      8  S   UNL     1     106.154 121.380  81.559  0.00  0.00    +0.000 S 
ATOM      9  H   UNL     1     107.340 121.579  80.920  0.00  0.00    +0.000 HD
ENDBRANCH   6   8
BRANCH   5  10
ATOM     10  S   UNL     1     104.546 122.626  84.195  0.00  0.00    +0.000 S 
ATOM     11  H   UNL     1     103.402 122.891  84.879  0.00  0.00    +0.000 HD
ENDBRANCH   5  10
ENDBRANCH   1   4
BRANCH   1  12
ATOM     12  C   UNL     1     102.846 126.817  83.320  0.00  0.00    +0.000 C 
BRANCH  12  13
ATOM     13  C   UNL     1     101.452 127.418  83.211  0.00  0.00    +0.000 A 
ATOM     14  C   UNL     1     101.182 128.722  83.711  0.00  0.00    +0.000 A 
ATOM     15  C   UNL     1      99.881 129.271  83.594  0.00  0.00    +0.000 A 
ATOM     16  C   UNL     1      98.863 128.522  82.994  0.00  0.00    +0.000 A 
ATOM     17  C   UNL     1      99.120 127.245  82.510  0.00  0.00    +0.000 A 
ATOM     18  C   UNL     1     100.398 126.699  82.617  0.00  0.00    +0.000 A 
BRANCH  15  19
ATOM     19  S   UNL     1      99.419 130.902  84.184  0.00  0.00    +0.000 S 
ATOM     20  H   UNL     1      98.063 130.987  84.264  0.00  0.00    +0.000 HD
ENDBRANCH  15  19
BRANCH  14  21
ATOM     21  S   UNL     1     102.493 129.678  84.504  0.00  0.00    +0.000 S 
ATOM     22  H   UNL     1     103.519 129.853  83.628  0.00  0.00    +0.000 HD
ENDBRANCH  14  21
ENDBRANCH  12  13
ENDBRANCH   1  12
TORSDOF 7
ENDMDL
