REMARK  Name = *****
REMARK  4 active torsions:
REMARK  status: ('A' for Active; 'I' for Inactive)
REMARK    1  A    between atoms: C_1  and  O_2
REMARK    2  A    between atoms: O_2  and  C_3
REMARK    3  A    between atoms: C_3  and  C_11
REMARK    4  A    between atoms: N_4  and  C_5
REMARK                            x       y       z     vdW  Elec       q    Type
REMARK                         _______ _______ _______ _____ _____    ______ ____
ROOT
ATOM      1  C   UNL     1       2.892   0.184  -1.458  0.00  0.00    +0.000 C 
ATOM      2  N   UNL     1       2.269   0.529  -2.535  0.00  0.00    +0.000 NA
ENDROOT
BRANCH   1   3
ATOM      3  C   UNL     1       4.364   0.123  -1.323  0.00  0.00    +0.000 C 
ATOM      4  C   UNL     1       5.188  -0.496  -2.190  0.00  0.00    +0.000 C 
ATOM      5  C   UNL     1       4.754  -1.264  -3.418  0.00  0.00    +0.000 C 
ATOM      6  C   UNL     1       5.349  -2.674  -3.423  0.00  0.00    +0.000 C 
ATOM      7  C   UNL     1       6.865  -2.658  -3.238  0.00  0.00    +0.000 C 
ATOM      8  C   UNL     1       7.263  -1.889  -1.979  0.00  0.00    +0.000 C 
ATOM      9  C   UNL     1       6.684  -0.474  -1.977  0.00  0.00    +0.000 C 
ENDBRANCH   1   3
BRANCH   2  10
ATOM     10  C   UNL     1       0.883   0.706  -2.558  0.00  0.00    +0.000 A 
ATOM     11  C   UNL     1       0.265   1.744  -1.854  0.00  0.00    +0.000 A 
ATOM     12  C   UNL     1      -1.119   1.920  -1.919  0.00  0.00    +0.000 A 
ATOM     13  C   UNL     1      -1.893   1.068  -2.704  0.00  0.00    +0.000 A 
ATOM     14  C   UNL     1      -1.283   0.046  -3.432  0.00  0.00    +0.000 A 
ATOM     15  C   UNL     1       0.101  -0.126  -3.363  0.00  0.00    +0.000 A 
ENDBRANCH   2  10
BRANCH   1  17
ATOM     16  C   UNL     1       1.354  -1.121  -0.196  0.00  0.00    +0.000 C 
ATOM     17  O   UNL     1       2.369  -0.111  -0.240  0.00  0.00    +0.000 OA
ENDBRANCH   1  17
TORSDOF 3
