MODEL 1
REMARK VINA RESULT:      -4.1      0.000      0.000
REMARK  Name = *****
REMARK  4 active torsions:
REMARK  status: ('A' for Active; 'I' for Inactive)
REMARK    1  A    between atoms: C_4  and  C_7
REMARK    2  A    between atoms: C_7  and  O_8
REMARK    3  A    between atoms: O_8  and  C_9
REMARK    4  A    between atoms: C_11  and  S_15
REMARK                            x       y       z     vdW  Elec       q    Type
REMARK                         _______ _______ _______ _____ _____    ______ ____
ROOT
ATOM      1  O   UNL     1      88.620  69.967  86.990  0.00  0.00    +0.000 OA
ENDROOT
BRANCH   1   2
ATOM      2  C   UNL     1      88.776  68.611  86.904  0.00  0.00    +0.000 A 
ATOM      3  C   UNL     1      89.795  67.940  86.224  0.00  0.00    +0.000 A 
ATOM      4  C   UNL     1      89.834  66.539  86.219  0.00  0.00    +0.000 A 
ATOM      5  C   UNL     1      88.847  65.811  86.887  0.00  0.00    +0.000 A 
ATOM      6  C   UNL     1      87.829  66.478  87.568  0.00  0.00    +0.000 A 
ATOM      7  C   UNL     1      87.798  67.872  87.574  0.00  0.00    +0.000 A 
BRANCH   4   8
ATOM      8  S   UNL     1      91.129  65.677  85.352  0.00  0.00    +0.000 S 
ATOM      9  H   UNL     1      92.313  66.312  85.561  0.00  0.00    +0.000 HD
ENDBRANCH   4   8
ENDBRANCH   1   2
BRANCH   1  10
ATOM     10  C   UNL     1      87.941  70.617  85.914  0.00  0.00    +0.000 C 
BRANCH  10  14
ATOM     11  C   UNL     1      84.317  72.429  87.410  0.00  0.00    +0.000 A 
ATOM     12  C   UNL     1      84.538  72.346  86.036  0.00  0.00    +0.000 A 
ATOM     13  C   UNL     1      85.713  71.769  85.552  0.00  0.00    +0.000 A 
ATOM     14  C   UNL     1      86.686  71.278  86.436  0.00  0.00    +0.000 A 
ATOM     15  C   UNL     1      86.446  71.358  87.815  0.00  0.00    +0.000 A 
ATOM     16  C   UNL     1      85.270  71.935  88.299  0.00  0.00    +0.000 A 
ENDBRANCH  10  14
ENDBRANCH   1  10
TORSDOF 4
ENDMDL
