MODEL 1
REMARK VINA RESULT:      -4.9      0.000      0.000
REMARK  Name = *****
REMARK  4 active torsions:
REMARK  status: ('A' for Active; 'I' for Inactive)
REMARK    1  A    between atoms: C_1  and  C_2
REMARK    2  A    between atoms: C_4  and  C_8
REMARK    3  A    between atoms: C_8  and  O_10
REMARK    4  A    between atoms: O_10  and  C_11
REMARK                            x       y       z     vdW  Elec       q    Type
REMARK                         _______ _______ _______ _____ _____    ______ ____
ROOT
ATOM      1  C   UNL     1     101.659 126.261  84.431  0.00  0.00    +0.000 C 
ATOM      2  O   UNL     1     101.373 125.300  85.130  0.00  0.00    +0.000 OA
ENDROOT
BRANCH   1   6
ATOM      3  C   UNL     1      99.681 130.904  84.063  0.00  0.00    +0.000 C 
ATOM      4  C   UNL     1      99.686 129.449  83.695  0.00  0.00    +0.000 A 
ATOM      5  C   UNL     1     100.659 128.586  84.220  0.00  0.00    +0.000 A 
ATOM      6  C   UNL     1     100.646 127.218  83.905  0.00  0.00    +0.000 A 
ATOM      7  C   UNL     1      99.641 126.717  83.068  0.00  0.00    +0.000 A 
ATOM      8  C   UNL     1      98.662 127.567  82.555  0.00  0.00    +0.000 A 
ATOM      9  C   UNL     1      98.682 128.925  82.871  0.00  0.00    +0.000 A 
ENDBRANCH   1   6
BRANCH   1  10
ATOM     10  O   UNL     1     102.922 126.630  84.004  0.00  0.00    +0.000 OA
BRANCH  10  11
ATOM     11  C   UNL     1     103.181 126.310  82.669  0.00  0.00    +0.000 A 
ATOM     12  C   UNL     1     103.148 127.300  81.688  0.00  0.00    +0.000 A 
ATOM     13  C   UNL     1     103.461 126.952  80.378  0.00  0.00    +0.000 A 
ATOM     14  C   UNL     1     103.816 125.650  80.044  0.00  0.00    +0.000 A 
ATOM     15  C   UNL     1     103.862 124.687  81.045  0.00  0.00    +0.000 A 
ATOM     16  C   UNL     1     103.553 125.003  82.364  0.00  0.00    +0.000 A 
ATOM     17  F   UNL     1     104.216 123.433  80.736  0.00  0.00    +0.000 F 
ATOM     18  F   UNL     1     103.428 127.890  79.423  0.00  0.00    +0.000 F 
ENDBRANCH  10  11
ENDBRANCH   1  10
TORSDOF 3
ENDMDL
