MODEL 1
REMARK VINA RESULT:      -5.1      0.000      0.000
REMARK  Name = *****
REMARK  2 active torsions:
REMARK  status: ('A' for Active; 'I' for Inactive)
REMARK    1  A    between atoms: C_1  and  C_2
REMARK    2  A    between atoms: C_5  and  C_8
REMARK                            x       y       z     vdW  Elec       q    Type
REMARK                         _______ _______ _______ _____ _____    ______ ____
ROOT
ATOM      1  C   UNL     1     102.927 125.793  82.789  0.00  0.00    +0.000 C 
ATOM      2  C   UNL     1     101.678 125.944  82.314  0.00  0.00    +0.000 C 
ATOM      3  C   UNL     1     100.773 127.039  82.698  0.00  0.00    +0.000 A 
ATOM      4  C   UNL     1      99.405 126.928  82.417  0.00  0.00    +0.000 A 
ATOM      5  C   UNL     1      98.525 127.959  82.752  0.00  0.00    +0.000 A 
ATOM      6  C   UNL     1      99.007 129.112  83.366  0.00  0.00    +0.000 A 
ATOM      7  C   UNL     1     100.369 129.237  83.641  0.00  0.00    +0.000 A 
ATOM      8  C   UNL     1     101.262 128.202  83.318  0.00  0.00    +0.000 A 
ATOM      9  C   UNL     1     102.738 128.395  83.545  0.00  0.00    +0.000 C 
ATOM     10  S   UNL     1     103.624 126.869  83.958  0.00  0.00    +0.000 S 
ENDROOT
BRANCH   1  15
ATOM     11  C   UNL     1     106.204 121.332  81.040  0.00  0.00    +0.000 C 
ATOM     12  C   UNL     1     105.334 122.468  81.492  0.00  0.00    +0.000 A 
ATOM     13  C   UNL     1     104.816 123.378  80.565  0.00  0.00    +0.000 A 
ATOM     14  C   UNL     1     104.036 124.458  80.992  0.00  0.00    +0.000 A 
ATOM     15  C   UNL     1     103.762 124.654  82.355  0.00  0.00    +0.000 A 
ATOM     16  C   UNL     1     104.297 123.745  83.279  0.00  0.00    +0.000 A 
ATOM     17  C   UNL     1     105.082 122.668  82.854  0.00  0.00    +0.000 A 
ENDBRANCH   1  15
TORSDOF 1
ENDMDL
