REMARK  Name = *****
REMARK  4 active torsions:
REMARK  status: ('A' for Active; 'I' for Inactive)
REMARK    1  A    between atoms: C_1  and  C_2
REMARK    2  A    between atoms: C_3  and  C_9
REMARK    3  A    between atoms: N_11  and  C_12
REMARK    4  A    between atoms: N_11  and  C_13
REMARK                            x       y       z     vdW  Elec       q    Type
REMARK                         _______ _______ _______ _____ _____    ______ ____
ROOT
ATOM      1  C   UNL     1      -2.034   2.567   0.499  0.00  0.00    +0.000 C 
ATOM      2  O   UNL     1      -2.687   2.643   1.536  0.00  0.00    +0.000 OA
ATOM      3  N   UNL     1      -1.801   3.584  -0.449  0.00  0.00    +0.000 N 
ATOM      4  C   UNL     1      -0.935   3.357  -1.611  0.00  0.00    +0.000 C 
ENDROOT
BRANCH   1   7
ATOM      5  C   UNL     1       0.770   2.014   1.336  0.00  0.00    +0.000 C 
ATOM      6  C   UNL     1      -0.084   0.975   0.661  0.00  0.00    +0.000 A 
ATOM      7  C   UNL     1      -1.410   1.246   0.269  0.00  0.00    +0.000 A 
ATOM      8  C   UNL     1      -2.216   0.265  -0.327  0.00  0.00    +0.000 A 
ATOM      9  C   UNL     1      -1.696  -1.000  -0.580  0.00  0.00    +0.000 A 
ATOM     10  C   UNL     1      -0.376  -1.281  -0.234  0.00  0.00    +0.000 A 
ATOM     11  C   UNL     1       0.422  -0.306   0.380  0.00  0.00    +0.000 A 
ATOM     12 CL   UNL     1       2.051  -0.740   0.763  0.00  0.00    +0.000 Cl
ENDBRANCH   1   7
BRANCH   3  13
ATOM     13  C   UNL     1      -2.341   4.917  -0.285  0.00  0.00    +0.000 A 
ATOM     14  C   UNL     1      -3.438   5.186   0.546  0.00  0.00    +0.000 A 
ATOM     15  C   UNL     1      -3.957   6.480   0.685  0.00  0.00    +0.000 A 
ATOM     16  C   UNL     1      -3.390   7.541  -0.010  0.00  0.00    +0.000 A 
ATOM     17  C   UNL     1      -2.305   7.306  -0.845  0.00  0.00    +0.000 A 
ATOM     18  C   UNL     1      -1.790   6.010  -0.982  0.00  0.00    +0.000 A 
ENDBRANCH   3  13
TORSDOF 2
