MODEL 1
REMARK VINA RESULT:      -4.1      0.000      0.000
REMARK  Name = *****
REMARK  3 active torsions:
REMARK  status: ('A' for Active; 'I' for Inactive)
REMARK    1  A    between atoms: C_4  and  C_7
REMARK    2  A    between atoms: C_7  and  O_8
REMARK    3  A    between atoms: O_8  and  C_9
REMARK                            x       y       z     vdW  Elec       q    Type
REMARK                         _______ _______ _______ _____ _____    ______ ____
ROOT
ATOM      1  O   UNL     1      90.250  67.925  86.593  0.00  0.00    +0.000 OA
ENDROOT
BRANCH   1   2
ATOM      2  C   UNL     1      90.203  66.602  86.245  0.00  0.00    +0.000 A 
ATOM      3  C   UNL     1      91.154  65.942  85.483  0.00  0.00    +0.000 A 
ATOM      4  N   UNL     1      91.066  64.631  85.169  0.00  0.00    +0.000 NA
ATOM      5  N   UNL     1      90.005  63.907  85.614  0.00  0.00    +0.000 NA
ATOM      6  C   UNL     1      89.059  64.511  86.365  0.00  0.00    +0.000 A 
ATOM      7  C   UNL     1      89.117  65.852  86.706  0.00  0.00    +0.000 A 
ATOM      8 CL   UNL     1      87.885  66.598  87.668  0.00  0.00    +0.000 Cl
ATOM      9 CL   UNL     1      87.792  63.449  86.842  0.00  0.00    +0.000 Cl
ENDBRANCH   1   2
BRANCH   1  10
ATOM     10  C   UNL     1      89.817  68.887  85.629  0.00  0.00    +0.000 C 
BRANCH  10  14
ATOM     11  C   UNL     1      86.968  70.991  88.201  0.00  0.00    +0.000 C 
ATOM     12  C   UNL     1      88.434  70.978  88.617  0.00  0.00    +0.000 C 
ATOM     13  C   UNL     1      89.220  69.893  87.883  0.00  0.00    +0.000 C 
ATOM     14  C   UNL     1      89.076  70.018  86.356  0.00  0.00    +0.000 C 
ATOM     15  C   UNL     1      87.596  70.037  85.949  0.00  0.00    +0.000 C 
ATOM     16  C   UNL     1      86.817  71.123  86.689  0.00  0.00    +0.000 C 
ENDBRANCH  10  14
ENDBRANCH   1  10
TORSDOF 3
ENDMDL
