MODEL 1
REMARK VINA RESULT:      -4.6      0.000      0.000
REMARK  Name = *****
REMARK  3 active torsions:
REMARK  status: ('A' for Active; 'I' for Inactive)
REMARK    1  A    between atoms: C_3  and  N_16
REMARK    2  A    between atoms: C_6  and  C_7
REMARK    3  A    between atoms: C_8  and  C_9
REMARK                            x       y       z     vdW  Elec       q    Type
REMARK                         _______ _______ _______ _____ _____    ______ ____
ROOT
ATOM      1  C   UNL     1     104.757 123.414  80.791  0.00  0.00    +0.000 A 
ATOM      2  C   UNL     1     105.854 122.955  80.053  0.00  0.00    +0.000 A 
ATOM      3  C   UNL     1     106.489 123.783  79.126  0.00  0.00    +0.000 A 
ATOM      4  C   UNL     1     106.077 125.113  79.031  0.00  0.00    +0.000 A 
ATOM      5  C   UNL     1     104.981 125.578  79.767  0.00  0.00    +0.000 A 
ATOM      6  C   UNL     1     104.295 124.726  80.639  0.00  0.00    +0.000 A 
ENDROOT
BRANCH   3   7
ATOM      7  N   UNL     1     107.660 123.359  78.488  0.00  0.00    +0.000 N 
ATOM      8  H   UNL     1     107.879 122.400  78.447  0.00  0.00    +0.000 HD
ATOM      9  H   UNL     1     108.266 124.020  78.082  0.00  0.00    +0.000 HD
ENDBRANCH   3   7
BRANCH   6  10
ATOM     10  C   UNL     1     103.172 125.260  81.423  0.00  0.00    +0.000 C 
ATOM     11  C   UNL     1     102.970 126.570  81.637  0.00  0.00    +0.000 C 
BRANCH  11  12
ATOM     12  C   UNL     1     101.847 127.107  82.418  0.00  0.00    +0.000 A 
ATOM     13  C   UNL     1     101.979 128.235  83.240  0.00  0.00    +0.000 A 
ATOM     14  C   UNL     1     100.879 128.735  83.945  0.00  0.00    +0.000 A 
ATOM     15  C   UNL     1      99.638 128.114  83.821  0.00  0.00    +0.000 A 
ATOM     16  C   UNL     1      99.485 127.003  82.996  0.00  0.00    +0.000 A 
ATOM     17  C   UNL     1     100.587 126.506  82.292  0.00  0.00    +0.000 A 
ATOM     18 CL   UNL     1      98.285 128.728  84.688  0.00  0.00    +0.000 Cl
ENDBRANCH  11  12
ENDBRANCH   6  10
TORSDOF 3
ENDMDL
