MODEL 1
REMARK VINA RESULT:      -4.6      0.000      0.000
REMARK  Name = *****
REMARK  4 active torsions:
REMARK  status: ('A' for Active; 'I' for Inactive)
REMARK    1  A    between atoms: C_1  and  C_2
REMARK    2  A    between atoms: C_5  and  N_8
REMARK    3  A    between atoms: N_8  and  C_9
REMARK    4  A    between atoms: C_9  and  C_10
REMARK                            x       y       z     vdW  Elec       q    Type
REMARK                         _______ _______ _______ _____ _____    ______ ____
ROOT
ATOM      1  N   UNL     1      88.090  70.560  88.020  0.00  0.00    +0.000 N 
ATOM      2  O   UNL     1      88.496  70.582  89.227  0.00  0.00    +0.000 OA
ENDROOT
BRANCH   1   7
ATOM      3  C   UNL     1      83.087  73.040  86.644  0.00  0.00    +0.000 C 
ATOM      4  C   UNL     1      84.379  72.371  87.009  0.00  0.00    +0.000 A 
ATOM      5  C   UNL     1      85.287  71.992  86.010  0.00  0.00    +0.000 A 
ATOM      6  C   UNL     1      86.501  71.394  86.348  0.00  0.00    +0.000 A 
ATOM      7  C   UNL     1      86.821  71.193  87.693  0.00  0.00    +0.000 A 
ATOM      8  C   UNL     1      85.924  71.563  88.701  0.00  0.00    +0.000 A 
ATOM      9  C   UNL     1      84.712  72.160  88.355  0.00  0.00    +0.000 A 
ENDBRANCH   1   7
BRANCH   1  10
ATOM     10  C   UNL     1      88.746  69.982  87.039  0.00  0.00    +0.000 C 
BRANCH  10  11
ATOM     11  C   UNL     1      88.941  68.533  86.857  0.00  0.00    +0.000 A 
ATOM     12  C   UNL     1      90.068  67.954  86.268  0.00  0.00    +0.000 A 
ATOM     13  C   UNL     1      90.168  66.562  86.161  0.00  0.00    +0.000 A 
ATOM     14  C   UNL     1      89.148  65.750  86.650  0.00  0.00    +0.000 A 
ATOM     15  C   UNL     1      88.027  66.318  87.251  0.00  0.00    +0.000 A 
ATOM     16  C   UNL     1      87.926  67.708  87.358  0.00  0.00    +0.000 A 
ATOM     17 CL   UNL     1      89.275  64.041  86.519  0.00  0.00    +0.000 Cl
ENDBRANCH  10  11
ENDBRANCH   1  10
TORSDOF 3
ENDMDL
