MODEL 1
REMARK VINA RESULT:      -5.3      0.000      0.000
REMARK  Name = *****
REMARK  2 active torsions:
REMARK  status: ('A' for Active; 'I' for Inactive)
REMARK    1  A    between atoms: C_1  and  C_2
REMARK    2  A    between atoms: C_5  and  C_8
REMARK                            x       y       z     vdW  Elec       q    Type
REMARK                         _______ _______ _______ _____ _____    ______ ____
ROOT
ATOM      1  C   UNL     1     102.115 126.553  82.629  0.00  0.00    +0.000 C 
ATOM      2  C   UNL     1     100.809 126.467  82.346  0.00  0.00    +0.000 C 
ATOM      3  C   UNL     1      99.737 127.393  82.817  0.00  0.00    +0.000 C 
ATOM      4  C   UNL     1     100.183 128.685  83.449  0.00  0.00    +0.000 A 
ATOM      5  C   UNL     1      99.210 129.678  83.678  0.00  0.00    +0.000 A 
ATOM      6  C   UNL     1      99.547 130.890  84.276  0.00  0.00    +0.000 A 
ATOM      7  C   UNL     1     100.862 131.127  84.661  0.00  0.00    +0.000 A 
ATOM      8  C   UNL     1     101.832 130.148  84.448  0.00  0.00    +0.000 A 
ATOM      9  C   UNL     1     101.506 128.923  83.845  0.00  0.00    +0.000 A 
ATOM     10  S   UNL     1     102.829 127.750  83.638  0.00  0.00    +0.000 S 
ENDROOT
BRANCH   1  15
ATOM     11  C   UNL     1     105.726 122.588  80.459  0.00  0.00    +0.000 C 
ATOM     12  C   UNL     1     104.769 123.601  81.015  0.00  0.00    +0.000 A 
ATOM     13  C   UNL     1     104.241 124.605  80.195  0.00  0.00    +0.000 A 
ATOM     14  C   UNL     1     103.377 125.568  80.721  0.00  0.00    +0.000 A 
ATOM     15  C   UNL     1     103.042 125.551  82.081  0.00  0.00    +0.000 A 
ATOM     16  C   UNL     1     103.578 124.554  82.905  0.00  0.00    +0.000 A 
ATOM     17  C   UNL     1     104.441 123.590  82.376  0.00  0.00    +0.000 A 
ENDBRANCH   1  15
TORSDOF 1
ENDMDL
