MODEL 1
REMARK VINA RESULT:      -4.3      0.000      0.000
REMARK  Name = *****
REMARK  5 active torsions:
REMARK  status: ('A' for Active; 'I' for Inactive)
REMARK    1  A    between atoms: C_1  and  C_2
REMARK    2  A    between atoms: C_2  and  C_14
REMARK    3  A    between atoms: N_3  and  O_4
REMARK    4  A    between atoms: O_4  and  C_5
REMARK    5  A    between atoms: C_5  and  C_6
REMARK                            x       y       z     vdW  Elec       q    Type
REMARK                         _______ _______ _______ _____ _____    ______ ____
ROOT
ATOM      1  O   UNL     1      89.051  68.547  87.137  0.00  0.00    +0.000 OA
ENDROOT
BRANCH   1   4
ATOM      2  C   UNL     1      91.125  65.997  85.536  0.00  0.00    +0.000 C 
ATOM      3  C   UNL     1      89.968  66.696  86.221  0.00  0.00    +0.000 C 
ATOM      4  N   UNL     1      90.125  67.970  86.443  0.00  0.00    +0.000 NA
BRANCH   3   5
ATOM      5  C   UNL     1      88.798  65.902  86.584  0.00  0.00    +0.000 A 
ATOM      6  C   UNL     1      88.551  65.186  87.742  0.00  0.00    +0.000 A 
ATOM      7  C   UNL     1      87.287  64.527  87.729  0.00  0.00    +0.000 A 
ATOM      8  C   UNL     1      86.599  64.761  86.561  0.00  0.00    +0.000 A 
ATOM      9  S   UNL     1      87.475  65.770  85.495  0.00  0.00    +0.000 S 
ENDBRANCH   3   5
ENDBRANCH   1   4
BRANCH   1  10
ATOM     10  C   UNL     1      89.232  69.964  87.210  0.00  0.00    +0.000 C 
BRANCH  10  11
ATOM     11  C   UNL     1      87.894  70.661  87.249  0.00  0.00    +0.000 A 
ATOM     12  C   UNL     1      87.259  70.985  88.462  0.00  0.00    +0.000 A 
ATOM     13  C   UNL     1      86.005  71.608  88.477  0.00  0.00    +0.000 A 
ATOM     14  C   UNL     1      85.357  71.918  87.285  0.00  0.00    +0.000 A 
ATOM     15  C   UNL     1      85.964  71.602  86.075  0.00  0.00    +0.000 A 
ATOM     16  C   UNL     1      87.217  70.979  86.056  0.00  0.00    +0.000 A 
ATOM     17 CL   UNL     1      87.890  70.630  84.498  0.00  0.00    +0.000 Cl
ATOM     18 CL   UNL     1      87.971  70.649  90.003  0.00  0.00    +0.000 Cl
ENDBRANCH  10  11
ENDBRANCH   1  10
TORSDOF 4
ENDMDL
