MODEL 1
REMARK VINA RESULT:      -4.4      0.000      0.000
REMARK  Name = *****
REMARK  4 active torsions:
REMARK  status: ('A' for Active; 'I' for Inactive)
REMARK    1  A    between atoms: C_1  and  C_2
REMARK    2  A    between atoms: C_6  and  O_8
REMARK    3  A    between atoms: O_8  and  C_9
REMARK    4  A    between atoms: C_9  and  C_11
REMARK                            x       y       z     vdW  Elec       q    Type
REMARK                         _______ _______ _______ _____ _____    ______ ____
ROOT
ATOM      1  O   UNL     1     102.452 125.543  82.256  0.00  0.00    +0.000 OA
ENDROOT
BRANCH   1   7
ATOM      2  C   UNL     1     103.594 127.593  80.198  0.00  0.00    +0.000 C 
ATOM      3  C   UNL     1     104.892 126.993  80.749  0.00  0.00    +0.000 C 
ATOM      4  C   UNL     1     105.438 125.889  79.826  0.00  0.00    +0.000 C 
ATOM      5  C   UNL     1     104.791 124.551  80.040  0.00  0.00    +0.000 C 
ATOM      6  C   UNL     1     104.065 124.254  81.130  0.00  0.00    +0.000 C 
ATOM      7  C   UNL     1     103.847 125.199  82.280  0.00  0.00    +0.000 C 
ATOM      8  C   UNL     1     104.726 126.460  82.184  0.00  0.00    +0.000 C 
ENDBRANCH   1   7
BRANCH   1   9
ATOM      9  C   UNL     1     101.892 125.826  83.456  0.00  0.00    +0.000 C 
ATOM     10  O   UNL     1     102.140 125.268  84.513  0.00  0.00    +0.000 OA
BRANCH   9  11
ATOM     11  C   UNL     1     100.909 126.935  83.322  0.00  0.00    +0.000 A 
ATOM     12  C   UNL     1     101.257 128.192  83.835  0.00  0.00    +0.000 A 
ATOM     13  C   UNL     1     100.369 129.266  83.731  0.00  0.00    +0.000 A 
ATOM     14  C   UNL     1      99.132 129.090  83.112  0.00  0.00    +0.000 A 
ATOM     15  C   UNL     1      98.779 127.842  82.597  0.00  0.00    +0.000 A 
ATOM     16  C   UNL     1      99.664 126.765  82.701  0.00  0.00    +0.000 A 
ENDBRANCH   9  11
ENDBRANCH   1   9
TORSDOF 3
ENDMDL
