REMARK  Name = *****
REMARK  6 active torsions:
REMARK  status: ('A' for Active; 'I' for Inactive)
REMARK    1  A    between atoms: N_2  and  C_3
REMARK    2  A    between atoms: C_3  and  C_4
REMARK    3  A    between atoms: C_4  and  C_5
REMARK    4  A    between atoms: C_8  and  O_11
REMARK    5  A    between atoms: O_11  and  C_12
REMARK    6  A    between atoms: C_12  and  C_13
REMARK                            x       y       z     vdW  Elec       q    Type
REMARK                         _______ _______ _______ _____ _____    ______ ____
ROOT
ATOM      1  C   UNL     1       5.610  -0.019   1.353  0.00  0.00    +0.000 A 
ATOM      2  C   UNL     1       6.345   0.381   0.233  0.00  0.00    +0.000 A 
ATOM      3  C   UNL     1       7.727   0.557   0.325  0.00  0.00    +0.000 A 
ATOM      4  C   UNL     1       8.395   0.341   1.532  0.00  0.00    +0.000 A 
ATOM      5  C   UNL     1       7.672  -0.093   2.642  0.00  0.00    +0.000 A 
ATOM      6  C   UNL     1       6.287  -0.269   2.554  0.00  0.00    +0.000 A 
ENDROOT
BRANCH   1   7
ATOM      7  C   UNL     1       4.116  -0.200   1.265  0.00  0.00    +0.000 C 
BRANCH   7   8
ATOM      8  C   UNL     1       3.732  -1.636   0.928  0.00  0.00    +0.000 C 
BRANCH   8  10
ATOM      9  C   UNL     1       1.142  -1.867   0.812  0.00  0.00    +0.000 C 
ATOM     10  N   UNL     1       2.307  -1.760   0.864  0.00  0.00    +0.000 NA
ENDBRANCH   8  10
ENDBRANCH   7   8
ENDBRANCH   1   7
BRANCH   4  11
ATOM     11  O   UNL     1       9.740   0.580   1.493  0.00  0.00    +0.000 OA
BRANCH  11  12
ATOM     12  C   UNL     1      10.406   0.697   2.749  0.00  0.00    +0.000 C 
BRANCH  12  13
ATOM     13  C   UNL     1      11.765   1.307   2.509  0.00  0.00    +0.000 A 
ATOM     14  C   UNL     1      12.012   2.649   2.832  0.00  0.00    +0.000 A 
ATOM     15  C   UNL     1      13.266   3.215   2.600  0.00  0.00    +0.000 A 
ATOM     16  C   UNL     1      14.284   2.448   2.037  0.00  0.00    +0.000 A 
ATOM     17  C   UNL     1      14.048   1.116   1.701  0.00  0.00    +0.000 A 
ATOM     18  C   UNL     1      12.794   0.548   1.933  0.00  0.00    +0.000 A 
ENDBRANCH  12  13
ENDBRANCH  11  12
ENDBRANCH   4  11
TORSDOF 6
