MODEL 1
REMARK VINA RESULT:      -4.3      0.000      0.000
REMARK  Name = *****
REMARK  5 active torsions:
REMARK  status: ('A' for Active; 'I' for Inactive)
REMARK    1  A    between atoms: C_1  and  C_2
REMARK    2  A    between atoms: C_2  and  C_3
REMARK    3  A    between atoms: C_2  and  O_8
REMARK    4  A    between atoms: O_8  and  C_9
REMARK    5  A    between atoms: C_9  and  C_11
REMARK                            x       y       z     vdW  Elec       q    Type
REMARK                         _______ _______ _______ _____ _____    ______ ____
ROOT
ATOM      1  C   UNL     1      87.491  63.937  86.161  0.00  0.00    +0.000 C 
ATOM      2  O   UNL     1      86.475  64.191  85.537  0.00  0.00    +0.000 OA
ENDROOT
BRANCH   1   3
ATOM      3  C   UNL     1      88.770  64.621  85.961  0.00  0.00    +0.000 A 
ATOM      4  C   UNL     1      88.963  65.888  86.502  0.00  0.00    +0.000 A 
ATOM      5  C   UNL     1      90.167  66.566  86.309  0.00  0.00    +0.000 A 
ATOM      6  C   UNL     1      91.186  65.975  85.560  0.00  0.00    +0.000 A 
ATOM      7  C   UNL     1      90.994  64.709  85.008  0.00  0.00    +0.000 A 
ATOM      8  C   UNL     1      89.787  64.040  85.208  0.00  0.00    +0.000 A 
ATOM      9  F   UNL     1      89.623  62.837  84.638  0.00  0.00    +0.000 F 
ATOM     10  F   UNL     1      88.014  66.475  87.244  0.00  0.00    +0.000 F 
ENDBRANCH   1   3
BRANCH   1  11
ATOM     11  O   UNL     1      87.631  63.037  87.162  0.00  0.00    +0.000 OA
BRANCH  11  13
ATOM     12  C   UNL     1      86.292  61.784  88.734  0.00  0.00    +0.000 C 
ATOM     13  C   UNL     1      86.728  63.174  88.277  0.00  0.00    +0.000 C 
BRANCH  13  14
ATOM     14  C   UNL     1      87.433  63.944  89.406  0.00  0.00    +0.000 C 
ATOM     15  C   UNL     1      88.871  63.481  89.649  0.00  0.00    +0.000 C 
ATOM     16  C   UNL     1      89.230  64.099  90.994  0.00  0.00    +0.000 C 
ATOM     17  C   UNL     1      87.913  64.224  91.759  0.00  0.00    +0.000 C 
ATOM     18  C   UNL     1      86.815  63.780  90.797  0.00  0.00    +0.000 C 
ENDBRANCH  13  14
ENDBRANCH  11  13
ENDBRANCH   1  11
TORSDOF 4
ENDMDL
