REMARK  Name = *****
REMARK  1 active torsions:
REMARK  status: ('A' for Active; 'I' for Inactive)
REMARK    1  A    between atoms: N_12  and  C_13
REMARK                            x       y       z     vdW  Elec       q    Type
REMARK                         _______ _______ _______ _____ _____    ______ ____
ROOT
ATOM      1  C   UNL     1       1.085   0.626  -0.102  0.00  0.00    +0.000 C 
ATOM      2  C   UNL     1       2.404   0.392  -0.048  0.00  0.00    +0.000 C 
ATOM      3  C   UNL     1       3.153  -0.461   0.956  0.00  0.00    +0.000 C 
ATOM      4  C   UNL     1       2.532  -1.823   1.315  0.00  0.00    +0.000 C 
ATOM      5  C   UNL     1       1.452  -1.778   2.397  0.00  0.00    +0.000 C 
ATOM      6  C   UNL     1       1.873  -0.957   3.611  0.00  0.00    +0.000 C 
ATOM      7  C   UNL     1       2.377   0.428   3.224  0.00  0.00    +0.000 C 
ATOM      8  C   UNL     1       3.524   0.333   2.224  0.00  0.00    +0.000 C 
ATOM      9  O   UNL     1       4.391  -0.748   0.267  0.00  0.00    +0.000 OA
ATOM     10  C   UNL     1       4.517   0.083  -0.815  0.00  0.00    +0.000 C 
ATOM     11  O   UNL     1       5.558   0.141  -1.452  0.00  0.00    +0.000 OA
ATOM     12  N   UNL     1       3.329   0.788  -1.000  0.00  0.00    +0.000 N 
ENDROOT
BRANCH  12  13
ATOM     13  C   UNL     1       3.200   1.805  -1.995  0.00  0.00    +0.000 A 
ATOM     14  C   UNL     1       3.877   1.720  -3.220  0.00  0.00    +0.000 A 
ATOM     15  C   UNL     1       3.763   2.733  -4.178  0.00  0.00    +0.000 A 
ATOM     16  C   UNL     1       2.982   3.856  -3.922  0.00  0.00    +0.000 A 
ATOM     17  C   UNL     1       2.317   3.968  -2.706  0.00  0.00    +0.000 A 
ATOM     18  C   UNL     1       2.426   2.952  -1.752  0.00  0.00    +0.000 A 
ENDBRANCH  12  13
TORSDOF 1
