MODEL 1
REMARK VINA RESULT:      -4.5      0.000      0.000
REMARK  Name = *****
REMARK  4 active torsions:
REMARK  status: ('A' for Active; 'I' for Inactive)
REMARK    1  A    between atoms: C_1  and  N_2
REMARK    2  A    between atoms: N_2  and  C_3
REMARK    3  A    between atoms: N_2  and  C_10
REMARK    4  A    between atoms: C_3  and  C_4
REMARK                            x       y       z     vdW  Elec       q    Type
REMARK                         _______ _______ _______ _____ _____    ______ ____
ROOT
ATOM      1  C   UNL     1     104.208 128.527  81.609  0.00  0.00    +0.000 C 
ATOM      2  N   UNL     1     103.466 127.395  82.153  0.00  0.00    +0.000 N 
ENDROOT
BRANCH   2   3
ATOM      3  C   UNL     1     103.831 126.088  81.836  0.00  0.00    +0.000 A 
ATOM      4  C   UNL     1     104.129 125.688  80.520  0.00  0.00    +0.000 A 
ATOM      5  C   UNL     1     104.484 124.369  80.206  0.00  0.00    +0.000 A 
ATOM      6  C   UNL     1     104.537 123.410  81.208  0.00  0.00    +0.000 A 
ATOM      7  C   UNL     1     104.236 123.760  82.516  0.00  0.00    +0.000 A 
ATOM      8  C   UNL     1     103.885 125.082  82.819  0.00  0.00    +0.000 A 
ATOM      9 CL   UNL     1     104.971 121.790  80.827  0.00  0.00    +0.000 Cl
ENDBRANCH   2   3
BRANCH   2  10
ATOM     10  C   UNL     1     102.701 127.661  83.381  0.00  0.00    +0.000 C 
BRANCH  10  11
ATOM     11  C   UNL     1     101.200 127.728  83.169  0.00  0.00    +0.000 A 
ATOM     12  C   UNL     1     100.466 126.711  82.540  0.00  0.00    +0.000 A 
ATOM     13  C   UNL     1      99.085 126.830  82.362  0.00  0.00    +0.000 A 
ATOM     14  C   UNL     1      98.418 127.970  82.806  0.00  0.00    +0.000 A 
ATOM     15  C   UNL     1      99.130 128.991  83.429  0.00  0.00    +0.000 A 
ATOM     16  C   UNL     1     100.511 128.871  83.608  0.00  0.00    +0.000 A 
ENDBRANCH  10  11
ENDBRANCH   2  10
TORSDOF 3
ENDMDL
