MODEL 1
REMARK VINA RESULT:      -4.2      0.000      0.000
REMARK  Name = *****
REMARK  4 active torsions:
REMARK  status: ('A' for Active; 'I' for Inactive)
REMARK    1  A    between atoms: C_4  and  S_9
REMARK    2  A    between atoms: C_5  and  C_7
REMARK    3  A    between atoms: S_9  and  C_10
REMARK    4  A    between atoms: C_10  and  C_12
REMARK                            x       y       z     vdW  Elec       q    Type
REMARK                         _______ _______ _______ _____ _____    ______ ____
ROOT
ATOM      1  S   UNL     1      88.628  68.782  84.677  0.00  0.00    +0.000 S 
ENDROOT
BRANCH   1   5
ATOM      2  C   UNL     1      90.277  72.931  83.555  0.00  0.00    +0.000 A 
ATOM      3  C   UNL     1      91.073  71.791  83.512  0.00  0.00    +0.000 A 
ATOM      4  C   UNL     1      90.538  70.551  83.869  0.00  0.00    +0.000 A 
ATOM      5  C   UNL     1      89.199  70.433  84.284  0.00  0.00    +0.000 A 
ATOM      6  C   UNL     1      88.401  71.588  84.319  0.00  0.00    +0.000 A 
ATOM      7  C   UNL     1      88.945  72.831  83.955  0.00  0.00    +0.000 A 
BRANCH   6   8
ATOM      8  C   UNL     1      86.976  71.558  84.727  0.00  0.00    +0.000 C 
ATOM      9  O   UNL     1      86.635  71.665  85.901  0.00  0.00    +0.000 OA
ENDBRANCH   6   8
ENDBRANCH   1   5
BRANCH   1  10
ATOM     10  C   UNL     1      89.289  68.571  86.298  0.00  0.00    +0.000 C 
ATOM     11  O   UNL     1      90.348  67.980  86.473  0.00  0.00    +0.000 OA
BRANCH  10  12
ATOM     12  C   UNL     1      88.546  69.155  87.458  0.00  0.00    +0.000 A 
ATOM     13  C   UNL     1      88.983  70.274  88.180  0.00  0.00    +0.000 A 
ATOM     14  C   UNL     1      88.223  70.751  89.251  0.00  0.00    +0.000 A 
ATOM     15  C   UNL     1      87.031  70.130  89.615  0.00  0.00    +0.000 A 
ATOM     16  C   UNL     1      86.588  69.017  88.904  0.00  0.00    +0.000 A 
ATOM     17  C   UNL     1      87.342  68.533  87.832  0.00  0.00    +0.000 A 
ATOM     18 CL   UNL     1      88.766  72.127  90.131  0.00  0.00    +0.000 Cl
ENDBRANCH  10  12
ENDBRANCH   1  10
TORSDOF 4
ENDMDL
