MODEL 1
REMARK VINA RESULT:      -4.4      0.000      0.000
REMARK  Name = *****
REMARK  4 active torsions:
REMARK  status: ('A' for Active; 'I' for Inactive)
REMARK    1  A    between atoms: C_4  and  C_7
REMARK    2  A    between atoms: C_7  and  O_8
REMARK    3  A    between atoms: O_8  and  C_9
REMARK    4  A    between atoms: C_9  and  C_11
REMARK                            x       y       z     vdW  Elec       q    Type
REMARK                         _______ _______ _______ _____ _____    ______ ____
ROOT
ATOM      1  O   UNL     1     100.099 126.575  83.282  0.00  0.00    +0.000 OA
ENDROOT
BRANCH   1   2
ATOM      2  C   UNL     1      99.015 127.317  82.947  0.00  0.00    +0.000 C 
ATOM      3  O   UNL     1      98.208 127.035  82.076  0.00  0.00    +0.000 OA
BRANCH   2   4
ATOM      4  C   UNL     1      98.929 128.538  83.790  0.00  0.00    +0.000 A 
ATOM      5  C   UNL     1      98.336 128.536  85.060  0.00  0.00    +0.000 A 
ATOM      6  C   UNL     1      98.283 129.712  85.813  0.00  0.00    +0.000 A 
ATOM      7  C   UNL     1      98.822 130.893  85.302  0.00  0.00    +0.000 A 
ATOM      8  C   UNL     1      99.415 130.903  84.041  0.00  0.00    +0.000 A 
ATOM      9  C   UNL     1      99.469 129.729  83.286  0.00  0.00    +0.000 A 
ENDBRANCH   2   4
ENDBRANCH   1   2
BRANCH   1  10
ATOM     10  C   UNL     1     101.086 126.412  82.242  0.00  0.00    +0.000 C 
BRANCH  10  14
ATOM     11  C   UNL     1     104.364 126.227  80.183  0.00  0.00    +0.000 C 
ATOM     12  C   UNL     1     103.678 124.989  80.745  0.00  0.00    +0.000 C 
ATOM     13  S   UNL     1     103.530 125.022  82.552  0.00  0.00    +0.000 S 
ATOM     14  C   UNL     1     102.525 126.537  82.778  0.00  0.00    +0.000 C 
ATOM     15  S   UNL     1     103.399 127.997  82.111  0.00  0.00    +0.000 S 
ATOM     16  C   UNL     1     103.576 127.515  80.371  0.00  0.00    +0.000 C 
ENDBRANCH  10  14
ENDBRANCH   1  10
TORSDOF 4
ENDMDL
