MODEL 1
REMARK VINA RESULT:      -4.6      0.000      0.000
REMARK  Name = *****
REMARK  4 active torsions:
REMARK  status: ('A' for Active; 'I' for Inactive)
REMARK    1  A    between atoms: C_1  and  C_2
REMARK    2  A    between atoms: C_4  and  C_16
REMARK    3  A    between atoms: C_5  and  C_8
REMARK    4  A    between atoms: C_9  and  C_10
REMARK                            x       y       z     vdW  Elec       q    Type
REMARK                         _______ _______ _______ _____ _____    ______ ____
ROOT
ATOM      1  C   UNL     1      98.732 129.721  84.332  0.00  0.00    +0.000 C 
ATOM      2  C   UNL     1      99.741 128.796  83.718  0.00  0.00    +0.000 A 
ATOM      3  C   UNL     1     101.111 129.087  83.775  0.00  0.00    +0.000 A 
ATOM      4  C   UNL     1     102.059 128.240  83.174  0.00  0.00    +0.000 A 
ATOM      5  C   UNL     1     101.612 127.093  82.495  0.00  0.00    +0.000 A 
ATOM      6  C   UNL     1     100.246 126.796  82.445  0.00  0.00    +0.000 A 
ATOM      7  C   UNL     1      99.317 127.643  83.052  0.00  0.00    +0.000 A 
ATOM      8  C   UNL     1     103.518 128.591  83.253  0.00  0.00    +0.000 C 
ENDROOT
BRANCH   5   9
ATOM      9  C   UNL     1     102.529 126.224  81.817  0.00  0.00    +0.000 C 
ATOM     10  C   UNL     1     103.333 125.517  81.272  0.00  0.00    +0.000 C 
BRANCH  10  11
ATOM     11  C   UNL     1     104.322 124.693  80.651  0.00  0.00    +0.000 A 
ATOM     12  C   UNL     1     104.504 123.381  81.078  0.00  0.00    +0.000 A 
ATOM     13  C   UNL     1     105.490 122.629  80.465  0.00  0.00    +0.000 A 
ATOM     14  N   UNL     1     106.282 123.095  79.475  0.00  0.00    +0.000 NA
ATOM     15  C   UNL     1     106.080 124.371  79.082  0.00  0.00    +0.000 A 
ATOM     16  C   UNL     1     105.121 125.204  79.632  0.00  0.00    +0.000 A 
ENDBRANCH  10  11
ENDBRANCH   5   9
TORSDOF 2
ENDMDL
