REMARK  Name = *****
REMARK  3 active torsions:
REMARK  status: ('A' for Active; 'I' for Inactive)
REMARK    1  A    between atoms: C_3  and  O_9
REMARK    2  A    between atoms: O_9  and  C_10
REMARK    3  A    between atoms: C_10  and  C_12
REMARK                            x       y       z     vdW  Elec       q    Type
REMARK                         _______ _______ _______ _____ _____    ______ ____
ROOT
ATOM      1  C   UNL     1      -2.348  -3.510  -0.311  0.00  0.00    +0.000 C 
ATOM      2  O   UNL     1      -2.982  -3.030  -1.241  0.00  0.00    +0.000 OA
ENDROOT
BRANCH   1   3
ATOM      3  C   UNL     1      -2.340  -4.963  -0.023  0.00  0.00    +0.000 A 
ATOM      4  C   UNL     1      -1.377  -5.575   0.784  0.00  0.00    +0.000 A 
ATOM      5  C   UNL     1      -1.409  -6.951   1.016  0.00  0.00    +0.000 A 
ATOM      6  C   UNL     1      -2.408  -7.729   0.434  0.00  0.00    +0.000 A 
ATOM      7  C   UNL     1      -3.361  -7.122  -0.377  0.00  0.00    +0.000 A 
ATOM      8  C   UNL     1      -3.337  -5.752  -0.615  0.00  0.00    +0.000 A 
ATOM      9  F   UNL     1      -4.319  -7.871  -0.939  0.00  0.00    +0.000 F 
ATOM     10  F   UNL     1      -0.385  -4.873   1.348  0.00  0.00    +0.000 F 
ENDBRANCH   1   3
BRANCH   1  11
ATOM     11  O   UNL     1      -1.618  -2.822   0.634  0.00  0.00    +0.000 OA
BRANCH  11  14
ATOM     12  C   UNL     1      -2.378   0.768   0.698  0.00  0.00    +0.000 A 
ATOM     13  C   UNL     1      -2.457  -0.601   0.938  0.00  0.00    +0.000 A 
ATOM     14  C   UNL     1      -1.525  -1.456   0.344  0.00  0.00    +0.000 A 
ATOM     15  C   UNL     1      -0.489  -0.964  -0.462  0.00  0.00    +0.000 A 
ATOM     16  C   UNL     1      -0.420   0.415  -0.696  0.00  0.00    +0.000 A 
ATOM     17  C   UNL     1      -1.365   1.275  -0.119  0.00  0.00    +0.000 A 
ATOM     18 CL   UNL     1       0.810   1.130  -1.678  0.00  0.00    +0.000 Cl
ATOM     19 CL   UNL     1       0.675  -2.060  -1.128  0.00  0.00    +0.000 Cl
ENDBRANCH  11  14
ENDBRANCH   1  11
TORSDOF 3
