MODEL 1
REMARK VINA RESULT:      -4.0      0.000      0.000
REMARK  Name = *****
REMARK  3 active torsions:
REMARK  status: ('A' for Active; 'I' for Inactive)
REMARK    1  A    between atoms: C_2  and  C_3
REMARK    2  A    between atoms: C_4  and  C_8
REMARK    3  A    between atoms: C_9  and  C_10
REMARK                            x       y       z     vdW  Elec       q    Type
REMARK                         _______ _______ _______ _____ _____    ______ ____
ROOT
ATOM      1  C   UNL     1      88.167  63.794  88.484  0.00  0.00    +0.000 A 
ATOM      2  C   UNL     1      87.112  62.984  88.109  0.00  0.00    +0.000 A 
ATOM      3  S   UNL     1      86.700  63.208  86.461  0.00  0.00    +0.000 S 
ATOM      4  C   UNL     1      87.924  64.382  86.245  0.00  0.00    +0.000 A 
ATOM      5  C   UNL     1      88.636  64.602  87.405  0.00  0.00    +0.000 A 
ENDROOT
BRANCH   1   7
ATOM      6  C   UNL     1      89.206  63.850  90.904  0.00  0.00    +0.000 C 
ATOM      7  C   UNL     1      88.732  63.825  89.801  0.00  0.00    +0.000 C 
ENDBRANCH   1   7
BRANCH   2   8
ATOM      8  C   UNL     1      86.417  62.060  88.948  0.00  0.00    +0.000 C 
ATOM      9  C   UNL     1      85.832  61.283  89.653  0.00  0.00    +0.000 C 
BRANCH   9  10
ATOM     10  C   UNL     1      85.112  60.339  90.511  0.00  0.00    +0.000 C 
ATOM     11  C   UNL     1      84.881  60.881  91.920  0.00  0.00    +0.000 C 
ATOM     12  C   UNL     1      84.756  59.648  92.816  0.00  0.00    +0.000 C 
ATOM     13  C   UNL     1      85.202  58.456  91.973  0.00  0.00    +0.000 C 
ATOM     14  C   UNL     1      85.905  59.061  90.766  0.00  0.00    +0.000 C 
ENDBRANCH   9  10
ENDBRANCH   2   8
TORSDOF 3
ENDMDL
