MODEL 1
REMARK VINA RESULT:      -4.6      0.000      0.000
REMARK  Name = *****
REMARK  5 active torsions:
REMARK  status: ('A' for Active; 'I' for Inactive)
REMARK    1  A    between atoms: C_1  and  C_2
REMARK    2  A    between atoms: C_5  and  C_8
REMARK    3  A    between atoms: C_8  and  C_10
REMARK    4  A    between atoms: C_10  and  C_11
REMARK    5  A    between atoms: C_11  and  C_12
REMARK                            x       y       z     vdW  Elec       q    Type
REMARK                         _______ _______ _______ _____ _____    ______ ____
ROOT
ATOM      1  C   UNL     1      97.333 116.619  80.037  0.00  0.00    +0.000 C 
ATOM      2  O   UNL     1      97.008 115.658  80.733  0.00  0.00    +0.000 OA
ENDROOT
BRANCH   1   7
ATOM      3  C   UNL     1      96.374 121.991  82.033  0.00  0.00    +0.000 C 
ATOM      4  C   UNL     1      96.635 120.596  81.547  0.00  0.00    +0.000 A 
ATOM      5  C   UNL     1      97.945 120.156  81.326  0.00  0.00    +0.000 A 
ATOM      6  C   UNL     1      98.192 118.867  80.841  0.00  0.00    +0.000 A 
ATOM      7  C   UNL     1      97.127 118.004  80.559  0.00  0.00    +0.000 A 
ATOM      8  C   UNL     1      95.815 118.450  80.766  0.00  0.00    +0.000 A 
ATOM      9  C   UNL     1      95.571 119.739  81.251  0.00  0.00    +0.000 A 
ENDBRANCH   1   7
BRANCH   1  10
ATOM     10  C   UNL     1      97.940 116.447  78.656  0.00  0.00    +0.000 C 
BRANCH  10  11
ATOM     11  C   UNL     1      96.988 115.723  77.706  0.00  0.00    +0.000 C 
BRANCH  11  12
ATOM     12  C   UNL     1      96.265 116.699  76.808  0.00  0.00    +0.000 A 
ATOM     13  C   UNL     1      95.130 117.379  77.267  0.00  0.00    +0.000 A 
ATOM     14  C   UNL     1      94.449 118.263  76.428  0.00  0.00    +0.000 A 
ATOM     15  C   UNL     1      94.894 118.472  75.125  0.00  0.00    +0.000 A 
ATOM     16  C   UNL     1      96.021 117.797  74.658  0.00  0.00    +0.000 A 
ATOM     17  C   UNL     1      96.703 116.913  75.494  0.00  0.00    +0.000 A 
ENDBRANCH  11  12
ENDBRANCH  10  11
ENDBRANCH   1  10
TORSDOF 4
ENDMDL
