MODEL 1
REMARK VINA RESULT:      -5.4      0.000      0.000
REMARK  Name = *****
REMARK  1 active torsions:
REMARK  status: ('A' for Active; 'I' for Inactive)
REMARK    1  A    between atoms: C_9  and  C_11
REMARK                            x       y       z     vdW  Elec       q    Type
REMARK                         _______ _______ _______ _____ _____    ______ ____
ROOT
ATOM      1  C   UNL     1      98.694 128.424  83.322  0.00  0.00    +0.000 A 
ATOM      2  C   UNL     1      99.089 127.274  82.628  0.00  0.00    +0.000 A 
ATOM      3  C   UNL     1     100.459 127.053  82.570  0.00  0.00    +0.000 A 
ATOM      4  C   UNL     1     101.419 127.874  83.138  0.00  0.00    +0.000 A 
ATOM      5  C   UNL     1     101.013 129.021  83.830  0.00  0.00    +0.000 A 
ATOM      6  C   UNL     1      99.638 129.278  83.909  0.00  0.00    +0.000 A 
ATOM      7 CL   UNL     1      99.094 130.679  84.753  0.00  0.00    +0.000 Cl
ATOM      8  N   UNL     1     102.669 127.364  82.893  0.00  0.00    +0.000 NA
ATOM      9  C   UNL     1     102.433 126.267  82.195  0.00  0.00    +0.000 A 
ATOM     10  O   UNL     1     101.105 126.018  81.962  0.00  0.00    +0.000 OA
ENDROOT
BRANCH   9  11
ATOM     11  C   UNL     1     103.399 125.313  81.660  0.00  0.00    +0.000 A 
ATOM     12  C   UNL     1     103.758 124.200  82.442  0.00  0.00    +0.000 A 
ATOM     13  C   UNL     1     104.677 123.268  81.964  0.00  0.00    +0.000 A 
ATOM     14  C   UNL     1     105.252 123.420  80.711  0.00  0.00    +0.000 A 
ATOM     15  C   UNL     1     104.908 124.511  79.930  0.00  0.00    +0.000 A 
ATOM     16  C   UNL     1     103.991 125.451  80.397  0.00  0.00    +0.000 A 
ATOM     17  F   UNL     1     103.690 126.490  79.604  0.00  0.00    +0.000 F 
ATOM     18  F   UNL     1     105.460 124.666  78.718  0.00  0.00    +0.000 F 
ATOM     19  F   UNL     1     106.134 122.518  80.260  0.00  0.00    +0.000 F 
ATOM     20  F   UNL     1     105.000 122.217  82.730  0.00  0.00    +0.000 F 
ENDBRANCH   9  11
TORSDOF 1
ENDMDL
