MODEL 1
REMARK VINA RESULT:      -4.4      0.000      0.000
REMARK  Name = *****
REMARK  4 active torsions:
REMARK  status: ('A' for Active; 'I' for Inactive)
REMARK    1  A    between atoms: C_1  and  C_2
REMARK    2  A    between atoms: C_2  and  C_10
REMARK    3  A    between atoms: N_3  and  O_4
REMARK    4  A    between atoms: O_4  and  C_5
REMARK                            x       y       z     vdW  Elec       q    Type
REMARK                         _______ _______ _______ _____ _____    ______ ____
ROOT
ATOM      1  C   UNL     1      89.783  70.764  85.655  0.00  0.00    +0.000 C 
ATOM      2  C   UNL     1      88.732  70.046  86.479  0.00  0.00    +0.000 C 
ATOM      3  N   UNL     1      88.895  68.841  86.945  0.00  0.00    +0.000 NA
ENDROOT
BRANCH   2   4
ATOM      4  C   UNL     1      87.456  70.759  86.778  0.00  0.00    +0.000 A 
ATOM      5  C   UNL     1      87.006  70.934  88.092  0.00  0.00    +0.000 A 
ATOM      6  C   UNL     1      85.804  71.602  88.339  0.00  0.00    +0.000 A 
ATOM      7  C   UNL     1      85.043  72.089  87.276  0.00  0.00    +0.000 A 
ATOM      8  C   UNL     1      85.479  71.907  85.965  0.00  0.00    +0.000 A 
ATOM      9  C   UNL     1      86.680  71.240  85.714  0.00  0.00    +0.000 A 
ENDBRANCH   2   4
BRANCH   3  10
ATOM     10  O   UNL     1      90.152  68.324  86.600  0.00  0.00    +0.000 OA
BRANCH  10  11
ATOM     11  C   UNL     1      90.047  67.019  86.317  0.00  0.00    +0.000 A 
ATOM     12  C   UNL     1      90.891  66.162  85.629  0.00  0.00    +0.000 A 
ATOM     13  C   UNL     1      90.398  64.826  85.555  0.00  0.00    +0.000 A 
ATOM     14  C   UNL     1      89.184  64.695  86.188  0.00  0.00    +0.000 A 
ATOM     15  S   UNL     1      88.653  66.173  86.862  0.00  0.00    +0.000 S 
ENDBRANCH  10  11
ENDBRANCH   3  10
TORSDOF 3
ENDMDL
