MODEL 1
REMARK VINA RESULT:      -4.2      0.000      0.000
REMARK  Name = *****
REMARK  4 active torsions:
REMARK  status: ('A' for Active; 'I' for Inactive)
REMARK    1  A    between atoms: C_1  and  C_2
REMARK    2  A    between atoms: C_7  and  C_8
REMARK    3  A    between atoms: C_8  and  S_10
REMARK    4  A    between atoms: S_10  and  C_11
REMARK                            x       y       z     vdW  Elec       q    Type
REMARK                         _______ _______ _______ _____ _____    ______ ____
ROOT
ATOM      1  C   UNL     1      88.543  70.650  85.272  0.00  0.00    +0.000 C 
ATOM      2  O   UNL     1      89.616  71.238  85.327  0.00  0.00    +0.000 OA
ENDROOT
BRANCH   1   9
ATOM      3  C   UNL     1      88.586  70.245  88.264  0.00  0.00    +0.000 C 
ATOM      4  C   UNL     1      87.434  70.878  87.538  0.00  0.00    +0.000 A 
ATOM      5  C   UNL     1      86.328  71.325  88.278  0.00  0.00    +0.000 A 
ATOM      6  C   UNL     1      85.224  71.899  87.641  0.00  0.00    +0.000 A 
ATOM      7  C   UNL     1      85.207  72.036  86.255  0.00  0.00    +0.000 A 
ATOM      8  C   UNL     1      86.302  71.614  85.504  0.00  0.00    +0.000 A 
ATOM      9  C   UNL     1      87.420  71.059  86.141  0.00  0.00    +0.000 A 
ENDBRANCH   1   9
BRANCH   1  10
ATOM     10  S   UNL     1      88.249  69.226  84.282  0.00  0.00    +0.000 S 
BRANCH  10  11
ATOM     11  C   UNL     1      88.311  67.908  85.478  0.00  0.00    +0.000 A 
ATOM     12  C   UNL     1      87.118  67.435  86.038  0.00  0.00    +0.000 A 
ATOM     13  C   UNL     1      87.135  66.378  86.953  0.00  0.00    +0.000 A 
ATOM     14  C   UNL     1      88.347  65.788  87.304  0.00  0.00    +0.000 A 
ATOM     15  C   UNL     1      89.540  66.241  86.747  0.00  0.00    +0.000 A 
ATOM     16  C   UNL     1      89.521  67.297  85.831  0.00  0.00    +0.000 A 
ATOM     17 BR   UNL     1      88.372  64.359  88.541  0.00  0.00    +0.000 Br
ENDBRANCH  10  11
ENDBRANCH   1  10
TORSDOF 3
ENDMDL
