MODEL 1
REMARK VINA RESULT:      -4.7      0.000      0.000
REMARK  Name = *****
REMARK  7 active torsions:
REMARK  status: ('A' for Active; 'I' for Inactive)
REMARK    1  A    between atoms: C_1  and  C_2
REMARK    2  A    between atoms: C_3  and  C_18
REMARK    3  A    between atoms: C_4  and  C_8
REMARK    4  A    between atoms: C_4  and  C_9
REMARK    5  A    between atoms: C_6  and  C_7
REMARK    6  A    between atoms: C_9  and  C_10
REMARK    7  A    between atoms: C_11  and  C_12
REMARK                            x       y       z     vdW  Elec       q    Type
REMARK                         _______ _______ _______ _____ _____    ______ ____
ROOT
ATOM      1  C   UNL     1      87.596  67.789  87.561  0.00  0.00    +0.000 C 
ATOM      2  C   UNL     1      87.850  66.342  87.729  0.00  0.00    +0.000 C 
ATOM      3  C   UNL     1      87.246  65.391  88.450  0.00  0.00    +0.000 C 
ATOM      4  C   UNL     1      87.911  64.045  88.254  0.00  0.00    +0.000 C 
ATOM      5  N   UNL     1      89.028  64.328  87.310  0.00  0.00    +0.000 NA
ATOM      6  C   UNL     1      88.931  65.603  87.063  0.00  0.00    +0.000 C 
ATOM      7  C   UNL     1      89.883  66.294  86.135  0.00  0.00    +0.000 C 
ATOM      8  C   UNL     1      88.537  63.527  89.555  0.00  0.00    +0.000 C 
ATOM      9  C   UNL     1      86.065  65.544  89.349  0.00  0.00    +0.000 C 
ENDROOT
BRANCH   4  10
ATOM     10  C   UNL     1      86.990  62.956  87.637  0.00  0.00    +0.000 C 
BRANCH  10  11
ATOM     11  C   UNL     1      86.510  61.906  88.610  0.00  0.00    +0.000 C 
ATOM     12  C   UNL     1      85.292  61.904  89.174  0.00  0.00    +0.000 C 
BRANCH  12  13
ATOM     13  C   UNL     1      84.823  60.876  90.114  0.00  0.00    +0.000 A 
ATOM     14  C   UNL     1      83.463  60.835  90.451  0.00  0.00    +0.000 A 
ATOM     15  C   UNL     1      82.975  59.851  91.315  0.00  0.00    +0.000 A 
ATOM     16  C   UNL     1      83.839  58.892  91.841  0.00  0.00    +0.000 A 
ATOM     17  C   UNL     1      85.189  58.913  91.499  0.00  0.00    +0.000 A 
ATOM     18  C   UNL     1      85.678  59.898  90.636  0.00  0.00    +0.000 A 
ENDBRANCH  12  13
ENDBRANCH  10  11
ENDBRANCH   4  10
TORSDOF 3
ENDMDL
