MODEL 1
REMARK VINA RESULT:      -4.3      0.000      0.000
REMARK  Name = *****
REMARK  3 active torsions:
REMARK  status: ('A' for Active; 'I' for Inactive)
REMARK    1  A    between atoms: C_4  and  C_7
REMARK    2  A    between atoms: C_7  and  O_8
REMARK    3  A    between atoms: O_8  and  C_9
REMARK                            x       y       z     vdW  Elec       q    Type
REMARK                         _______ _______ _______ _____ _____    ______ ____
ROOT
ATOM      1  O   UNL     1     103.368 127.597  82.379  0.00  0.00    +0.000 OA
ENDROOT
BRANCH   1   2
ATOM      2  C   UNL     1     103.716 126.392  81.834  0.00  0.00    +0.000 A 
ATOM      3  C   UNL     1     103.871 126.117  80.475  0.00  0.00    +0.000 A 
ATOM      4  C   UNL     1     104.231 124.830  80.056  0.00  0.00    +0.000 A 
ATOM      5  C   UNL     1     104.434 123.822  80.997  0.00  0.00    +0.000 A 
ATOM      6  C   UNL     1     104.279 124.086  82.354  0.00  0.00    +0.000 A 
ATOM      7  C   UNL     1     103.920 125.371  82.768  0.00  0.00    +0.000 A 
ATOM      8 CL   UNL     1     104.877 122.243  80.476  0.00  0.00    +0.000 Cl
ENDBRANCH   1   2
BRANCH   1   9
ATOM      9  C   UNL     1     102.602 127.574  83.583  0.00  0.00    +0.000 C 
BRANCH   9  13
ATOM     10  C   UNL     1      98.391 128.038  82.740  0.00  0.00    +0.000 A 
ATOM     11  C   UNL     1      99.041 126.853  82.403  0.00  0.00    +0.000 A 
ATOM     12  C   UNL     1     100.404 126.704  82.665  0.00  0.00    +0.000 A 
ATOM     13  C   UNL     1     101.136 127.743  83.259  0.00  0.00    +0.000 A 
ATOM     14  C   UNL     1     100.466 128.927  83.604  0.00  0.00    +0.000 A 
ATOM     15  C   UNL     1      99.102 129.074  83.342  0.00  0.00    +0.000 A 
ENDBRANCH   9  13
ENDBRANCH   1   9
TORSDOF 3
ENDMDL
