REMARK  Name = *****
REMARK  6 active torsions:
REMARK  status: ('A' for Active; 'I' for Inactive)
REMARK    1  A    between atoms: C_1  and  C_2
REMARK    2  A    between atoms: C_5  and  C_8
REMARK    3  A    between atoms: C_8  and  C_9
REMARK    4  A    between atoms: C_9  and  O_11
REMARK    5  A    between atoms: O_11  and  C_12
REMARK    6  A    between atoms: C_15  and  C_18
REMARK                            x       y       z     vdW  Elec       q    Type
REMARK                         _______ _______ _______ _____ _____    ______ ____
ROOT
ATOM      1  C   UNL     1      -4.178   0.632  -0.083  0.00  0.00    +0.000 C 
ATOM      2  O   UNL     1      -3.858   1.615   0.570  0.00  0.00    +0.000 OA
ENDROOT
BRANCH   1   3
ATOM      3  C   UNL     1      -3.250  -0.456  -0.587  0.00  0.00    +0.000 C 
BRANCH   3   8
ATOM      4  C   UNL     1       2.420   0.652   0.182  0.00  0.00    +0.000 C 
ATOM      5  C   UNL     1       0.955   0.392  -0.011  0.00  0.00    +0.000 A 
ATOM      6  C   UNL     1       0.175  -0.082   1.049  0.00  0.00    +0.000 A 
ATOM      7  C   UNL     1      -1.183  -0.352   0.864  0.00  0.00    +0.000 A 
ATOM      8  C   UNL     1      -1.782  -0.166  -0.388  0.00  0.00    +0.000 A 
ATOM      9  C   UNL     1      -0.997   0.302  -1.451  0.00  0.00    +0.000 A 
ATOM     10  C   UNL     1       0.361   0.570  -1.265  0.00  0.00    +0.000 A 
ENDBRANCH   3   8
ENDBRANCH   1   3
BRANCH   1  11
ATOM     11  O   UNL     1      -5.474   0.290  -0.478  0.00  0.00    +0.000 OA
BRANCH  11  12
ATOM     12  C   UNL     1      -6.444   1.203  -0.060  0.00  0.00    +0.000 A 
ATOM     13  C   UNL     1      -6.912   2.147  -0.969  0.00  0.00    +0.000 A 
ATOM     14  C   UNL     1      -7.922   3.027  -0.578  0.00  0.00    +0.000 A 
ATOM     15  C   UNL     1      -8.462   2.960   0.715  0.00  0.00    +0.000 A 
ATOM     16  C   UNL     1      -7.998   1.978   1.603  0.00  0.00    +0.000 A 
ATOM     17  C   UNL     1      -6.989   1.095   1.217  0.00  0.00    +0.000 A 
ATOM     18  C   UNL     1      -9.569   3.887   1.123  0.00  0.00    +0.000 C 
ENDBRANCH  11  12
ENDBRANCH   1  11
TORSDOF 4
