MODEL 1
REMARK VINA RESULT:      -4.3      0.000      0.000
REMARK  Name = *****
REMARK  3 active torsions:
REMARK  status: ('A' for Active; 'I' for Inactive)
REMARK    1  A    between atoms: C_1  and  C_2
REMARK    2  A    between atoms: C_2  and  C_8
REMARK    3  A    between atoms: C_9  and  C_10
REMARK                            x       y       z     vdW  Elec       q    Type
REMARK                         _______ _______ _______ _____ _____    ______ ____
ROOT
ATOM      1  C   UNL     1     103.357 126.127  82.502  0.00  0.00    +0.000 C 
ATOM      2  C   UNL     1     102.043 126.004  82.235  0.00  0.00    +0.000 C 
ENDROOT
BRANCH   1   4
ATOM      3  C   UNL     1     105.885 125.758  82.350  0.00  0.00    +0.000 C 
ATOM      4  C   UNL     1     104.483 125.178  82.113  0.00  0.00    +0.000 C 
ATOM      5  S   UNL     1     104.219 123.668  83.134  0.00  0.00    +0.000 S 
ATOM      6  C   UNL     1     105.434 122.534  82.413  0.00  0.00    +0.000 C 
ATOM      7  C   UNL     1     105.207 122.276  80.932  0.00  0.00    +0.000 C 
ATOM      8  C   UNL     1     105.434 123.495  80.051  0.00  0.00    +0.000 C 
ATOM      9  S   UNL     1     104.221 124.813  80.327  0.00  0.00    +0.000 S 
ENDBRANCH   1   4
BRANCH   2  10
ATOM     10  C   UNL     1     101.032 126.985  82.656  0.00  0.00    +0.000 A 
ATOM     11  C   UNL     1     101.376 128.177  83.305  0.00  0.00    +0.000 A 
ATOM     12  C   UNL     1     100.393 129.103  83.662  0.00  0.00    +0.000 A 
ATOM     13  C   UNL     1      99.055 128.849  83.363  0.00  0.00    +0.000 A 
ATOM     14  C   UNL     1      98.702 127.673  82.705  0.00  0.00    +0.000 A 
ATOM     15  C   UNL     1      99.686 126.748  82.348  0.00  0.00    +0.000 A 
ENDBRANCH   2  10
TORSDOF 2
ENDMDL
