REMARK  Name = *****
REMARK  6 active torsions:
REMARK  status: ('A' for Active; 'I' for Inactive)
REMARK    1  A    between atoms: C_1  and  C_2
REMARK    2  A    between atoms: C_2  and  N_3
REMARK    3  A    between atoms: N_3  and  C_4
REMARK    4  A    between atoms: N_3  and  C_11
REMARK    5  A    between atoms: C_4  and  C_5
REMARK    6  A    between atoms: C_14  and  N_17
REMARK                            x       y       z     vdW  Elec       q    Type
REMARK                         _______ _______ _______ _____ _____    ______ ____
ROOT
ATOM      1  N   UNL     1       3.207   1.502   0.378  0.00  0.00    +0.000 N 
ENDROOT
BRANCH   1   2
ATOM      2  C   UNL     1       4.577   1.754   0.261  0.00  0.00    +0.000 A 
ATOM      3  C   UNL     1       5.340   1.390  -0.856  0.00  0.00    +0.000 A 
ATOM      4  C   UNL     1       6.719   1.650  -0.925  0.00  0.00    +0.000 A 
ATOM      5  C   UNL     1       7.384   2.284   0.130  0.00  0.00    +0.000 A 
ATOM      6  C   UNL     1       6.643   2.632   1.259  0.00  0.00    +0.000 A 
ATOM      7  C   UNL     1       5.267   2.370   1.320  0.00  0.00    +0.000 A 
BRANCH   5   8
ATOM      8  N   UNL     1       8.740   2.548   0.124  0.00  0.00    +0.000 NA
ATOM      9  O   UNL     1       9.224   2.672  -1.008  0.00  0.00    +0.000 OA
ENDBRANCH   5   8
ENDBRANCH   1   2
BRANCH   1  11
ATOM     10  C   UNL     1       2.958  -0.916  -0.072  0.00  0.00    +0.000 C 
ATOM     11  C   UNL     1       2.555   0.496  -0.478  0.00  0.00    +0.000 C 
ENDBRANCH   1  11
BRANCH   1  12
ATOM     12  C   UNL     1       2.371   2.676   0.703  0.00  0.00    +0.000 C 
BRANCH  12  13
ATOM     13  C   UNL     1       1.298   2.341   1.721  0.00  0.00    +0.000 A 
ATOM     14  C   UNL     1       1.584   1.553   2.847  0.00  0.00    +0.000 A 
ATOM     15  C   UNL     1       0.597   1.281   3.796  0.00  0.00    +0.000 A 
ATOM     16  C   UNL     1      -0.685   1.803   3.638  0.00  0.00    +0.000 A 
ATOM     17  C   UNL     1      -0.980   2.599   2.533  0.00  0.00    +0.000 A 
ATOM     18  C   UNL     1       0.006   2.871   1.582  0.00  0.00    +0.000 A 
ENDBRANCH  12  13
ENDBRANCH   1  12
TORSDOF 5
