MODEL 1
REMARK VINA RESULT:      -4.6      0.000      0.000
REMARK  Name = *****
REMARK  1 active torsions:
REMARK  status: ('A' for Active; 'I' for Inactive)
REMARK    1  A    between atoms: C_6  and  C_7
REMARK                            x       y       z     vdW  Elec       q    Type
REMARK                         _______ _______ _______ _____ _____    ______ ____
ROOT
ATOM      1  C   UNL     1     102.824 125.501  83.806  0.00  0.00    +0.000 C 
ATOM      2  C   UNL     1     103.757 124.319  83.558  0.00  0.00    +0.000 C 
ATOM      3  C   UNL     1     104.569 124.400  82.269  0.00  0.00    +0.000 C 
ATOM      4  C   UNL     1     104.243 125.280  81.294  0.00  0.00    +0.000 C 
ATOM      5  C   UNL     1     103.036 126.203  81.413  0.00  0.00    +0.000 C 
ATOM      6  C   UNL     1     102.049 125.825  82.531  0.00  0.00    +0.000 C 
ATOM      7  S   UNL     1     105.129 125.515  79.803  0.00  0.00    +0.000 S 
ATOM      8  C   UNL     1     105.846 123.880  79.550  0.00  0.00    +0.000 C 
ATOM      9  C   UNL     1     106.769 123.547  80.701  0.00  0.00    +0.000 C 
ATOM     10  S   UNL     1     105.884 123.239  82.243  0.00  0.00    +0.000 S 
ENDROOT
BRANCH   6  11
ATOM     11  C   UNL     1     100.991 126.887  82.773  0.00  0.00    +0.000 A 
ATOM     12  C   UNL     1     101.350 128.100  83.381  0.00  0.00    +0.000 A 
ATOM     13  C   UNL     1     100.398 129.097  83.604  0.00  0.00    +0.000 A 
ATOM     14  C   UNL     1      99.074 128.896  83.222  0.00  0.00    +0.000 A 
ATOM     15  C   UNL     1      98.703 127.700  82.613  0.00  0.00    +0.000 A 
ATOM     16  C   UNL     1      99.655 126.705  82.385  0.00  0.00    +0.000 A 
ENDBRANCH   6  11
TORSDOF 1
ENDMDL
