MODEL 1
REMARK VINA RESULT:      -4.2      0.000      0.000
REMARK  Name = *****
REMARK  4 active torsions:
REMARK  status: ('A' for Active; 'I' for Inactive)
REMARK    1  A    between atoms: C_1  and  N_2
REMARK    2  A    between atoms: N_2  and  C_3
REMARK    3  A    between atoms: N_2  and  C_9
REMARK    4  A    between atoms: C_9  and  C_11
REMARK                            x       y       z     vdW  Elec       q    Type
REMARK                         _______ _______ _______ _____ _____    ______ ____
ROOT
ATOM      1  C   UNL     1      89.075  70.026  87.698  0.00  0.00    +0.000 C 
ATOM      2  N   UNL     1      88.206  70.542  86.642  0.00  0.00    +0.000 N 
ENDROOT
BRANCH   2   3
ATOM      3  C   UNL     1      86.961  71.158  87.024  0.00  0.00    +0.000 A 
ATOM      4  C   UNL     1      86.594  71.272  88.373  0.00  0.00    +0.000 A 
ATOM      5  C   UNL     1      85.372  71.842  88.751  0.00  0.00    +0.000 A 
ATOM      6  C   UNL     1      84.486  72.299  87.784  0.00  0.00    +0.000 A 
ATOM      7  C   UNL     1      84.817  72.176  86.439  0.00  0.00    +0.000 A 
ATOM      8  C   UNL     1      86.038  71.604  86.063  0.00  0.00    +0.000 A 
ENDBRANCH   2   3
BRANCH   2   9
ATOM      9  C   UNL     1      88.576  70.321  85.305  0.00  0.00    +0.000 C 
ATOM     10  S   UNL     1      88.047  68.995  84.397  0.00  0.00    +0.000 S 
BRANCH   9  11
ATOM     11  C   UNL     1      89.564  71.358  84.726  0.00  0.00    +0.000 C 
ATOM     12  C   UNL     1      88.838  72.456  83.928  0.00  0.00    +0.000 C 
ATOM     13  C   UNL     1      89.818  73.510  83.414  0.00  0.00    +0.000 C 
ATOM     14  C   UNL     1      90.947  72.883  82.600  0.00  0.00    +0.000 C 
ATOM     15  C   UNL     1      91.664  71.784  83.380  0.00  0.00    +0.000 C 
ATOM     16  C   UNL     1      90.686  70.725  83.886  0.00  0.00    +0.000 C 
ENDBRANCH   9  11
ENDBRANCH   2   9
TORSDOF 3
ENDMDL
