MODEL 1
REMARK VINA RESULT:      -4.4      0.000      0.000
REMARK  Name = *****
REMARK  2 active torsions:
REMARK  status: ('A' for Active; 'I' for Inactive)
REMARK    1  A    between atoms: C_4  and  N_7
REMARK    2  A    between atoms: C_8  and  C_10
REMARK                            x       y       z     vdW  Elec       q    Type
REMARK                         _______ _______ _______ _____ _____    ______ ____
ROOT
ATOM      1  N   UNL     1     102.480 126.345  82.500  0.00  0.00    +0.000 N 
ATOM      2  C   UNL     1     103.319 126.527  81.384  0.00  0.00    +0.000 C 
ATOM      3  O   UNL     1     103.280 127.449  80.569  0.00  0.00    +0.000 OA
ATOM      4 CL   UNL     1     102.982 125.235  83.718  0.00  0.00    +0.000 Cl
ENDROOT
BRANCH   2   5
ATOM      5  C   UNL     1     104.392 125.533  81.134  0.00  0.00    +0.000 A 
ATOM      6  C   UNL     1     104.103 124.306  80.523  0.00  0.00    +0.000 A 
ATOM      7  C   UNL     1     105.135 123.399  80.272  0.00  0.00    +0.000 A 
ATOM      8  C   UNL     1     106.447 123.729  80.615  0.00  0.00    +0.000 A 
ATOM      9  C   UNL     1     106.741 124.962  81.199  0.00  0.00    +0.000 A 
ATOM     10  C   UNL     1     105.712 125.872  81.453  0.00  0.00    +0.000 A 
ATOM     11 CL   UNL     1     107.717 122.609  80.306  0.00  0.00    +0.000 Cl
ENDBRANCH   2   5
BRANCH   1  15
ATOM     12  C   UNL     1      98.974 128.695  83.252  0.00  0.00    +0.000 A 
ATOM     13  C   UNL     1      98.870 127.468  82.609  0.00  0.00    +0.000 A 
ATOM     14  C   UNL     1     100.015 126.698  82.363  0.00  0.00    +0.000 A 
ATOM     15  C   UNL     1     101.296 127.135  82.743  0.00  0.00    +0.000 A 
ATOM     16  C   UNL     1     101.367 128.377  83.404  0.00  0.00    +0.000 A 
ATOM     17  C   UNL     1     100.224 129.149  83.653  0.00  0.00    +0.000 A 
ENDBRANCH   1  15
TORSDOF 2
ENDMDL
