MODEL 1
REMARK VINA RESULT:      -3.9      0.000      0.000
REMARK  Name = *****
REMARK  4 active torsions:
REMARK  status: ('A' for Active; 'I' for Inactive)
REMARK    1  A    between atoms: C_1  and  N_2
REMARK    2  A    between atoms: N_2  and  C_3
REMARK    3  A    between atoms: N_2  and  C_9
REMARK    4  A    between atoms: C_3  and  C_4
REMARK                            x       y       z     vdW  Elec       q    Type
REMARK                         _______ _______ _______ _____ _____    ______ ____
ROOT
ATOM      1  C   UNL     1      89.214  70.167  87.520  0.00  0.00    +0.000 C 
ATOM      2  N   UNL     1      88.261  70.505  86.466  0.00  0.00    +0.000 N 
ENDROOT
BRANCH   2   3
ATOM      3  C   UNL     1      87.042  71.097  86.788  0.00  0.00    +0.000 A 
ATOM      4  C   UNL     1      86.605  71.232  88.121  0.00  0.00    +0.000 A 
ATOM      5  C   UNL     1      85.378  71.820  88.456  0.00  0.00    +0.000 A 
ATOM      6  C   UNL     1      84.538  72.295  87.460  0.00  0.00    +0.000 A 
ATOM      7  C   UNL     1      84.927  72.175  86.133  0.00  0.00    +0.000 A 
ATOM      8  C   UNL     1      86.158  71.585  85.809  0.00  0.00    +0.000 A 
ENDBRANCH   2   3
BRANCH   2   9
ATOM      9  C   UNL     1      88.730  70.369  85.082  0.00  0.00    +0.000 C 
BRANCH   9  10
ATOM     10  C   UNL     1      89.770  71.432  84.717  0.00  0.00    +0.000 C 
ATOM     11  C   UNL     1      89.159  72.598  83.940  0.00  0.00    +0.000 C 
ATOM     12  C   UNL     1      90.363  73.302  83.328  0.00  0.00    +0.000 C 
ATOM     13  C   UNL     1      91.440  72.230  83.167  0.00  0.00    +0.000 C 
ATOM     14  C   UNL     1      90.857  70.949  83.758  0.00  0.00    +0.000 C 
ENDBRANCH   9  10
ENDBRANCH   2   9
TORSDOF 3
ENDMDL
