MODEL 1
REMARK VINA RESULT:      -4.4      0.000      0.000
REMARK  Name = *****
REMARK  5 active torsions:
REMARK  status: ('A' for Active; 'I' for Inactive)
REMARK    1  A    between atoms: C_1  and  C_2
REMARK    2  A    between atoms: C_5  and  N_8
REMARK    3  A    between atoms: N_8  and  C_9
REMARK    4  A    between atoms: C_9  and  C_11
REMARK    5  A    between atoms: C_12  and  C_16
REMARK                            x       y       z     vdW  Elec       q    Type
REMARK                         _______ _______ _______ _____ _____    ______ ____
ROOT
ATOM      1  N   UNL     1      89.241  63.895  87.747  0.00  0.00    +0.000 N 
ATOM      2  H   UNL     1      90.144  63.703  88.086  0.00  0.00    +0.000 HD
ENDROOT
BRANCH   1   7
ATOM      3  C   UNL     1      85.173  62.561  91.569  0.00  0.00    +0.000 C 
ATOM      4  C   UNL     1      86.243  62.870  90.564  0.00  0.00    +0.000 A 
ATOM      5  C   UNL     1      86.220  62.279  89.297  0.00  0.00    +0.000 A 
ATOM      6  C   UNL     1      87.198  62.589  88.343  0.00  0.00    +0.000 A 
ATOM      7  C   UNL     1      88.215  63.496  88.631  0.00  0.00    +0.000 A 
ATOM      8  C   UNL     1      88.217  64.106  89.895  0.00  0.00    +0.000 A 
ATOM      9  C   UNL     1      87.242  63.800  90.851  0.00  0.00    +0.000 A 
ENDBRANCH   1   7
BRANCH   1  10
ATOM     10  C   UNL     1      89.241  64.500  86.500  0.00  0.00    +0.000 C 
ATOM     11  S   UNL     1      89.425  63.821  84.989  0.00  0.00    +0.000 S 
BRANCH  10  12
ATOM     12  C   UNL     1      89.159  65.969  86.600  0.00  0.00    +0.000 A 
ATOM     13  C   UNL     1      88.083  66.794  86.933  0.00  0.00    +0.000 A 
ATOM     14  S   UNL     1      88.643  68.421  86.873  0.00  0.00    +0.000 S 
ATOM     15  N   UNL     1      90.203  67.984  86.500  0.00  0.00    +0.000 NA
ATOM     16  N   UNL     1      90.357  66.680  86.396  0.00  0.00    +0.000 NA
ATOM     17  C   UNL     1      86.673  66.518  87.315  0.00  0.00    +0.000 C 
ENDBRANCH  10  12
ENDBRANCH   1  10
TORSDOF 3
ENDMDL
