REMARK  Name = *****
REMARK  4 active torsions:
REMARK  status: ('A' for Active; 'I' for Inactive)
REMARK    1  A    between atoms: C_4  and  C_7
REMARK    2  A    between atoms: C_7  and  C_8
REMARK    3  A    between atoms: C_8  and  S_9
REMARK    4  A    between atoms: S_9  and  C_10
REMARK                            x       y       z     vdW  Elec       q    Type
REMARK                         _______ _______ _______ _____ _____    ______ ____
ROOT
ATOM      1  C   UNL     1      -2.545   0.565  -0.269  0.00  0.00    +0.000 C 
ATOM      2 BR   UNL     1      -3.158   1.367   1.418  0.00  0.00    +0.000 Br
ENDROOT
BRANCH   1   6
ATOM      3  C   UNL     1      -4.080  -3.479  -0.451  0.00  0.00    +0.000 A 
ATOM      4  C   UNL     1      -2.732  -3.245  -0.189  0.00  0.00    +0.000 A 
ATOM      5  C   UNL     1      -2.247  -1.937  -0.128  0.00  0.00    +0.000 A 
ATOM      6  C   UNL     1      -3.103  -0.843  -0.333  0.00  0.00    +0.000 A 
ATOM      7  C   UNL     1      -4.461  -1.096  -0.590  0.00  0.00    +0.000 A 
ATOM      8  C   UNL     1      -4.944  -2.405  -0.650  0.00  0.00    +0.000 A 
ENDBRANCH   1   6
BRANCH   1   9
ATOM      9  C   UNL     1      -2.953   1.438  -1.462  0.00  0.00    +0.000 C 
BRANCH   9  10
ATOM     10  S   UNL     1      -1.931   2.957  -1.590  0.00  0.00    +0.000 S 
BRANCH  10  11
ATOM     11  C   UNL     1      -2.835   3.826  -2.858  0.00  0.00    +0.000 A 
ATOM     12  C   UNL     1      -3.031   3.274  -4.128  0.00  0.00    +0.000 A 
ATOM     13  C   UNL     1      -3.737   3.983  -5.103  0.00  0.00    +0.000 A 
ATOM     14  C   UNL     1      -4.243   5.249  -4.816  0.00  0.00    +0.000 A 
ATOM     15  C   UNL     1      -4.039   5.811  -3.557  0.00  0.00    +0.000 A 
ATOM     16  C   UNL     1      -3.333   5.103  -2.582  0.00  0.00    +0.000 A 
ENDBRANCH  10  11
ENDBRANCH   9  10
ENDBRANCH   1   9
TORSDOF 4
