MODEL 1
REMARK VINA RESULT:      -5.1      0.000      0.000
REMARK  Name = *****
REMARK  2 active torsions:
REMARK  status: ('A' for Active; 'I' for Inactive)
REMARK    1  A    between atoms: C_1  and  C_2
REMARK    2  A    between atoms: C_5  and  C_8
REMARK                            x       y       z     vdW  Elec       q    Type
REMARK                         _______ _______ _______ _____ _____    ______ ____
ROOT
ATOM      1  C   UNL     1     102.437 126.086  82.494  0.00  0.00    +0.000 A 
ATOM      2  N   UNL     1     102.695 127.207  83.149  0.00  0.00    +0.000 NA
ATOM      3  C   UNL     1     101.472 127.823  83.240  0.00  0.00    +0.000 A 
ATOM      4  C   UNL     1     101.093 129.040  83.821  0.00  0.00    +0.000 A 
ATOM      5  C   UNL     1      99.740 129.410  83.755  0.00  0.00    +0.000 A 
ATOM      6  C   UNL     1      98.795 128.590  83.125  0.00  0.00    +0.000 A 
ATOM      7  C   UNL     1      99.160 127.371  82.540  0.00  0.00    +0.000 A 
ATOM      8  C   UNL     1     100.507 127.042  82.629  0.00  0.00    +0.000 A 
ATOM      9  O   UNL     1     101.119 125.924  82.147  0.00  0.00    +0.000 OA
ENDROOT
BRANCH   1  14
ATOM     10  C   UNL     1     106.118 121.837  81.096  0.00  0.00    +0.000 C 
ATOM     11  C   UNL     1     105.187 122.958  81.451  0.00  0.00    +0.000 A 
ATOM     12  C   UNL     1     104.685 123.807  80.461  0.00  0.00    +0.000 A 
ATOM     13  C   UNL     1     103.792 124.831  80.790  0.00  0.00    +0.000 A 
ATOM     14  C   UNL     1     103.367 125.030  82.107  0.00  0.00    +0.000 A 
ATOM     15  C   UNL     1     103.864 124.162  83.094  0.00  0.00    +0.000 A 
ATOM     16  C   UNL     1     104.759 123.135  82.770  0.00  0.00    +0.000 A 
ATOM     17  F   UNL     1     103.354 125.612  79.792  0.00  0.00    +0.000 F 
ENDBRANCH   1  14
TORSDOF 1
ENDMDL
