MODEL 1
REMARK VINA RESULT:      -4.2      0.000      0.000
REMARK  Name = *****
REMARK  3 active torsions:
REMARK  status: ('A' for Active; 'I' for Inactive)
REMARK    1  A    between atoms: C_4  and  N_7
REMARK    2  A    between atoms: N_7  and  P_8
REMARK    3  A    between atoms: P_8  and  C_9
REMARK                            x       y       z     vdW  Elec       q    Type
REMARK                         _______ _______ _______ _____ _____    ______ ____
ROOT
ATOM      1  N   UNL     1     101.749 125.928  82.331  0.00  0.00    +0.000 NA
ENDROOT
BRANCH   1   5
ATOM      2  C   UNL     1      99.080 129.017  83.380  0.00  0.00    +0.000 A 
ATOM      3  C   UNL     1      98.574 127.896  82.735  0.00  0.00    +0.000 A 
ATOM      4  C   UNL     1      99.428 126.847  82.365  0.00  0.00    +0.000 A 
ATOM      5  C   UNL     1     100.817 126.873  82.622  0.00  0.00    +0.000 A 
ATOM      6  C   UNL     1     101.284 128.030  83.280  0.00  0.00    +0.000 A 
ATOM      7  C   UNL     1     100.440 129.084  83.655  0.00  0.00    +0.000 A 
ENDBRANCH   1   5
BRANCH   1   8
ATOM      8  P   UNL     1     103.092 126.287  81.708  0.00  0.00    +0.000 P 
BRANCH   8   9
ATOM      9  C   UNL     1     103.874 124.696  81.635  0.00  0.00    +0.000 A 
ATOM     10  C   UNL     1     103.971 124.007  82.849  0.00  0.00    +0.000 A 
ATOM     11  C   UNL     1     104.574 122.746  82.904  0.00  0.00    +0.000 A 
ATOM     12  C   UNL     1     105.082 122.165  81.743  0.00  0.00    +0.000 A 
ATOM     13  C   UNL     1     104.986 122.845  80.531  0.00  0.00    +0.000 A 
ATOM     14  C   UNL     1     104.384 124.107  80.477  0.00  0.00    +0.000 A 
ENDBRANCH   8   9
ENDBRANCH   1   8
TORSDOF 3
ENDMDL
