MODEL 1
REMARK VINA RESULT:      -4.3      0.000      0.000
REMARK  Name = *****
REMARK  4 active torsions:
REMARK  status: ('A' for Active; 'I' for Inactive)
REMARK    1  A    between atoms: C_1  and  C_2
REMARK    2  A    between atoms: C_6  and  O_7
REMARK    3  A    between atoms: O_7  and  C_8
REMARK    4  A    between atoms: C_8  and  C_10
REMARK                            x       y       z     vdW  Elec       q    Type
REMARK                         _______ _______ _______ _____ _____    ______ ____
ROOT
ATOM      1  C   UNL     1      87.899  70.530  88.476  0.00  0.00    +0.000 C 
ATOM      2  O   UNL     1      88.487  70.840  89.498  0.00  0.00    +0.000 OA
ENDROOT
BRANCH   1   3
ATOM      3  C   UNL     1      86.646  71.200  88.032  0.00  0.00    +0.000 A 
ATOM      4  C   UNL     1      85.746  71.633  89.016  0.00  0.00    +0.000 A 
ATOM      5  C   UNL     1      84.553  72.263  88.654  0.00  0.00    +0.000 A 
ATOM      6  C   UNL     1      84.254  72.465  87.308  0.00  0.00    +0.000 A 
ATOM      7  C   UNL     1      85.143  72.038  86.322  0.00  0.00    +0.000 A 
ATOM      8  C   UNL     1      86.337  71.407  86.680  0.00  0.00    +0.000 A 
ENDBRANCH   1   3
BRANCH   1   9
ATOM      9  O   UNL     1      88.252  69.563  87.598  0.00  0.00    +0.000 OA
BRANCH   9  15
ATOM     10  C   UNL     1      89.143  67.014  86.608  0.00  0.00    +0.000 C 
ATOM     11  C   UNL     1      89.884  68.269  86.178  0.00  0.00    +0.000 C 
ATOM     12  C   UNL     1      89.649  68.640  84.717  0.00  0.00    +0.000 C 
ATOM     13  C   UNL     1      90.096  70.094  84.632  0.00  0.00    +0.000 C 
ATOM     14  C   UNL     1      89.800  70.718  85.998  0.00  0.00    +0.000 C 
ATOM     15  C   UNL     1      89.544  69.550  86.957  0.00  0.00    +0.000 C 
ENDBRANCH   9  15
ENDBRANCH   1   9
TORSDOF 3
ENDMDL
