MODEL 1
REMARK VINA RESULT:      -4.8      0.000      0.000
REMARK  Name = *****
REMARK  3 active torsions:
REMARK  status: ('A' for Active; 'I' for Inactive)
REMARK    1  A    between atoms: C_1  and  C_2
REMARK    2  A    between atoms: C_6  and  C_7
REMARK    3  A    between atoms: C_7  and  C_9
REMARK                            x       y       z     vdW  Elec       q    Type
REMARK                         _______ _______ _______ _____ _____    ______ ____
ROOT
ATOM      1  C   UNL     1      88.519  64.977  85.222  0.00  0.00    +0.000 C 
ATOM      2  C   UNL     1      89.291  65.480  86.444  0.00  0.00    +0.000 C 
ATOM      3  C   UNL     1      88.359  66.135  87.475  0.00  0.00    +0.000 C 
ATOM      4  C   UNL     1      87.841  67.511  87.045  0.00  0.00    +0.000 C 
ATOM      5  C   UNL     1      88.979  68.420  86.640  0.00  0.00    +0.000 C 
ATOM      6  C   UNL     1      89.217  69.653  87.126  0.00  0.00    +0.000 C 
ATOM      7  C   UNL     1      89.903  67.817  85.605  0.00  0.00    +0.000 C 
ATOM      8  C   UNL     1      90.418  66.447  86.048  0.00  0.00    +0.000 C 
ENDROOT
BRANCH   6   9
ATOM      9  C   UNL     1      88.357  70.386  88.102  0.00  0.00    +0.000 C 
ATOM     10  O   UNL     1      88.605  70.410  89.302  0.00  0.00    +0.000 OA
BRANCH   9  11
ATOM     11  C   UNL     1      87.116  71.019  87.580  0.00  0.00    +0.000 A 
ATOM     12  C   UNL     1      86.143  71.431  88.501  0.00  0.00    +0.000 A 
ATOM     13  C   UNL     1      84.964  72.034  88.059  0.00  0.00    +0.000 A 
ATOM     14  C   UNL     1      84.755  72.238  86.696  0.00  0.00    +0.000 A 
ATOM     15  C   UNL     1      85.725  71.847  85.774  0.00  0.00    +0.000 A 
ATOM     16  C   UNL     1      86.906  71.243  86.212  0.00  0.00    +0.000 A 
ENDBRANCH   9  11
ENDBRANCH   6   9
TORSDOF 2
ENDMDL
