MODEL 1
REMARK VINA RESULT:      -4.8      0.000      0.000
REMARK  Name = *****
REMARK  4 active torsions:
REMARK  status: ('A' for Active; 'I' for Inactive)
REMARK    1  A    between atoms: C_1  and  C_2
REMARK    2  A    between atoms: C_7  and  C_8
REMARK    3  A    between atoms: C_9  and  C_10
REMARK    4  A    between atoms: C_10  and  C_11
REMARK                            x       y       z     vdW  Elec       q    Type
REMARK                         _______ _______ _______ _____ _____    ______ ____
ROOT
ATOM      1  C   UNL     1      89.998  68.025  86.445  0.00  0.00    +0.000 C 
ATOM      2  C   UNL     1      89.646  68.918  85.506  0.00  0.00    +0.000 C 
ENDROOT
BRANCH   1   9
ATOM      3  C   UNL     1      87.941  66.185  87.530  0.00  0.00    +0.000 C 
ATOM      4  C   UNL     1      89.109  65.693  86.718  0.00  0.00    +0.000 A 
ATOM      5  C   UNL     1      89.243  64.315  86.483  0.00  0.00    +0.000 A 
ATOM      6  C   UNL     1      90.310  63.817  85.735  0.00  0.00    +0.000 A 
ATOM      7  C   UNL     1      91.262  64.689  85.218  0.00  0.00    +0.000 A 
ATOM      8  C   UNL     1      91.146  66.060  85.448  0.00  0.00    +0.000 A 
ATOM      9  C   UNL     1      90.072  66.578  86.191  0.00  0.00    +0.000 A 
ENDBRANCH   1   9
BRANCH   2  10
ATOM     10  C   UNL     1      89.550  70.397  85.754  0.00  0.00    +0.000 C 
BRANCH  10  11
ATOM     11  C   UNL     1      88.191  70.805  86.269  0.00  0.00    +0.000 A 
ATOM     12  C   UNL     1      87.224  71.319  85.393  0.00  0.00    +0.000 A 
ATOM     13  C   UNL     1      85.970  71.707  85.869  0.00  0.00    +0.000 A 
ATOM     14  C   UNL     1      85.670  71.587  87.224  0.00  0.00    +0.000 A 
ATOM     15  C   UNL     1      86.625  71.083  88.106  0.00  0.00    +0.000 A 
ATOM     16  C   UNL     1      87.880  70.696  87.633  0.00  0.00    +0.000 A 
ENDBRANCH  10  11
ENDBRANCH   2  10
TORSDOF 3
ENDMDL
