MODEL 1
REMARK VINA RESULT:      -4.2      0.000      0.000
REMARK  Name = *****
REMARK  6 active torsions:
REMARK  status: ('A' for Active; 'I' for Inactive)
REMARK    1  A    between atoms: C_1  and  C_2
REMARK    2  A    between atoms: C_2  and  O_3
REMARK    3  A    between atoms: O_3  and  C_4
REMARK    4  A    between atoms: C_7  and  C_17
REMARK    5  A    between atoms: C_8  and  C_9
REMARK    6  A    between atoms: C_10  and  C_11
REMARK                            x       y       z     vdW  Elec       q    Type
REMARK                         _______ _______ _______ _____ _____    ______ ____
ROOT
ATOM      1  C   UNL     1      89.901  67.311  85.726  0.00  0.00    +0.000 A 
ATOM      2  N   UNL     1      90.379  66.942  84.533  0.00  0.00    +0.000 NA
ATOM      3  O   UNL     1      90.320  68.088  83.751  0.00  0.00    +0.000 OA
ATOM      4  C   UNL     1      89.811  69.117  84.488  0.00  0.00    +0.000 A 
ATOM      5  C   UNL     1      89.529  68.666  85.755  0.00  0.00    +0.000 A 
ATOM      6  C   UNL     1      89.680  70.416  83.804  0.00  0.00    +0.000 C 
ENDROOT
BRANCH   5   7
ATOM      7  C   UNL     1      88.985  69.428  86.825  0.00  0.00    +0.000 C 
ATOM      8  C   UNL     1      88.527  70.072  87.729  0.00  0.00    +0.000 C 
BRANCH   8   9
ATOM      9  C   UNL     1      87.977  70.838  88.804  0.00  0.00    +0.000 A 
ATOM     10  C   UNL     1      88.781  71.206  89.885  0.00  0.00    +0.000 A 
ATOM     11  C   UNL     1      88.241  71.954  90.934  0.00  0.00    +0.000 A 
ATOM     12  C   UNL     1      86.900  72.333  90.903  0.00  0.00    +0.000 A 
ATOM     13  C   UNL     1      86.095  71.965  89.825  0.00  0.00    +0.000 A 
ATOM     14  C   UNL     1      86.633  71.218  88.775  0.00  0.00    +0.000 A 
ENDBRANCH   8   9
ENDBRANCH   5   7
BRANCH   1  15
ATOM     15  O   UNL     1      89.810  66.437  86.757  0.00  0.00    +0.000 OA
BRANCH  15  17
ATOM     16  C   UNL     1      87.743  66.020  87.863  0.00  0.00    +0.000 C 
ATOM     17  C   UNL     1      88.655  65.600  86.725  0.00  0.00    +0.000 C 
ENDBRANCH  15  17
ENDBRANCH   1  15
TORSDOF 4
ENDMDL
