MODEL 1
REMARK VINA RESULT:      -4.5      0.000      0.000
REMARK  Name = *****
REMARK  3 active torsions:
REMARK  status: ('A' for Active; 'I' for Inactive)
REMARK    1  A    between atoms: C_4  and  C_7
REMARK    2  A    between atoms: C_7  and  C_8
REMARK    3  A    between atoms: C_8  and  C_9
REMARK                            x       y       z     vdW  Elec       q    Type
REMARK                         _______ _______ _______ _____ _____    ______ ____
ROOT
ATOM      1  C   UNL     1     102.612 127.483  82.900  0.00  0.00    +0.000 C 
ENDROOT
BRANCH   1   2
ATOM      2  C   UNL     1     101.115 127.686  82.995  0.00  0.00    +0.000 A 
ATOM      3  C   UNL     1     100.268 126.722  82.419  0.00  0.00    +0.000 A 
ATOM      4  C   UNL     1      98.881 126.866  82.466  0.00  0.00    +0.000 A 
ATOM      5  C   UNL     1      98.316 127.979  83.083  0.00  0.00    +0.000 A 
ATOM      6  C   UNL     1      99.141 128.949  83.652  0.00  0.00    +0.000 A 
ATOM      7  C   UNL     1     100.532 128.807  83.607  0.00  0.00    +0.000 A 
ATOM      8 CL   UNL     1     101.485 130.055  84.328  0.00  0.00    +0.000 Cl
ENDBRANCH   1   2
BRANCH   1   9
ATOM      9  C   UNL     1     103.036 126.957  81.522  0.00  0.00    +0.000 C 
BRANCH   9  13
ATOM     10  C   UNL     1     104.760 122.985  81.548  0.00  0.00    +0.000 A 
ATOM     11  C   UNL     1     104.733 123.707  80.356  0.00  0.00    +0.000 A 
ATOM     12  C   UNL     1     104.182 124.990  80.322  0.00  0.00    +0.000 A 
ATOM     13  C   UNL     1     103.655 125.575  81.482  0.00  0.00    +0.000 A 
ATOM     14  C   UNL     1     103.684 124.831  82.673  0.00  0.00    +0.000 A 
ATOM     15  C   UNL     1     104.233 123.547  82.707  0.00  0.00    +0.000 A 
ENDBRANCH   9  13
ENDBRANCH   1   9
TORSDOF 3
ENDMDL
