MODEL 1
REMARK VINA RESULT:      -4.7      0.000      0.000
REMARK  Name = *****
REMARK  4 active torsions:
REMARK  status: ('A' for Active; 'I' for Inactive)
REMARK    1  A    between atoms: C_1  and  C_2
REMARK    2  A    between atoms: C_4  and  O_9
REMARK    3  A    between atoms: O_9  and  C_10
REMARK    4  A    between atoms: C_10  and  C_12
REMARK                            x       y       z     vdW  Elec       q    Type
REMARK                         _______ _______ _______ _____ _____    ______ ____
ROOT
ATOM      1  O   UNL     1     102.465 126.694  83.255  0.00  0.00    +0.000 OA
ENDROOT
BRANCH   1   5
ATOM      2  C   UNL     1      97.989 126.612  83.712  0.00  0.00    +0.000 C 
ATOM      3  C   UNL     1      98.760 127.284  82.571  0.00  0.00    +0.000 C 
ATOM      4  C   UNL     1     100.177 126.702  82.427  0.00  0.00    +0.000 C 
ATOM      5  C   UNL     1     101.121 127.123  83.565  0.00  0.00    +0.000 C 
ATOM      6  C   UNL     1     101.151 128.651  83.716  0.00  0.00    +0.000 C 
ATOM      7  C   UNL     1      99.761 129.223  83.839  0.00  0.00    +0.000 C 
ATOM      8  C   UNL     1      99.393 130.020  84.854  0.00  0.00    +0.000 C 
ATOM      9  C   UNL     1      98.811 128.812  82.742  0.00  0.00    +0.000 C 
ENDBRANCH   1   5
BRANCH   1  10
ATOM     10  C   UNL     1     102.797 125.442  83.656  0.00  0.00    +0.000 C 
ATOM     11  O   UNL     1     102.534 124.941  84.738  0.00  0.00    +0.000 OA
BRANCH  10  12
ATOM     12  C   UNL     1     103.539 124.730  82.580  0.00  0.00    +0.000 A 
ATOM     13  C   UNL     1     103.532 125.287  81.293  0.00  0.00    +0.000 A 
ATOM     14  C   UNL     1     104.215 124.659  80.250  0.00  0.00    +0.000 A 
ATOM     15  C   UNL     1     104.907 123.471  80.485  0.00  0.00    +0.000 A 
ATOM     16  C   UNL     1     104.919 122.910  81.762  0.00  0.00    +0.000 A 
ATOM     17  C   UNL     1     104.237 123.536  82.809  0.00  0.00    +0.000 A 
ENDBRANCH  10  12
ENDBRANCH   1  10
TORSDOF 3
ENDMDL
