REMARK  Name = *****
REMARK  3 active torsions:
REMARK  status: ('A' for Active; 'I' for Inactive)
REMARK    1  A    between atoms: C_5  and  S_6
REMARK    2  A    between atoms: S_6  and  S_7
REMARK    3  A    between atoms: S_7  and  C_8
REMARK                            x       y       z     vdW  Elec       q    Type
REMARK                         _______ _______ _______ _____ _____    ______ ____
ROOT
ATOM      1  S   UNL     1       2.797  -1.514   0.144  0.00  0.00    +0.000 S 
ENDROOT
BRANCH   1   6
ATOM      2  C   UNL     1       1.083   0.259  -1.203  0.00  0.00    +0.000 A 
ATOM      3  C   UNL     1      -0.074   0.996  -1.061  0.00  0.00    +0.000 A 
ATOM      4  S   UNL     1      -0.779   0.797   0.487  0.00  0.00    +0.000 S 
ATOM      5  C   UNL     1       0.461  -0.280   0.973  0.00  0.00    +0.000 A 
ATOM      6  C   UNL     1       1.393  -0.471  -0.021  0.00  0.00    +0.000 A 
ENDBRANCH   1   6
BRANCH   1   7
ATOM      7  S   UNL     1       4.371  -0.199  -0.009  0.00  0.00    +0.000 S 
BRANCH   7   8
ATOM      8  C   UNL     1       4.480   0.498   1.602  0.00  0.00    +0.000 A 
ATOM      9  C   UNL     1       4.640  -0.216   2.768  0.00  0.00    +0.000 A 
ATOM     10  S   UNL     1       4.703   0.808   4.139  0.00  0.00    +0.000 S 
ATOM     11  C   UNL     1       4.534   2.209   3.169  0.00  0.00    +0.000 A 
ATOM     12  C   UNL     1       4.429   1.901   1.830  0.00  0.00    +0.000 A 
ENDBRANCH   7   8
ENDBRANCH   1   7
TORSDOF 3
