MODEL 1
REMARK VINA RESULT:      -3.9      0.000      0.000
REMARK  Name = *****
REMARK  3 active torsions:
REMARK  status: ('A' for Active; 'I' for Inactive)
REMARK    1  A    between atoms: C_4  and  S_6
REMARK    2  A    between atoms: S_6  and  C_7
REMARK    3  A    between atoms: C_7  and  C_9
REMARK                            x       y       z     vdW  Elec       q    Type
REMARK                         _______ _______ _______ _____ _____    ______ ____
ROOT
ATOM      1  C   UNL     1      88.048  70.570  85.972  0.00  0.00    +0.000 C 
ATOM      2  O   UNL     1      88.222  70.266  84.797  0.00  0.00    +0.000 OA
ENDROOT
BRANCH   1   3
ATOM      3  C   UNL     1      86.778  71.216  86.413  0.00  0.00    +0.000 A 
ATOM      4  C   UNL     1      85.845  71.773  85.527  0.00  0.00    +0.000 A 
ATOM      5  C   UNL     1      84.678  72.355  86.024  0.00  0.00    +0.000 A 
ATOM      6  C   UNL     1      84.422  72.390  87.393  0.00  0.00    +0.000 A 
ATOM      7  C   UNL     1      85.339  71.832  88.281  0.00  0.00    +0.000 A 
ATOM      8  C   UNL     1      86.509  71.244  87.792  0.00  0.00    +0.000 A 
ATOM      9 CL   UNL     1      83.537  73.038  84.930  0.00  0.00    +0.000 Cl
ENDBRANCH   1   3
BRANCH   1  10
ATOM     10  S   UNL     1      89.259  70.168  87.173  0.00  0.00    +0.000 S 
BRANCH  10  14
ATOM     11  C   UNL     1      89.888  66.421  86.190  0.00  0.00    +0.000 C 
ATOM     12  C   UNL     1      88.737  66.045  87.110  0.00  0.00    +0.000 C 
ATOM     13  S   UNL     1      87.790  67.574  87.206  0.00  0.00    +0.000 S 
ATOM     14  C   UNL     1      89.231  68.475  86.838  0.00  0.00    +0.000 C 
ATOM     15  N   UNL     1      90.265  67.835  86.403  0.00  0.00    +0.000 NA
ENDBRANCH  10  14
ENDBRANCH   1  10
TORSDOF 3
ENDMDL
