MODEL 1
REMARK VINA RESULT:      -4.9      0.000      0.000
REMARK  Name = *****
REMARK  2 active torsions:
REMARK  status: ('A' for Active; 'I' for Inactive)
REMARK    1  A    between atoms: C_5  and  N_7
REMARK    2  A    between atoms: C_8  and  C_9
REMARK                            x       y       z     vdW  Elec       q    Type
REMARK                         _______ _______ _______ _____ _____    ______ ____
ROOT
ATOM      1  N   UNL     1     101.574 126.002  82.174  0.00  0.00    +0.000 NA
ATOM      2  C   UNL     1     102.771 126.293  81.776  0.00  0.00    +0.000 C 
ENDROOT
BRANCH   1   7
ATOM      3  C   UNL     1     100.629 129.188  83.802  0.00  0.00    +0.000 A 
ATOM      4  C   UNL     1      99.242 129.196  83.657  0.00  0.00    +0.000 A 
ATOM      5  C   UNL     1      98.607 128.138  83.010  0.00  0.00    +0.000 A 
ATOM      6  C   UNL     1      99.365 127.080  82.511  0.00  0.00    +0.000 A 
ATOM      7  C   UNL     1     100.763 127.059  82.633  0.00  0.00    +0.000 A 
ATOM      8  C   UNL     1     101.382 128.122  83.297  0.00  0.00    +0.000 A 
ATOM      9  F   UNL     1      98.724 126.072  81.896  0.00  0.00    +0.000 F 
ENDBRANCH   1   7
BRANCH   2  10
ATOM     10  C   UNL     1     103.692 125.258  81.266  0.00  0.00    +0.000 A 
ATOM     11  C   UNL     1     104.323 125.411  80.030  0.00  0.00    +0.000 A 
ATOM     12  C   UNL     1     105.181 124.415  79.583  0.00  0.00    +0.000 A 
ATOM     13  C   UNL     1     105.420 123.275  80.346  0.00  0.00    +0.000 A 
ATOM     14  C   UNL     1     104.790 123.124  81.580  0.00  0.00    +0.000 A 
ATOM     15  C   UNL     1     103.924 124.117  82.044  0.00  0.00    +0.000 A 
ATOM     16  F   UNL     1     105.789 124.551  78.398  0.00  0.00    +0.000 F 
ENDBRANCH   2  10
TORSDOF 2
ENDMDL
