MODEL 1
REMARK VINA RESULT:      -4.8      0.000      0.000
REMARK  Name = *****
REMARK  2 active torsions:
REMARK  status: ('A' for Active; 'I' for Inactive)
REMARK    1  A    between atoms: C_5  and  C_6
REMARK    2  A    between atoms: C_7  and  C_8
REMARK                            x       y       z     vdW  Elec       q    Type
REMARK                         _______ _______ _______ _____ _____    ______ ____
ROOT
ATOM      1  C   UNL     1      84.917  56.661  92.571  0.00  0.00    +0.000 C 
ATOM      2  C   UNL     1      83.374  56.618  92.559  0.00  0.00    +0.000 C 
ATOM      3  C   UNL     1      83.044  57.170  91.170  0.00  0.00    +0.000 C 
ATOM      4  C   UNL     1      84.117  58.175  90.989  0.00  0.00    +0.000 C 
ATOM      5  C   UNL     1      84.036  59.484  90.731  0.00  0.00    +0.000 C 
ATOM      6  C   UNL     1      85.241  57.229  91.188  0.00  0.00    +0.000 C 
ATOM      7  O   UNL     1      84.922  56.198  90.235  0.00  0.00    +0.000 OA
ATOM      8  O   UNL     1      83.431  56.158  90.222  0.00  0.00    +0.000 OA
ENDROOT
BRANCH   5   9
ATOM      9  C   UNL     1      85.175  60.358  90.576  0.00  0.00    +0.000 C 
ATOM     10  C   UNL     1      85.103  61.530  89.925  0.00  0.00    +0.000 C 
BRANCH  10  11
ATOM     11  C   UNL     1      86.245  62.441  89.754  0.00  0.00    +0.000 A 
ATOM     12  C   UNL     1      86.722  63.243  90.798  0.00  0.00    +0.000 A 
ATOM     13  C   UNL     1      87.829  64.074  90.606  0.00  0.00    +0.000 A 
ATOM     14  C   UNL     1      88.476  64.102  89.372  0.00  0.00    +0.000 A 
ATOM     15  C   UNL     1      88.021  63.295  88.332  0.00  0.00    +0.000 A 
ATOM     16  C   UNL     1      86.914  62.464  88.523  0.00  0.00    +0.000 A 
ENDBRANCH  10  11
ENDBRANCH   5   9
TORSDOF 2
ENDMDL
