REMARK  Name = *****
REMARK  5 active torsions:
REMARK  status: ('A' for Active; 'I' for Inactive)
REMARK    1  A    between atoms: C_4  and  C_7
REMARK    2  A    between atoms: C_7  and  C_8
REMARK    3  A    between atoms: C_7  and  S_11
REMARK    4  A    between atoms: C_8  and  C_9
REMARK    5  A    between atoms: S_11  and  C_12
REMARK                            x       y       z     vdW  Elec       q    Type
REMARK                         _______ _______ _______ _____ _____    ______ ____
ROOT
ATOM      1  C   UNL     1      -2.810   0.300  -0.603  0.00  0.00    +0.000 C 
ENDROOT
BRANCH   1   5
ATOM      2  C   UNL     1       1.240  -0.111   0.938  0.00  0.00    +0.000 A 
ATOM      3  C   UNL     1       1.049   0.330  -0.368  0.00  0.00    +0.000 A 
ATOM      4  C   UNL     1      -0.243   0.468  -0.887  0.00  0.00    +0.000 A 
ATOM      5  C   UNL     1      -1.370   0.164  -0.110  0.00  0.00    +0.000 A 
ATOM      6  C   UNL     1      -1.151  -0.275   1.213  0.00  0.00    +0.000 A 
ATOM      7  C   UNL     1       0.139  -0.414   1.730  0.00  0.00    +0.000 A 
ENDBRANCH   1   5
BRANCH   1   8
ATOM      8  C   UNL     1      -3.040   1.152  -1.862  0.00  0.00    +0.000 C 
BRANCH   8   9
ATOM      9  C   UNL     1      -2.600   0.513  -3.155  0.00  0.00    +0.000 C 
ATOM     10  O   UNL     1      -1.883   1.088  -3.970  0.00  0.00    +0.000 OA
ENDBRANCH   8   9
ENDBRANCH   1   8
BRANCH   1  11
ATOM     11  S   UNL     1      -3.592  -1.380  -0.734  0.00  0.00    +0.000 S 
BRANCH  11  12
ATOM     12  C   UNL     1      -5.320  -0.947  -0.802  0.00  0.00    +0.000 A 
ATOM     13  C   UNL     1      -6.074  -1.331  -1.916  0.00  0.00    +0.000 A 
ATOM     14  C   UNL     1      -7.428  -1.003  -1.998  0.00  0.00    +0.000 A 
ATOM     15  C   UNL     1      -8.039  -0.299  -0.962  0.00  0.00    +0.000 A 
ATOM     16  C   UNL     1      -7.299   0.070   0.160  0.00  0.00    +0.000 A 
ATOM     17  C   UNL     1      -5.944  -0.259   0.243  0.00  0.00    +0.000 A 
ENDBRANCH  11  12
ENDBRANCH   1  11
TORSDOF 5
