MODEL 1
REMARK VINA RESULT:      -4.6      0.000      0.000
REMARK  Name = *****
REMARK  3 active torsions:
REMARK  status: ('A' for Active; 'I' for Inactive)
REMARK    1  A    between atoms: C_5  and  C_7
REMARK    2  A    between atoms: C_7  and  N_8
REMARK    3  A    between atoms: N_8  and  C_9
REMARK                            x       y       z     vdW  Elec       q    Type
REMARK                         _______ _______ _______ _____ _____    ______ ____
ROOT
ATOM      1  N   UNL     1     103.241 126.683  81.731  0.00  0.00    +0.000 N 
ATOM      2  O   UNL     1     103.266 127.383  80.664  0.00  0.00    +0.000 OA
ENDROOT
BRANCH   1   3
ATOM      3  C   UNL     1     103.747 125.319  81.712  0.00  0.00    +0.000 A 
ATOM      4  C   UNL     1     104.213 124.794  80.499  0.00  0.00    +0.000 A 
ATOM      5  C   UNL     1     104.719 123.493  80.456  0.00  0.00    +0.000 A 
ATOM      6  C   UNL     1     104.764 122.728  81.622  0.00  0.00    +0.000 A 
ATOM      7  C   UNL     1     104.316 123.255  82.835  0.00  0.00    +0.000 A 
ATOM      8  C   UNL     1     103.812 124.558  82.886  0.00  0.00    +0.000 A 
ATOM      9 CL   UNL     1     105.384 121.125  81.568  0.00  0.00    +0.000 Cl
ENDBRANCH   1   3
BRANCH   1  10
ATOM     10  C   UNL     1     102.703 127.125  82.845  0.00  0.00    +0.000 C 
BRANCH  10  15
ATOM     11  C   UNL     1      99.001 126.918  82.445  0.00  0.00    +0.000 A 
ATOM     12  C   UNL     1      98.575 128.115  83.023  0.00  0.00    +0.000 A 
ATOM     13  C   UNL     1      99.507 129.003  83.565  0.00  0.00    +0.000 A 
ATOM     14  C   UNL     1     100.870 128.703  83.521  0.00  0.00    +0.000 A 
ATOM     15  C   UNL     1     101.293 127.513  82.916  0.00  0.00    +0.000 A 
ATOM     16  C   UNL     1     100.361 126.611  82.396  0.00  0.00    +0.000 A 
ATOM     17 CL   UNL     1     101.970 129.785  84.295  0.00  0.00    +0.000 Cl
ENDBRANCH  10  15
ENDBRANCH   1  10
TORSDOF 3
ENDMDL
