MODEL 1
REMARK VINA RESULT:      -4.3      0.000      0.000
REMARK  Name = *****
REMARK  5 active torsions:
REMARK  status: ('A' for Active; 'I' for Inactive)
REMARK    1  A    between atoms: C_1  and  C_2
REMARK    2  A    between atoms: C_2  and  C_4
REMARK    3  A    between atoms: C_9  and  S_10
REMARK    4  A    between atoms: S_10  and  C_11
REMARK    5  A    between atoms: C_11  and  C_13
REMARK                            x       y       z     vdW  Elec       q    Type
REMARK                         _______ _______ _______ _____ _____    ______ ____
ROOT
ATOM      1  S   UNL     1      88.577  68.639  84.692  0.00  0.00    +0.000 S 
ENDROOT
BRANCH   1   7
ATOM      2  C   UNL     1      88.198  71.398  84.242  0.00  0.00    +0.000 A 
ATOM      3  C   UNL     1      88.671  72.676  83.900  0.00  0.00    +0.000 A 
ATOM      4  C   UNL     1      90.023  72.873  83.624  0.00  0.00    +0.000 A 
ATOM      5  C   UNL     1      90.907  71.800  83.686  0.00  0.00    +0.000 A 
ATOM      6  C   UNL     1      90.441  70.527  84.028  0.00  0.00    +0.000 A 
ATOM      7  C   UNL     1      89.084  70.312  84.318  0.00  0.00    +0.000 A 
BRANCH   2   9
ATOM      8  C   UNL     1      86.276  71.545  85.923  0.00  0.00    +0.000 C 
ATOM      9  C   UNL     1      86.748  71.249  84.522  0.00  0.00    +0.000 C 
ATOM     10  O   UNL     1      85.978  70.865  83.647  0.00  0.00    +0.000 OA
ENDBRANCH   2   9
ENDBRANCH   1   7
BRANCH   1  11
ATOM     11  C   UNL     1      89.320  68.432  86.273  0.00  0.00    +0.000 C 
ATOM     12  O   UNL     1      90.355  67.808  86.466  0.00  0.00    +0.000 OA
BRANCH  11  13
ATOM     13  C   UNL     1      88.615  69.080  87.387  0.00  0.00    +0.000 A 
ATOM     14  C   UNL     1      89.145  70.275  87.891  0.00  0.00    +0.000 A 
ATOM     15  C   UNL     1      88.516  70.919  88.956  0.00  0.00    +0.000 A 
ATOM     16  C   UNL     1      87.369  70.367  89.526  0.00  0.00    +0.000 A 
ATOM     17  C   UNL     1      86.851  69.166  89.034  0.00  0.00    +0.000 A 
ATOM     18  C   UNL     1      87.475  68.515  87.965  0.00  0.00    +0.000 A 
ATOM     19 CL   UNL     1      86.805  67.017  87.427  0.00  0.00    +0.000 Cl
ENDBRANCH  11  13
ENDBRANCH   1  11
TORSDOF 4
ENDMDL
