MODEL 1
REMARK VINA RESULT:      -4.4      0.000      0.000
REMARK  Name = *****
REMARK  4 active torsions:
REMARK  status: ('A' for Active; 'I' for Inactive)
REMARK    1  A    between atoms: C_1  and  C_2
REMARK    2  A    between atoms: C_2  and  C_10
REMARK    3  A    between atoms: C_3  and  C_4
REMARK    4  A    between atoms: C_15  and  N_16
REMARK                            x       y       z     vdW  Elec       q    Type
REMARK                         _______ _______ _______ _____ _____    ______ ____
ROOT
ATOM      1  C   UNL     1     103.321 127.388  80.550  0.00  0.00    +0.000 C 
ATOM      2  C   UNL     1     103.275 126.268  81.550  0.00  0.00    +0.000 C 
ATOM      3  C   UNL     1     102.363 126.097  82.525  0.00  0.00    +0.000 C 
ENDROOT
BRANCH   3   4
ATOM      4  C   UNL     1     101.228 126.991  82.757  0.00  0.00    +0.000 A 
ATOM      5  C   UNL     1     101.414 128.202  83.432  0.00  0.00    +0.000 A 
ATOM      6  C   UNL     1     100.330 129.052  83.657  0.00  0.00    +0.000 A 
ATOM      7  C   UNL     1      99.059 128.695  83.210  0.00  0.00    +0.000 A 
ATOM      8  C   UNL     1      98.869 127.488  82.538  0.00  0.00    +0.000 A 
ATOM      9  C   UNL     1      99.951 126.636  82.311  0.00  0.00    +0.000 A 
ENDBRANCH   3   4
BRANCH   2  10
ATOM     10  C   UNL     1     104.349 125.265  81.422  0.00  0.00    +0.000 A 
ATOM     11  C   UNL     1     104.158 124.164  80.575  0.00  0.00    +0.000 A 
ATOM     12  C   UNL     1     105.161 123.200  80.426  0.00  0.00    +0.000 A 
ATOM     13  C   UNL     1     106.366 123.326  81.119  0.00  0.00    +0.000 A 
ATOM     14  C   UNL     1     106.574 124.415  81.962  0.00  0.00    +0.000 A 
ATOM     15  C   UNL     1     105.569 125.374  82.105  0.00  0.00    +0.000 A 
BRANCH  15  16
ATOM     16  N   UNL     1     105.811 126.450  82.953  0.00  0.00    +0.000 NA
ATOM     17  C   UNL     1     106.040 127.350  83.670  0.00  0.00    +0.000 C 
ENDBRANCH  15  16
ENDBRANCH   2  10
TORSDOF 3
ENDMDL
