MODEL 1
REMARK VINA RESULT:      -4.6      0.000      0.000
REMARK  Name = *****
REMARK  2 active torsions:
REMARK  status: ('A' for Active; 'I' for Inactive)
REMARK    1  A    between atoms: C_6  and  N_7
REMARK    2  A    between atoms: C_8  and  C_9
REMARK                            x       y       z     vdW  Elec       q    Type
REMARK                         _______ _______ _______ _____ _____    ______ ____
ROOT
ATOM      1  N   UNL     1     103.251 125.482  80.821  0.00  0.00    +0.000 NA
ATOM      2  C   UNL     1     103.375 126.148  81.926  0.00  0.00    +0.000 C 
ENDROOT
BRANCH   2   3
ATOM      3  C   UNL     1     102.261 126.942  82.480  0.00  0.00    +0.000 A 
ATOM      4  C   UNL     1     100.953 126.485  82.307  0.00  0.00    +0.000 A 
ATOM      5  C   UNL     1      99.885 127.225  82.825  0.00  0.00    +0.000 A 
ATOM      6  C   UNL     1     100.127 128.421  83.514  0.00  0.00    +0.000 A 
ATOM      7  C   UNL     1     101.440 128.873  83.683  0.00  0.00    +0.000 A 
ATOM      8  C   UNL     1     102.507 128.135  83.167  0.00  0.00    +0.000 A 
ATOM      9 CL   UNL     1      98.854 129.382  84.177  0.00  0.00    +0.000 Cl
ATOM     10 CL   UNL     1      98.290 126.606  82.579  0.00  0.00    +0.000 Cl
ENDBRANCH   2   3
BRANCH   1  16
ATOM     11  C   UNL     1     104.588 123.453  80.831  0.00  0.00    +0.000 A 
ATOM     12  C   UNL     1     105.725 122.751  80.426  0.00  0.00    +0.000 A 
ATOM     13  C   UNL     1     106.657 123.374  79.605  0.00  0.00    +0.000 A 
ATOM     14  C   UNL     1     106.477 124.687  79.185  0.00  0.00    +0.000 A 
ATOM     15  C   UNL     1     105.338 125.387  79.590  0.00  0.00    +0.000 A 
ATOM     16  C   UNL     1     104.382 124.770  80.404  0.00  0.00    +0.000 A 
ATOM     17  F   UNL     1     107.748 122.703  79.218  0.00  0.00    +0.000 F 
ENDBRANCH   1  16
TORSDOF 2
ENDMDL
