MODEL 1
REMARK VINA RESULT:      -3.8      0.000      0.000
REMARK  Name = *****
REMARK  3 active torsions:
REMARK  status: ('A' for Active; 'I' for Inactive)
REMARK    1  A    between atoms: C_4  and  C_7
REMARK    2  A    between atoms: C_7  and  S_9
REMARK    3  A    between atoms: S_9  and  C_10
REMARK                            x       y       z     vdW  Elec       q    Type
REMARK                         _______ _______ _______ _____ _____    ______ ____
ROOT
ATOM      1  C   UNL     1      87.869  70.648  85.826  0.00  0.00    +0.000 C 
ATOM      2  O   UNL     1      88.034  70.562  84.615  0.00  0.00    +0.000 OA
ENDROOT
BRANCH   1   6
ATOM      3  C   UNL     1      84.357  72.407  87.583  0.00  0.00    +0.000 A 
ATOM      4  C   UNL     1      84.479  72.387  86.196  0.00  0.00    +0.000 A 
ATOM      5  C   UNL     1      85.609  71.821  85.596  0.00  0.00    +0.000 A 
ATOM      6  C   UNL     1      86.628  71.267  86.385  0.00  0.00    +0.000 A 
ATOM      7  C   UNL     1      86.494  71.300  87.782  0.00  0.00    +0.000 A 
ATOM      8  C   UNL     1      85.363  71.864  88.378  0.00  0.00    +0.000 A 
ENDBRANCH   1   6
BRANCH   1   9
ATOM      9  S   UNL     1      89.108  70.090  86.949  0.00  0.00    +0.000 S 
BRANCH   9  10
ATOM     10  C   UNL     1      88.827  68.384  86.934  0.00  0.00    +0.000 A 
ATOM     11  C   UNL     1      87.743  67.824  87.490  0.00  0.00    +0.000 A 
ATOM     12  S   UNL     1      87.574  66.104  87.372  0.00  0.00    +0.000 S 
ATOM     13  C   UNL     1      89.063  65.824  86.473  0.00  0.00    +0.000 A 
ATOM     14  S   UNL     1      89.582  64.315  85.990  0.00  0.00    +0.000 S 
ATOM     15  S   UNL     1      89.938  67.313  86.131  0.00  0.00    +0.000 S 
ENDBRANCH   9  10
ENDBRANCH   1   9
TORSDOF 3
ENDMDL
