REMARK  Name = *****
REMARK  5 active torsions:
REMARK  status: ('A' for Active; 'I' for Inactive)
REMARK    1  A    between atoms: C_1  and  C_2
REMARK    2  A    between atoms: C_2  and  C_4
REMARK    3  A    between atoms: C_6  and  N_10
REMARK    4  A    between atoms: N_10  and  S_11
REMARK    5  A    between atoms: S_11  and  C_12
REMARK                            x       y       z     vdW  Elec       q    Type
REMARK                         _______ _______ _______ _____ _____    ______ ____
ROOT
ATOM      1  C   UNL     1       3.139  -0.505  -1.049  0.00  0.00    +0.000 A 
ATOM      2  C   UNL     1       2.890   0.388  -2.103  0.00  0.00    +0.000 A 
ATOM      3  C   UNL     1       3.739   0.449  -3.224  0.00  0.00    +0.000 A 
ATOM      4  C   UNL     1       4.880  -0.366  -3.228  0.00  0.00    +0.000 A 
ATOM      5  C   UNL     1       5.135  -1.259  -2.185  0.00  0.00    +0.000 A 
ATOM      6  C   UNL     1       4.264  -1.333  -1.101  0.00  0.00    +0.000 A 
ENDROOT
BRANCH   1   8
ATOM      7  C   UNL     1       1.029   0.288   0.219  0.00  0.00    +0.000 C 
ATOM      8  C   UNL     1       2.244  -0.599   0.144  0.00  0.00    +0.000 C 
ATOM      9  O   UNL     1       2.505  -1.393   1.045  0.00  0.00    +0.000 OA
ENDBRANCH   1   8
BRANCH   3  10
ATOM     10  N   UNL     1       3.466   1.422  -4.217  0.00  0.00    +0.000 N 
ATOM     11  H   UNL     1       2.859   2.166  -4.002  0.00  0.00    +0.000 HD
BRANCH  10  12
ATOM     12  S   UNL     1       4.142   1.346  -5.742  0.00  0.00    +0.000 S 
BRANCH  12  13
ATOM     13  C   UNL     1       3.958   3.054  -6.232  0.00  0.00    +0.000 A 
ATOM     14  C   UNL     1       4.396   4.097  -5.407  0.00  0.00    +0.000 A 
ATOM     15  C   UNL     1       4.249   5.426  -5.811  0.00  0.00    +0.000 A 
ATOM     16  C   UNL     1       3.669   5.719  -7.043  0.00  0.00    +0.000 A 
ATOM     17  C   UNL     1       3.237   4.686  -7.874  0.00  0.00    +0.000 A 
ATOM     18  C   UNL     1       3.384   3.357  -7.471  0.00  0.00    +0.000 A 
ENDBRANCH  12  13
ENDBRANCH  10  12
ENDBRANCH   3  10
TORSDOF 4
