REMARK  Name = *****
REMARK  1 active torsions:
REMARK  status: ('A' for Active; 'I' for Inactive)
REMARK    1  A    between atoms: C_4  and  C_7
REMARK                            x       y       z     vdW  Elec       q    Type
REMARK                         _______ _______ _______ _____ _____    ______ ____
ROOT
ATOM      1  C   UNL     1      -7.020  -0.805   0.685  0.00  0.00    +0.000 C 
ATOM      2  C   UNL     1      -7.389   0.480  -0.040  0.00  0.00    +0.000 C 
ATOM      3  C   UNL     1      -6.802   1.050  -1.110  0.00  0.00    +0.000 C 
ATOM      4  C   UNL     1      -5.607   0.578  -1.846  0.00  0.00    +0.000 A 
ATOM      5  C   UNL     1      -5.345   1.143  -3.105  0.00  0.00    +0.000 A 
ATOM      6  C   UNL     1      -4.213   0.773  -3.837  0.00  0.00    +0.000 A 
ATOM      7  C   UNL     1      -3.321  -0.161  -3.318  0.00  0.00    +0.000 A 
ATOM      8  C   UNL     1      -3.561  -0.726  -2.066  0.00  0.00    +0.000 A 
ATOM      9  C   UNL     1      -4.699  -0.373  -1.328  0.00  0.00    +0.000 A 
ATOM     10  N   UNL     1      -4.883  -0.955  -0.058  0.00  0.00    +0.000 NA
ATOM     11  N   UNL     1      -5.979  -1.556  -0.047  0.00  0.00    +0.000 NA
ENDROOT
BRANCH   1  15
ATOM     12  C   UNL     1     -10.545  -3.247   1.305  0.00  0.00    +0.000 A 
ATOM     13  C   UNL     1     -10.009  -3.112   0.026  0.00  0.00    +0.000 A 
ATOM     14  C   UNL     1      -8.871  -2.330  -0.176  0.00  0.00    +0.000 A 
ATOM     15  C   UNL     1      -8.252  -1.674   0.902  0.00  0.00    +0.000 A 
ATOM     16  C   UNL     1      -8.806  -1.817   2.185  0.00  0.00    +0.000 A 
ATOM     17  C   UNL     1      -9.944  -2.600   2.383  0.00  0.00    +0.000 A 
ENDBRANCH   1  15
TORSDOF 1
