REMARK  Name = *****
REMARK  4 active torsions:
REMARK  status: ('A' for Active; 'I' for Inactive)
REMARK    1  A    between atoms: C_1  and  N_2
REMARK    2  A    between atoms: C_1  and  C_10
REMARK    3  A    between atoms: N_2  and  C_3
REMARK    4  A    between atoms: C_3  and  C_4
REMARK                            x       y       z     vdW  Elec       q    Type
REMARK                         _______ _______ _______ _____ _____    ______ ____
ROOT
ATOM      1  N   UNL     1       2.808   0.282   1.085  0.00  0.00    +0.000 NA
ENDROOT
BRANCH   1   2
ATOM      2  C   UNL     1       2.223   0.030  -0.036  0.00  0.00    +0.000 C 
BRANCH   2   3
ATOM      3  C   UNL     1       2.901  -0.706  -1.121  0.00  0.00    +0.000 A 
ATOM      4  C   UNL     1       4.208  -1.173  -0.960  0.00  0.00    +0.000 A 
ATOM      5  C   UNL     1       4.829  -1.870  -1.999  0.00  0.00    +0.000 A 
ATOM      6  C   UNL     1       4.143  -2.098  -3.193  0.00  0.00    +0.000 A 
ATOM      7  C   UNL     1       2.838  -1.631  -3.352  0.00  0.00    +0.000 A 
ATOM      8  C   UNL     1       2.213  -0.934  -2.316  0.00  0.00    +0.000 A 
ENDBRANCH   2   3
ENDBRANCH   1   2
BRANCH   1   9
ATOM      9  C   UNL     1       1.960   1.018   2.032  0.00  0.00    +0.000 C 
BRANCH   9  10
ATOM     10  C   UNL     1       2.689   1.314   3.321  0.00  0.00    +0.000 A 
ATOM     11  C   UNL     1       3.921   1.985   3.300  0.00  0.00    +0.000 A 
ATOM     12  C   UNL     1       4.587   2.285   4.489  0.00  0.00    +0.000 A 
ATOM     13  C   UNL     1       4.029   1.920   5.713  0.00  0.00    +0.000 A 
ATOM     14  C   UNL     1       2.804   1.255   5.747  0.00  0.00    +0.000 A 
ATOM     15  C   UNL     1       2.136   0.955   4.558  0.00  0.00    +0.000 A 
ENDBRANCH   9  10
ENDBRANCH   1   9
TORSDOF 4
