MODEL 1
REMARK VINA RESULT:      -4.7      0.000      0.000
REMARK  Name = *****
REMARK  3 active torsions:
REMARK  status: ('A' for Active; 'I' for Inactive)
REMARK    1  A    between atoms: C_4  and  C_7
REMARK    2  A    between atoms: C_7  and  C_8
REMARK    3  A    between atoms: C_9  and  C_10
REMARK                            x       y       z     vdW  Elec       q    Type
REMARK                         _______ _______ _______ _____ _____    ______ ____
ROOT
ATOM      1  C   UNL     1      88.712  66.118  86.711  0.00  0.00    +0.000 C 
ATOM      2  C   UNL     1      89.827  66.845  86.534  0.00  0.00    +0.000 C 
ENDROOT
BRANCH   2   3
ATOM      3  C   UNL     1      89.830  68.226  86.033  0.00  0.00    +0.000 A 
ATOM      4  C   UNL     1      89.971  68.519  84.668  0.00  0.00    +0.000 A 
ATOM      5  C   UNL     1      89.938  69.842  84.221  0.00  0.00    +0.000 A 
ATOM      6  C   UNL     1      89.752  70.871  85.136  0.00  0.00    +0.000 A 
ATOM      7  C   UNL     1      89.594  70.601  86.490  0.00  0.00    +0.000 A 
ATOM      8  C   UNL     1      89.626  69.278  86.938  0.00  0.00    +0.000 A 
ATOM      9  F   UNL     1      89.718  72.139  84.707  0.00  0.00    +0.000 F 
ENDBRANCH   2   3
BRANCH   1  10
ATOM     10  C   UNL     1      88.708  64.706  87.225  0.00  0.00    +0.000 C 
BRANCH  10  14
ATOM     11  C   UNL     1      87.205  64.469  91.264  0.00  0.00    +0.000 A 
ATOM     12  C   UNL     1      86.496  65.181  90.297  0.00  0.00    +0.000 A 
ATOM     13  C   UNL     1      86.979  65.256  88.989  0.00  0.00    +0.000 A 
ATOM     14  C   UNL     1      88.173  64.613  88.634  0.00  0.00    +0.000 A 
ATOM     15  C   UNL     1      88.881  63.907  89.617  0.00  0.00    +0.000 A 
ATOM     16  C   UNL     1      88.398  63.834  90.924  0.00  0.00    +0.000 A 
ENDBRANCH  10  14
ENDBRANCH   1  10
TORSDOF 3
ENDMDL
