MODEL 1
REMARK VINA RESULT:      -5.0      0.000      0.000
REMARK  Name = *****
REMARK  4 active torsions:
REMARK  status: ('A' for Active; 'I' for Inactive)
REMARK    1  A    between atoms: C_1  and  N_2
REMARK    2  A    between atoms: N_2  and  C_5
REMARK    3  A    between atoms: C_8  and  C_11
REMARK    4  A    between atoms: C_12  and  C_13
REMARK                            x       y       z     vdW  Elec       q    Type
REMARK                         _______ _______ _______ _____ _____    ______ ____
ROOT
ATOM      1  C   UNL     1     105.906 123.213  80.802  0.00  0.00    +0.000 A 
ATOM      2  C   UNL     1     105.224 123.256  82.027  0.00  0.00    +0.000 A 
ATOM      3  C   UNL     1     104.191 124.178  82.259  0.00  0.00    +0.000 A 
ATOM      4  C   UNL     1     103.813 125.096  81.279  0.00  0.00    +0.000 A 
ATOM      5  C   UNL     1     104.473 125.056  80.052  0.00  0.00    +0.000 A 
ATOM      6  C   UNL     1     105.506 124.136  79.821  0.00  0.00    +0.000 A 
ENDROOT
BRANCH   1   8
ATOM      7  C   UNL     1     106.914 120.950  81.136  0.00  0.00    +0.000 C 
ATOM      8  N   UNL     1     106.970 122.279  80.541  0.00  0.00    +0.000 N 
ATOM      9  C   UNL     1     108.081 122.565  79.757  0.00  0.00    +0.000 C 
ATOM     10  O   UNL     1     109.004 121.796  79.504  0.00  0.00    +0.000 OA
ENDBRANCH   1   8
BRANCH   4  11
ATOM     11  C   UNL     1     102.715 126.052  81.472  0.00  0.00    +0.000 C 
ATOM     12  C   UNL     1     101.909 126.060  82.546  0.00  0.00    +0.000 C 
BRANCH  12  13
ATOM     13  C   UNL     1     100.821 127.029  82.745  0.00  0.00    +0.000 A 
ATOM     14  C   UNL     1      99.500 126.757  82.367  0.00  0.00    +0.000 A 
ATOM     15  C   UNL     1      98.486 127.690  82.601  0.00  0.00    +0.000 A 
ATOM     16  C   UNL     1      98.782 128.900  83.226  0.00  0.00    +0.000 A 
ATOM     17  C   UNL     1     100.089 129.175  83.621  0.00  0.00    +0.000 A 
ATOM     18  C   UNL     1     101.102 128.241  83.387  0.00  0.00    +0.000 A 
ENDBRANCH  12  13
ENDBRANCH   4  11
TORSDOF 3
ENDMDL
