MODEL 1
REMARK VINA RESULT:      -4.7      0.000      0.000
REMARK  Name = *****
REMARK  6 active torsions:
REMARK  status: ('A' for Active; 'I' for Inactive)
REMARK    1  A    between atoms: C_1  and  N_2
REMARK    2  A    between atoms: N_2  and  C_3
REMARK    3  A    between atoms: N_2  and  C_4
REMARK    4  A    between atoms: C_4  and  C_5
REMARK    5  A    between atoms: C_10  and  C_11
REMARK    6  A    between atoms: C_12  and  C_13
REMARK                            x       y       z     vdW  Elec       q    Type
REMARK                         _______ _______ _______ _____ _____    ______ ____
ROOT
ATOM      1  C   UNL     1      89.096  64.676  86.520  0.00  0.00    +0.000 A 
ATOM      2  C   UNL     1      90.044  63.801  85.954  0.00  0.00    +0.000 A 
ATOM      3  C   UNL     1      91.203  64.286  85.348  0.00  0.00    +0.000 A 
ATOM      4  C   UNL     1      91.434  65.656  85.288  0.00  0.00    +0.000 A 
ATOM      5  C   UNL     1      90.513  66.538  85.852  0.00  0.00    +0.000 A 
ATOM      6  C   UNL     1      89.348  66.061  86.473  0.00  0.00    +0.000 A 
ENDROOT
BRANCH   6   7
ATOM      7  C   UNL     1      88.459  67.055  87.086  0.00  0.00    +0.000 C 
ATOM      8  C   UNL     1      88.657  68.363  86.867  0.00  0.00    +0.000 C 
BRANCH   8   9
ATOM      9  C   UNL     1      87.809  69.456  87.372  0.00  0.00    +0.000 A 
ATOM     10  C   UNL     1      87.696  69.772  88.731  0.00  0.00    +0.000 A 
ATOM     11  C   UNL     1      86.881  70.827  89.153  0.00  0.00    +0.000 A 
ATOM     12  C   UNL     1      86.179  71.586  88.219  0.00  0.00    +0.000 A 
ATOM     13  C   UNL     1      86.295  71.294  86.862  0.00  0.00    +0.000 A 
ATOM     14  C   UNL     1      87.109  70.239  86.443  0.00  0.00    +0.000 A 
ENDBRANCH   8   9
ENDBRANCH   6   7
BRANCH   1  15
ATOM     15  C   UNL     1      87.821  64.092  87.104  0.00  0.00    +0.000 C 
BRANCH  15  17
ATOM     16  C   UNL     1      88.436  63.648  89.409  0.00  0.00    +0.000 C 
ATOM     17  N   UNL     1      88.045  63.052  88.129  0.00  0.00    +0.000 N 
ATOM     18  C   UNL     1      86.821  62.267  88.307  0.00  0.00    +0.000 C 
ATOM     19  H   UNL     1      88.803  62.446  87.812  0.00  0.00    +0.000 HD
ENDBRANCH  15  17
ENDBRANCH   1  15
TORSDOF 4
ENDMDL
