REMARK  Name = *****
REMARK  2 active torsions:
REMARK  status: ('A' for Active; 'I' for Inactive)
REMARK    1  A    between atoms: C_4  and  C_8
REMARK    2  A    between atoms: C_9  and  C_10
REMARK                            x       y       z     vdW  Elec       q    Type
REMARK                         _______ _______ _______ _____ _____    ______ ____
ROOT
ATOM      1  C   UNL     1       1.466  -1.936   0.992  0.00  0.00    +0.000 C 
ATOM      2  C   UNL     1       0.496  -2.614   1.197  0.00  0.00    +0.000 C 
ENDROOT
BRANCH   1   6
ATOM      3  C   UNL     1       1.987   1.088   1.469  0.00  0.00    +0.000 C 
ATOM      4  C   UNL     1       3.375   0.812   2.052  0.00  0.00    +0.000 C 
ATOM      5  C   UNL     1       3.396  -0.733   2.062  0.00  0.00    +0.000 C 
ATOM      6  C   UNL     1       2.651  -1.099   0.741  0.00  0.00    +0.000 C 
ATOM      7  C   UNL     1       2.265   0.297   0.183  0.00  0.00    +0.000 C 
ATOM      8  C   UNL     1       3.547   0.988  -0.234  0.00  0.00    +0.000 C 
ATOM      9  C   UNL     1       4.217   1.287   0.890  0.00  0.00    +0.000 C 
ENDBRANCH   1   6
BRANCH   2  10
ATOM     10  C   UNL     1      -0.662  -3.416   1.446  0.00  0.00    +0.000 A 
ATOM     11  C   UNL     1      -0.552  -4.807   1.502  0.00  0.00    +0.000 A 
ATOM     12  C   UNL     1      -1.684  -5.588   1.746  0.00  0.00    +0.000 A 
ATOM     13  C   UNL     1      -2.925  -4.979   1.935  0.00  0.00    +0.000 A 
ATOM     14  C   UNL     1      -3.036  -3.590   1.879  0.00  0.00    +0.000 A 
ATOM     15  C   UNL     1      -1.906  -2.808   1.635  0.00  0.00    +0.000 A 
ENDBRANCH   2  10
TORSDOF 2
