MODEL 1
REMARK VINA RESULT:      -4.0      0.000      0.000
REMARK  Name = *****
REMARK  4 active torsions:
REMARK  status: ('A' for Active; 'I' for Inactive)
REMARK    1  A    between atoms: C_1  and  O_2
REMARK    2  A    between atoms: O_2  and  C_3
REMARK    3  A    between atoms: C_6  and  C_9
REMARK    4  A    between atoms: C_10  and  C_11
REMARK                            x       y       z     vdW  Elec       q    Type
REMARK                         _______ _______ _______ _____ _____    ______ ____
ROOT
ATOM      1  C   UNL     1     104.421 124.057  81.798  0.00  0.00    +0.000 A 
ATOM      2  C   UNL     1     103.916 124.282  83.077  0.00  0.00    +0.000 A 
ATOM      3  C   UNL     1     102.925 125.252  83.283  0.00  0.00    +0.000 A 
ATOM      4  C   UNL     1     102.435 126.016  82.217  0.00  0.00    +0.000 A 
ATOM      5  C   UNL     1     102.935 125.773  80.934  0.00  0.00    +0.000 A 
ATOM      6  C   UNL     1     103.923 124.805  80.729  0.00  0.00    +0.000 A 
ENDROOT
BRANCH   1   8
ATOM      7  C   UNL     1     105.057 122.220  80.431  0.00  0.00    +0.000 C 
ATOM      8  O   UNL     1     105.384 123.146  81.459  0.00  0.00    +0.000 OA
ENDBRANCH   1   8
BRANCH   4   9
ATOM      9  C   UNL     1     101.373 127.015  82.390  0.00  0.00    +0.000 C 
ATOM     10  C   UNL     1     100.069 126.708  82.517  0.00  0.00    +0.000 C 
BRANCH  10  11
ATOM     11  C   UNL     1      98.895 127.635  82.715  0.00  0.00    +0.000 C 
ATOM     12  S   UNL     1      97.432 126.922  83.510  0.00  0.00    +0.000 S 
ATOM     13  C   UNL     1      98.061 126.643  85.191  0.00  0.00    +0.000 C 
ATOM     14  C   UNL     1      98.557 127.911  85.870  0.00  0.00    +0.000 C 
ATOM     15  C   UNL     1      99.783 128.520  85.205  0.00  0.00    +0.000 C 
ATOM     16  S   UNL     1      99.427 129.164  83.547  0.00  0.00    +0.000 S 
ENDBRANCH  10  11
ENDBRANCH   4   9
TORSDOF 3
ENDMDL
