MODEL 1
REMARK VINA RESULT:      -4.3      0.000      0.000
REMARK  Name = *****
REMARK  1 active torsions:
REMARK  status: ('A' for Active; 'I' for Inactive)
REMARK    1  A    between atoms: C_4  and  N_7
REMARK                            x       y       z     vdW  Elec       q    Type
REMARK                         _______ _______ _______ _____ _____    ______ ____
ROOT
ATOM      1  N   UNL     1     102.985 126.527  82.122  0.00  0.00    +0.000 N 
ATOM      2  S   UNL     1     104.061 127.154  80.978  0.00  0.00    +0.000 S 
ATOM      3  O   UNL     1     103.371 127.632  79.735  0.00  0.00    +0.000 OA
ATOM      4  C   UNL     1     104.697 125.538  80.583  0.00  0.00    +0.000 A 
ATOM      5  C   UNL     1     105.527 125.280  79.495  0.00  0.00    +0.000 A 
ATOM      6  C   UNL     1     105.992 123.980  79.286  0.00  0.00    +0.000 A 
ATOM      7  C   UNL     1     105.632 122.955  80.166  0.00  0.00    +0.000 A 
ATOM      8  C   UNL     1     104.796 123.221  81.252  0.00  0.00    +0.000 A 
ATOM      9  C   UNL     1     104.327 124.519  81.446  0.00  0.00    +0.000 A 
ATOM     10  S   UNL     1     103.200 124.969  82.753  0.00  0.00    +0.000 S 
ATOM     11  O   UNL     1     104.052 125.001  83.988  0.00  0.00    +0.000 OA
ENDROOT
BRANCH   1  15
ATOM     12  C   UNL     1     100.097 129.073  83.949  0.00  0.00    +0.000 A 
ATOM     13  C   UNL     1      99.691 127.956  83.228  0.00  0.00    +0.000 A 
ATOM     14  C   UNL     1     100.644 127.130  82.621  0.00  0.00    +0.000 A 
ATOM     15  C   UNL     1     102.023 127.393  82.722  0.00  0.00    +0.000 A 
ATOM     16  C   UNL     1     102.401 128.531  83.460  0.00  0.00    +0.000 A 
ATOM     17  C   UNL     1     101.452 129.363  84.064  0.00  0.00    +0.000 A 
ENDBRANCH   1  15
TORSDOF 1
ENDMDL
