MODEL 1
REMARK VINA RESULT:      -4.8      0.000      0.000
REMARK  Name = *****
REMARK  4 active torsions:
REMARK  status: ('A' for Active; 'I' for Inactive)
REMARK    1  A    between atoms: C_1  and  C_2
REMARK    2  A    between atoms: C_5  and  C_8
REMARK    3  A    between atoms: C_8  and  N_10
REMARK    4  A    between atoms: N_10  and  C_11
REMARK                            x       y       z     vdW  Elec       q    Type
REMARK                         _______ _______ _______ _____ _____    ______ ____
ROOT
ATOM      1  C   UNL     1      88.979  64.316  86.687  0.00  0.00    +0.000 C 
ATOM      2  S   UNL     1      88.887  63.513  85.218  0.00  0.00    +0.000 S 
ENDROOT
BRANCH   1   7
ATOM      3  C   UNL     1      89.186  70.103  86.835  0.00  0.00    +0.000 C 
ATOM      4  C   UNL     1      89.110  68.605  86.779  0.00  0.00    +0.000 A 
ATOM      5  C   UNL     1      88.006  67.926  87.310  0.00  0.00    +0.000 A 
ATOM      6  C   UNL     1      87.947  66.531  87.272  0.00  0.00    +0.000 A 
ATOM      7  C   UNL     1      89.001  65.808  86.706  0.00  0.00    +0.000 A 
ATOM      8  C   UNL     1      90.117  66.476  86.188  0.00  0.00    +0.000 A 
ATOM      9  C   UNL     1      90.169  67.870  86.228  0.00  0.00    +0.000 A 
ENDBRANCH   1   7
BRANCH   1  10
ATOM     10  N   UNL     1      88.994  63.794  87.976  0.00  0.00    +0.000 N 
ATOM     11  H   UNL     1      89.901  63.666  88.338  0.00  0.00    +0.000 HD
BRANCH  10  12
ATOM     12  C   UNL     1      87.966  63.411  88.868  0.00  0.00    +0.000 A 
ATOM     13  C   UNL     1      87.037  62.397  88.648  0.00  0.00    +0.000 A 
ATOM     14  C   UNL     1      86.080  62.103  89.621  0.00  0.00    +0.000 A 
ATOM     15  C   UNL     1      86.030  62.796  90.822  0.00  0.00    +0.000 A 
ATOM     16  C   UNL     1      86.959  63.800  91.063  0.00  0.00    +0.000 A 
ATOM     17  C   UNL     1      87.922  64.100  90.094  0.00  0.00    +0.000 A 
ATOM     18  F   UNL     1      85.197  61.120  89.396  0.00  0.00    +0.000 F 
ENDBRANCH  10  12
ENDBRANCH   1  10
TORSDOF 3
ENDMDL
