REMARK  Name = *****
REMARK  6 active torsions:
REMARK  status: ('A' for Active; 'I' for Inactive)
REMARK    1  A    between atoms: C_1  and  C_2
REMARK    2  A    between atoms: C_5  and  C_8
REMARK    3  A    between atoms: C_8  and  O_9
REMARK    4  A    between atoms: O_9  and  C_10
REMARK    5  A    between atoms: C_11  and  N_17
REMARK    6  A    between atoms: C_13  and  C_16
REMARK                            x       y       z     vdW  Elec       q    Type
REMARK                         _______ _______ _______ _____ _____    ______ ____
ROOT
ATOM      1  O   UNL     1      -3.856   1.079  -0.006  0.00  0.00    +0.000 OA
ENDROOT
BRANCH   1   2
ATOM      2  C   UNL     1      -5.208   1.235  -0.050  0.00  0.00    +0.000 A 
ATOM      3  C   UNL     1      -5.669   2.516   0.257  0.00  0.00    +0.000 A 
ATOM      4  C   UNL     1      -7.030   2.841   0.257  0.00  0.00    +0.000 A 
ATOM      5  C   UNL     1      -7.963   1.848  -0.052  0.00  0.00    +0.000 A 
ATOM      6  C   UNL     1      -7.506   0.563  -0.378  0.00  0.00    +0.000 A 
ATOM      7  C   UNL     1      -6.139   0.254  -0.373  0.00  0.00    +0.000 A 
ATOM      8  C   UNL     1      -9.432   2.161  -0.098  0.00  0.00    +0.000 C 
BRANCH   3   9
ATOM      9  N   UNL     1      -4.729   3.488   0.569  0.00  0.00    +0.000 NA
ATOM     10  N   UNL     1      -4.029   4.283   0.821  0.00  0.00    +0.000 NA
ENDBRANCH   3   9
ENDBRANCH   1   2
BRANCH   1  11
ATOM     11  C   UNL     1      -3.320  -0.220  -0.292  0.00  0.00    +0.000 C 
BRANCH  11  16
ATOM     12  C   UNL     1       2.455   0.286   0.260  0.00  0.00    +0.000 C 
ATOM     13  C   UNL     1       0.964   0.184   0.118  0.00  0.00    +0.000 A 
ATOM     14  C   UNL     1       0.159  -0.018   1.244  0.00  0.00    +0.000 A 
ATOM     15  C   UNL     1      -1.225  -0.154   1.111  0.00  0.00    +0.000 A 
ATOM     16  C   UNL     1      -1.826  -0.105  -0.154  0.00  0.00    +0.000 A 
ATOM     17  C   UNL     1      -1.018   0.092  -1.281  0.00  0.00    +0.000 A 
ATOM     18  C   UNL     1       0.366   0.226  -1.146  0.00  0.00    +0.000 A 
ENDBRANCH  11  16
ENDBRANCH   1  11
TORSDOF 4
