MODEL 1
REMARK VINA RESULT:      -4.4      0.000      0.000
REMARK  Name = *****
REMARK  3 active torsions:
REMARK  status: ('A' for Active; 'I' for Inactive)
REMARK    1  A    between atoms: C_4  and  S_7
REMARK    2  A    between atoms: S_7  and  C_8
REMARK    3  A    between atoms: C_8  and  C_10
REMARK                            x       y       z     vdW  Elec       q    Type
REMARK                         _______ _______ _______ _____ _____    ______ ____
ROOT
ATOM      1  C   UNL     1     100.314 127.289  83.069  0.00  0.00    +0.000 C 
ATOM      2  O   UNL     1      99.379 126.899  82.379  0.00  0.00    +0.000 OA
ENDROOT
BRANCH   1   3
ATOM      3  C   UNL     1     100.359 128.702  83.557  0.00  0.00    +0.000 A 
ATOM      4  C   UNL     1     101.534 129.128  84.200  0.00  0.00    +0.000 A 
ATOM      5  C   UNL     1     101.652 130.434  84.680  0.00  0.00    +0.000 A 
ATOM      6  C   UNL     1     100.599 131.331  84.522  0.00  0.00    +0.000 A 
ATOM      7  C   UNL     1      99.428 130.924  83.887  0.00  0.00    +0.000 A 
ATOM      8  C   UNL     1      99.307 129.615  83.406  0.00  0.00    +0.000 A 
ENDBRANCH   1   3
BRANCH   1   9
ATOM      9  S   UNL     1     101.639 126.209  83.500  0.00  0.00    +0.000 S 
BRANCH   9  13
ATOM     10  C   UNL     1     104.770 126.004  80.091  0.00  0.00    +0.000 C 
ATOM     11  C   UNL     1     104.193 124.685  80.594  0.00  0.00    +0.000 C 
ATOM     12  C   UNL     1     103.482 124.856  81.937  0.00  0.00    +0.000 C 
ATOM     13  C   UNL     1     102.400 125.940  81.859  0.00  0.00    +0.000 C 
ATOM     14  C   UNL     1     102.998 127.268  81.372  0.00  0.00    +0.000 C 
ATOM     15  C   UNL     1     103.707 127.095  80.029  0.00  0.00    +0.000 C 
ENDBRANCH   9  13
ENDBRANCH   1   9
TORSDOF 3
ENDMDL
