MODEL 1
REMARK VINA RESULT:      -4.0      0.000      0.000
REMARK  Name = *****
REMARK  2 active torsions:
REMARK  status: ('A' for Active; 'I' for Inactive)
REMARK    1  A    between atoms: C_4  and  C_7
REMARK    2  A    between atoms: C_8  and  C_9
REMARK                            x       y       z     vdW  Elec       q    Type
REMARK                         _______ _______ _______ _____ _____    ______ ____
ROOT
ATOM      1  C   UNL     1     103.356 126.395  82.582  0.00  0.00    +0.000 C 
ATOM      2  C   UNL     1     102.793 127.579  82.878  0.00  0.00    +0.000 C 
ATOM      3 CL   UNL     1     103.686 129.019  83.190  0.00  0.00    +0.000 Cl
ENDROOT
BRANCH   1   7
ATOM      4  C   UNL     1     104.988 123.618  80.476  0.00  0.00    +0.000 C 
ATOM      5  C   UNL     1     104.450 123.379  81.878  0.00  0.00    +0.000 C 
ATOM      6  S   UNL     1     105.210 124.450  83.128  0.00  0.00    +0.000 S 
ATOM      7  C   UNL     1     104.820 126.095  82.472  0.00  0.00    +0.000 C 
ATOM      8  S   UNL     1     105.423 126.353  80.782  0.00  0.00    +0.000 S 
ATOM      9  C   UNL     1     104.625 124.981  79.907  0.00  0.00    +0.000 C 
ENDBRANCH   1   7
BRANCH   2  10
ATOM     10  C   UNL     1     101.333 127.706  82.947  0.00  0.00    +0.000 A 
ATOM     11  C   UNL     1     100.511 126.705  82.414  0.00  0.00    +0.000 A 
ATOM     12  C   UNL     1      99.122 126.835  82.463  0.00  0.00    +0.000 A 
ATOM     13  C   UNL     1      98.548 127.966  83.042  0.00  0.00    +0.000 A 
ATOM     14  C   UNL     1      99.359 128.968  83.573  0.00  0.00    +0.000 A 
ATOM     15  C   UNL     1     100.749 128.840  83.525  0.00  0.00    +0.000 A 
ENDBRANCH   2  10
TORSDOF 2
ENDMDL
