MODEL 1
REMARK VINA RESULT:      -4.3      0.000      0.000
REMARK  Name = *****
REMARK  4 active torsions:
REMARK  status: ('A' for Active; 'I' for Inactive)
REMARK    1  A    between atoms: C_1  and  P_2
REMARK    2  A    between atoms: P_2  and  C_3
REMARK    3  A    between atoms: P_2  and  C_10
REMARK    4  A    between atoms: C_3  and  C_4
REMARK                            x       y       z     vdW  Elec       q    Type
REMARK                         _______ _______ _______ _____ _____    ______ ____
ROOT
ATOM      1  C   UNL     1      90.055  70.755  85.290  0.00  0.00    +0.000 C 
ATOM      2  P   UNL     1      88.880  70.436  86.661  0.00  0.00    +0.000 P 
ENDROOT
BRANCH   2   3
ATOM      3  C   UNL     1      88.909  68.620  86.759  0.00  0.00    +0.000 A 
ATOM      4  C   UNL     1      90.019  67.941  86.237  0.00  0.00    +0.000 A 
ATOM      5  C   UNL     1      90.096  66.546  86.287  0.00  0.00    +0.000 A 
ATOM      6  C   UNL     1      89.062  65.811  86.861  0.00  0.00    +0.000 A 
ATOM      7  C   UNL     1      87.953  66.471  87.384  0.00  0.00    +0.000 A 
ATOM      8  C   UNL     1      87.876  67.865  87.333  0.00  0.00    +0.000 A 
ENDBRANCH   2   3
BRANCH   2   9
ATOM      9  C   UNL     1      87.271  70.734  85.837  0.00  0.00    +0.000 C 
BRANCH   9  10
ATOM     10  C   UNL     1      86.380  71.301  86.912  0.00  0.00    +0.000 A 
ATOM     11  C   UNL     1      85.150  71.894  86.581  0.00  0.00    +0.000 A 
ATOM     12  C   UNL     1      84.310  72.399  87.576  0.00  0.00    +0.000 A 
ATOM     13  C   UNL     1      84.684  72.312  88.916  0.00  0.00    +0.000 A 
ATOM     14  C   UNL     1      85.895  71.718  89.262  0.00  0.00    +0.000 A 
ATOM     15  C   UNL     1      86.736  71.211  88.269  0.00  0.00    +0.000 A 
ENDBRANCH   9  10
ENDBRANCH   2   9
TORSDOF 3
ENDMDL
