MODEL 1
REMARK VINA RESULT:      -4.2      0.000      0.000
REMARK  Name = *****
REMARK  4 active torsions:
REMARK  status: ('A' for Active; 'I' for Inactive)
REMARK    1  A    between atoms: C_4  and  C_7
REMARK    2  A    between atoms: C_4  and  C_15
REMARK    3  A    between atoms: C_7  and  C_8
REMARK    4  A    between atoms: C_8  and  C_9
REMARK                            x       y       z     vdW  Elec       q    Type
REMARK                         _______ _______ _______ _____ _____    ______ ____
ROOT
ATOM      1  C   UNL     1      98.884 130.505  85.364  0.00  0.00    +0.000 C 
ATOM      2  C   UNL     1      98.666 129.102  85.918  0.00  0.00    +0.000 C 
ATOM      3  C   UNL     1      98.170 128.150  84.832  0.00  0.00    +0.000 C 
ATOM      4  C   UNL     1      99.119 128.079  83.616  0.00  0.00    +0.000 C 
ATOM      5  C   UNL     1      99.360 129.514  83.082  0.00  0.00    +0.000 C 
ATOM      6  C   UNL     1      99.816 130.501  84.157  0.00  0.00    +0.000 C 
ENDROOT
BRANCH   4   7
ATOM      7  C   UNL     1      98.455 127.300  82.481  0.00  0.00    +0.000 C 
ATOM      8  O   UNL     1      97.634 126.403  82.642  0.00  0.00    +0.000 OA
ENDBRANCH   4   7
BRANCH   4   9
ATOM      9  C   UNL     1     100.474 127.387  83.924  0.00  0.00    +0.000 C 
BRANCH   9  10
ATOM     10  C   UNL     1     101.175 126.768  82.703  0.00  0.00    +0.000 C 
BRANCH  10  11
ATOM     11  C   UNL     1     102.440 127.503  82.322  0.00  0.00    +0.000 A 
ATOM     12  C   UNL     1     103.062 127.263  81.088  0.00  0.00    +0.000 A 
ATOM     13  C   UNL     1     104.212 127.966  80.726  0.00  0.00    +0.000 A 
ATOM     14  C   UNL     1     104.749 128.920  81.589  0.00  0.00    +0.000 A 
ATOM     15  C   UNL     1     104.138 129.168  82.816  0.00  0.00    +0.000 A 
ATOM     16  C   UNL     1     102.989 128.463  83.182  0.00  0.00    +0.000 A 
ENDBRANCH  10  11
ENDBRANCH   9  10
ENDBRANCH   4   9
TORSDOF 4
ENDMDL
