MODEL 1
REMARK VINA RESULT:      -4.4      0.000      0.000
REMARK  Name = *****
REMARK  4 active torsions:
REMARK  status: ('A' for Active; 'I' for Inactive)
REMARK    1  A    between atoms: C_1  and  C_2
REMARK    2  A    between atoms: C_2  and  C_3
REMARK    3  A    between atoms: C_2  and  S_9
REMARK    4  A    between atoms: S_9  and  C_11
REMARK                            x       y       z     vdW  Elec       q    Type
REMARK                         _______ _______ _______ _____ _____    ______ ____
ROOT
ATOM      1  C   UNL     1     103.813 128.707  82.928  0.00  0.00    +0.000 C 
ATOM      2  C   UNL     1     102.981 127.463  82.594  0.00  0.00    +0.000 C 
ENDROOT
BRANCH   2   3
ATOM      3  C   UNL     1     101.478 127.591  82.823  0.00  0.00    +0.000 C 
ATOM      4  C   UNL     1     100.566 126.699  82.380  0.00  0.00    +0.000 C 
ATOM      5  C   UNL     1      99.083 126.842  82.561  0.00  0.00    +0.000 C 
ATOM      6  C   UNL     1      98.658 128.245  82.986  0.00  0.00    +0.000 C 
ATOM      7  C   UNL     1      99.589 128.792  84.057  0.00  0.00    +0.000 C 
ATOM      8  C   UNL     1     101.035 128.842  83.558  0.00  0.00    +0.000 C 
ENDBRANCH   2   3
BRANCH   2   9
ATOM      9  S   UNL     1     103.447 126.857  80.908  0.00  0.00    +0.000 S 
ATOM     10  O   UNL     1     104.675 127.595  80.463  0.00  0.00    +0.000 OA
BRANCH   9  11
ATOM     11  C   UNL     1     103.975 125.175  81.290  0.00  0.00    +0.000 A 
ATOM     12  C   UNL     1     103.852 124.685  82.595  0.00  0.00    +0.000 A 
ATOM     13  C   UNL     1     104.252 123.381  82.899  0.00  0.00    +0.000 A 
ATOM     14  C   UNL     1     104.762 122.556  81.897  0.00  0.00    +0.000 A 
ATOM     15  C   UNL     1     104.867 123.029  80.591  0.00  0.00    +0.000 A 
ATOM     16  C   UNL     1     104.469 124.332  80.287  0.00  0.00    +0.000 A 
ENDBRANCH   9  11
ENDBRANCH   2   9
TORSDOF 3
ENDMDL
