MODEL 1
REMARK VINA RESULT:      -4.0      0.000      0.000
REMARK  Name = *****
REMARK  3 active torsions:
REMARK  status: ('A' for Active; 'I' for Inactive)
REMARK    1  A    between atoms: N_4  and  C_8
REMARK    2  A    between atoms: C_8  and  C_9
REMARK    3  A    between atoms: C_9  and  C_10
REMARK                            x       y       z     vdW  Elec       q    Type
REMARK                         _______ _______ _______ _____ _____    ______ ____
ROOT
ATOM      1  C   UNL     1      88.543  69.816  87.225  0.00  0.00    +0.000 C 
ENDROOT
BRANCH   1   5
ATOM      2  C   UNL     1      91.026  65.901  85.432  0.00  0.00    +0.000 C 
ATOM      3  C   UNL     1      90.084  66.589  86.089  0.00  0.00    +0.000 C 
ATOM      4  C   UNL     1      90.075  68.069  86.288  0.00  0.00    +0.000 C 
ATOM      5  N   UNL     1      88.801  68.407  86.914  0.00  0.00    +0.000 N 
ATOM      6  C   UNL     1      87.984  67.348  87.298  0.00  0.00    +0.000 C 
ATOM      7  S   UNL     1      86.532  67.423  88.114  0.00  0.00    +0.000 S 
ATOM      8  S   UNL     1      88.704  65.822  86.790  0.00  0.00    +0.000 S 
ENDBRANCH   1   5
BRANCH   1   9
ATOM      9  C   UNL     1      87.859  70.554  86.067  0.00  0.00    +0.000 C 
BRANCH   9  10
ATOM     10  C   UNL     1      86.594  71.238  86.518  0.00  0.00    +0.000 A 
ATOM     11  C   UNL     1      86.304  71.356  87.885  0.00  0.00    +0.000 A 
ATOM     12  C   UNL     1      85.123  71.968  88.306  0.00  0.00    +0.000 A 
ATOM     13  C   UNL     1      84.221  72.466  87.368  0.00  0.00    +0.000 A 
ATOM     14  C   UNL     1      84.498  72.349  86.006  0.00  0.00    +0.000 A 
ATOM     15  C   UNL     1      85.679  71.737  85.583  0.00  0.00    +0.000 A 
ENDBRANCH   9  10
ENDBRANCH   1   9
TORSDOF 3
ENDMDL
