MODEL 1
REMARK VINA RESULT:      -4.5      0.000      0.000
REMARK  Name = *****
REMARK  2 active torsions:
REMARK  status: ('A' for Active; 'I' for Inactive)
REMARK    1  A    between atoms: C_2  and  C_11
REMARK    2  A    between atoms: N_3  and  C_4
REMARK                            x       y       z     vdW  Elec       q    Type
REMARK                         _______ _______ _______ _____ _____    ______ ____
ROOT
ATOM      1  C   UNL     1     103.410 127.395  81.279  0.00  0.00    +0.000 C 
ATOM      2  C   UNL     1     102.659 126.884  82.500  0.00  0.00    +0.000 C 
ATOM      3  N   UNL     1     102.848 126.055  81.306  0.00  0.00    +0.000 N 
ENDROOT
BRANCH   3   4
ATOM      4  C   UNL     1     103.714 124.938  81.366  0.00  0.00    +0.000 A 
ATOM      5  C   UNL     1     103.823 124.178  82.540  0.00  0.00    +0.000 A 
ATOM      6  C   UNL     1     104.649 123.050  82.588  0.00  0.00    +0.000 A 
ATOM      7  C   UNL     1     105.356 122.664  81.453  0.00  0.00    +0.000 A 
ATOM      8  C   UNL     1     105.238 123.388  80.270  0.00  0.00    +0.000 A 
ATOM      9  C   UNL     1     104.412 124.515  80.226  0.00  0.00    +0.000 A 
ATOM     10 CL   UNL     1     106.372 121.277  81.509  0.00  0.00    +0.000 Cl
ENDBRANCH   3   4
BRANCH   2  11
ATOM     11  C   UNL     1     101.276 127.404  82.793  0.00  0.00    +0.000 A 
ATOM     12  C   UNL     1     100.122 126.724  82.367  0.00  0.00    +0.000 A 
ATOM     13  C   UNL     1      98.842 127.206  82.658  0.00  0.00    +0.000 A 
ATOM     14  C   UNL     1      98.690 128.380  83.388  0.00  0.00    +0.000 A 
ATOM     15  C   UNL     1      99.816 129.072  83.827  0.00  0.00    +0.000 A 
ATOM     16  C   UNL     1     101.092 128.586  83.532  0.00  0.00    +0.000 A 
ENDBRANCH   2  11
TORSDOF 2
ENDMDL
