MODEL 1
REMARK VINA RESULT:      -4.7      0.000      0.000
REMARK  Name = *****
REMARK  4 active torsions:
REMARK  status: ('A' for Active; 'I' for Inactive)
REMARK    1  A    between atoms: C_1  and  C_2
REMARK    2  A    between atoms: C_5  and  C_8
REMARK    3  A    between atoms: C_8  and  C_10
REMARK    4  A    between atoms: C_11  and  C_12
REMARK                            x       y       z     vdW  Elec       q    Type
REMARK                         _______ _______ _______ _____ _____    ______ ____
ROOT
ATOM      1  C   UNL     1     101.223 126.412  83.003  0.00  0.00    +0.000 C 
ATOM      2  O   UNL     1     101.424 125.716  83.991  0.00  0.00    +0.000 OA
ENDROOT
BRANCH   1   7
ATOM      3  C   UNL     1     105.563 129.428  80.603  0.00  0.00    +0.000 C 
ATOM      4  C   UNL     1     104.455 128.632  81.228  0.00  0.00    +0.000 A 
ATOM      5  C   UNL     1     103.949 128.973  82.488  0.00  0.00    +0.000 A 
ATOM      6  C   UNL     1     102.903 128.238  83.051  0.00  0.00    +0.000 A 
ATOM      7  C   UNL     1     102.349 127.152  82.364  0.00  0.00    +0.000 A 
ATOM      8  C   UNL     1     102.837 126.822  81.094  0.00  0.00    +0.000 A 
ATOM      9  C   UNL     1     103.885 127.559  80.532  0.00  0.00    +0.000 A 
ENDBRANCH   1   7
BRANCH   1  10
ATOM     10  C   UNL     1      99.889 126.495  82.347  0.00  0.00    +0.000 C 
ATOM     11  C   UNL     1      98.919 127.380  82.634  0.00  0.00    +0.000 C 
BRANCH  11  12
ATOM     12  C   UNL     1      98.951 128.508  83.574  0.00  0.00    +0.000 A 
ATOM     13  C   UNL     1      99.429 129.773  83.211  0.00  0.00    +0.000 A 
ATOM     14  C   UNL     1      99.385 130.836  84.116  0.00  0.00    +0.000 A 
ATOM     15  C   UNL     1      98.845 130.651  85.387  0.00  0.00    +0.000 A 
ATOM     16  C   UNL     1      98.347 129.403  85.754  0.00  0.00    +0.000 A 
ATOM     17  C   UNL     1      98.395 128.338  84.850  0.00  0.00    +0.000 A 
ENDBRANCH  11  12
ENDBRANCH   1  10
TORSDOF 3
ENDMDL
