MODEL 1
REMARK VINA RESULT:      -5.0      0.000      0.000
REMARK  Name = *****
REMARK  2 active torsions:
REMARK  status: ('A' for Active; 'I' for Inactive)
REMARK    1  A    between atoms: C_5  and  C_7
REMARK    2  A    between atoms: C_8  and  C_9
REMARK                            x       y       z     vdW  Elec       q    Type
REMARK                         _______ _______ _______ _____ _____    ______ ____
ROOT
ATOM      1  C   UNL     1     101.864 126.092  82.627  0.00  0.00    +0.000 C 
ATOM      2  C   UNL     1     102.695 126.045  81.575  0.00  0.00    +0.000 C 
ENDROOT
BRANCH   1   7
ATOM      3  C   UNL     1     100.466 129.368  83.853  0.00  0.00    +0.000 A 
ATOM      4  C   UNL     1      99.131 129.294  83.459  0.00  0.00    +0.000 A 
ATOM      5  C   UNL     1      98.673 128.165  82.783  0.00  0.00    +0.000 A 
ATOM      6  C   UNL     1      99.551 127.120  82.500  0.00  0.00    +0.000 A 
ATOM      7  C   UNL     1     100.900 127.179  82.872  0.00  0.00    +0.000 A 
ATOM      8  C   UNL     1     101.344 128.315  83.566  0.00  0.00    +0.000 A 
ATOM      9  F   UNL     1      99.059 126.043  81.868  0.00  0.00    +0.000 F 
ENDBRANCH   1   7
BRANCH   2  10
ATOM     10  C   UNL     1     103.669 124.967  81.348  0.00  0.00    +0.000 A 
ATOM     11  C   UNL     1     104.349 124.817  80.132  0.00  0.00    +0.000 A 
ATOM     12  C   UNL     1     105.290 123.796  79.964  0.00  0.00    +0.000 A 
ATOM     13  C   UNL     1     105.562 122.926  81.017  0.00  0.00    +0.000 A 
ATOM     14  C   UNL     1     104.907 123.071  82.237  0.00  0.00    +0.000 A 
ATOM     15  C   UNL     1     103.967 124.094  82.403  0.00  0.00    +0.000 A 
ATOM     16 CL   UNL     1     106.720 121.670  80.812  0.00  0.00    +0.000 Cl
ENDBRANCH   2  10
TORSDOF 2
ENDMDL
