MODEL 1
REMARK VINA RESULT:      -4.5      0.000      0.000
REMARK  Name = *****
REMARK  3 active torsions:
REMARK  status: ('A' for Active; 'I' for Inactive)
REMARK    1  A    between atoms: C_6  and  C_7
REMARK    2  A    between atoms: C_7  and  S_8
REMARK    3  A    between atoms: S_8  and  C_10
REMARK                            x       y       z     vdW  Elec       q    Type
REMARK                         _______ _______ _______ _____ _____    ______ ____
ROOT
ATOM      1  S   UNL     1     103.242 127.547  82.980  0.00  0.00    +0.000 S 
ATOM      2  O   UNL     1     103.716 128.965  82.820  0.00  0.00    +0.000 OA
ENDROOT
BRANCH   1   3
ATOM      3  C   UNL     1     101.434 127.640  82.960  0.00  0.00    +0.000 A 
ATOM      4  C   UNL     1     100.694 126.592  82.396  0.00  0.00    +0.000 A 
ATOM      5  C   UNL     1      99.299 126.652  82.378  0.00  0.00    +0.000 A 
ATOM      6  C   UNL     1      98.651 127.751  82.928  0.00  0.00    +0.000 A 
ATOM      7  C   UNL     1      99.371 128.793  83.502  0.00  0.00    +0.000 A 
ATOM      8  C   UNL     1     100.765 128.736  83.520  0.00  0.00    +0.000 A 
ATOM      9  F   UNL     1      97.313 127.806  82.910  0.00  0.00    +0.000 F 
ENDBRANCH   1   3
BRANCH   1  10
ATOM     10  C   UNL     1     103.436 126.713  81.366  0.00  0.00    +0.000 C 
BRANCH  10  16
ATOM     11  C   UNL     1     103.894 124.674  82.784  0.00  0.00    +0.000 A 
ATOM     12  C   UNL     1     104.317 123.352  82.936  0.00  0.00    +0.000 A 
ATOM     13  C   UNL     1     104.748 122.633  81.824  0.00  0.00    +0.000 A 
ATOM     14  C   UNL     1     104.756 123.225  80.561  0.00  0.00    +0.000 A 
ATOM     15  C   UNL     1     104.332 124.547  80.411  0.00  0.00    +0.000 A 
ATOM     16  C   UNL     1     103.902 125.288  81.522  0.00  0.00    +0.000 A 
ATOM     17  I   UNL     1     105.377 120.664  82.046  0.00  0.00    +0.000 I 
ENDBRANCH  10  16
ENDBRANCH   1  10
TORSDOF 3
ENDMDL
