MODEL 1
REMARK VINA RESULT:      -5.1      0.000      0.000
REMARK  Name = *****
REMARK  5 active torsions:
REMARK  status: ('A' for Active; 'I' for Inactive)
REMARK    1  A    between atoms: C_1  and  C_2
REMARK    2  A    between atoms: C_7  and  C_8
REMARK    3  A    between atoms: C_9  and  C_10
REMARK    4  A    between atoms: C_12  and  C_16
REMARK    5  A    between atoms: C_16  and  C_18
REMARK                            x       y       z     vdW  Elec       q    Type
REMARK                         _______ _______ _______ _____ _____    ______ ____
ROOT
ATOM      1  C   UNL     1     102.302 126.072  82.334  0.00  0.00    +0.000 C 
ATOM      2  C   UNL     1     102.869 126.034  81.117  0.00  0.00    +0.000 C 
ENDROOT
BRANCH   1   9
ATOM      3  C   UNL     1     102.878 128.652  83.675  0.00  0.00    +0.000 C 
ATOM      4  C   UNL     1     101.479 128.231  83.315  0.00  0.00    +0.000 A 
ATOM      5  C   UNL     1     100.406 129.079  83.633  0.00  0.00    +0.000 A 
ATOM      6  C   UNL     1      99.095 128.725  83.313  0.00  0.00    +0.000 A 
ATOM      7  C   UNL     1      98.837 127.517  82.674  0.00  0.00    +0.000 A 
ATOM      8  C   UNL     1      99.892 126.662  82.354  0.00  0.00    +0.000 A 
ATOM      9  C   UNL     1     101.217 127.009  82.664  0.00  0.00    +0.000 A 
ENDBRANCH   1   9
BRANCH   2  10
ATOM     10  C   UNL     1     103.953 125.115  80.738  0.00  0.00    +0.000 A 
ATOM     11  C   UNL     1     104.082 123.904  81.431  0.00  0.00    +0.000 A 
ATOM     12  C   UNL     1     105.083 122.980  81.090  0.00  0.00    +0.000 A 
ATOM     13  C   UNL     1     105.954 123.268  80.034  0.00  0.00    +0.000 A 
ATOM     14  C   UNL     1     105.821 124.464  79.328  0.00  0.00    +0.000 A 
ATOM     15  C   UNL     1     104.824 125.379  79.674  0.00  0.00    +0.000 A 
BRANCH  12  16
ATOM     16  C   UNL     1     105.173 121.711  81.873  0.00  0.00    +0.000 C 
ATOM     17  O   UNL     1     105.807 120.757  81.426  0.00  0.00    +0.000 OA
ATOM     18  C   UNL     1     104.480 121.627  83.208  0.00  0.00    +0.000 C 
ENDBRANCH  12  16
ENDBRANCH   2  10
TORSDOF 3
ENDMDL
