MODEL 1
REMARK VINA RESULT:      -4.1      0.000      0.000
REMARK  Name = *****
REMARK  5 active torsions:
REMARK  status: ('A' for Active; 'I' for Inactive)
REMARK    1  A    between atoms: C_1  and  C_2
REMARK    2  A    between atoms: C_7  and  O_8
REMARK    3  A    between atoms: O_8  and  C_9
REMARK    4  A    between atoms: C_9  and  C_10
REMARK    5  A    between atoms: C_15  and  C_16
REMARK                            x       y       z     vdW  Elec       q    Type
REMARK                         _______ _______ _______ _____ _____    ______ ____
ROOT
ATOM      1  C   UNL     1      88.156  70.666  85.630  0.00  0.00    +0.000 C 
ENDROOT
BRANCH   1   2
ATOM      2  C   UNL     1      87.030  71.143  86.523  0.00  0.00    +0.000 A 
ATOM      3  C   UNL     1      85.909  71.735  85.907  0.00  0.00    +0.000 A 
ATOM      4  C   UNL     1      84.833  72.203  86.660  0.00  0.00    +0.000 A 
ATOM      5  C   UNL     1      84.859  72.096  88.044  0.00  0.00    +0.000 A 
ATOM      6  C   UNL     1      85.966  71.528  88.674  0.00  0.00    +0.000 A 
ATOM      7  C   UNL     1      87.067  71.050  87.932  0.00  0.00    +0.000 A 
BRANCH   7   8
ATOM      8  C   UNL     1      88.235  70.482  88.697  0.00  0.00    +0.000 C 
ATOM      9 CL   UNL     1      88.582  71.453  90.145  0.00  0.00    +0.000 Cl
ENDBRANCH   7   8
ENDBRANCH   1   2
BRANCH   1  10
ATOM     10  O   UNL     1      87.743  69.464  84.974  0.00  0.00    +0.000 OA
BRANCH  10  17
ATOM     11  C   UNL     1      85.978  67.649  86.467  0.00  0.00    +0.000 C 
ATOM     12  C   UNL     1      87.460  67.463  86.318  0.00  0.00    +0.000 A 
ATOM     13  C   UNL     1      88.076  66.365  86.936  0.00  0.00    +0.000 A 
ATOM     14  C   UNL     1      89.448  66.142  86.793  0.00  0.00    +0.000 A 
ATOM     15  C   UNL     1      90.220  67.011  86.028  0.00  0.00    +0.000 A 
ATOM     16  C   UNL     1      89.625  68.117  85.425  0.00  0.00    +0.000 A 
ATOM     17  C   UNL     1      88.260  68.361  85.599  0.00  0.00    +0.000 A 
ENDBRANCH  10  17
ENDBRANCH   1  10
TORSDOF 4
ENDMDL
