MODEL 1
REMARK VINA RESULT:      -4.5      0.000      0.000
REMARK  Name = *****
REMARK  3 active torsions:
REMARK  status: ('A' for Active; 'I' for Inactive)
REMARK    1  A    between atoms: C_4  and  O_7
REMARK    2  A    between atoms: O_7  and  C_8
REMARK    3  A    between atoms: C_8  and  C_9
REMARK                            x       y       z     vdW  Elec       q    Type
REMARK                         _______ _______ _______ _____ _____    ______ ____
ROOT
ATOM      1  C   UNL     1     102.735 125.758  82.650  0.00  0.00    +0.000 C 
ENDROOT
BRANCH   1   2
ATOM      2  C   UNL     1     103.675 125.077  81.675  0.00  0.00    +0.000 A 
ATOM      3  C   UNL     1     104.171 123.784  81.917  0.00  0.00    +0.000 A 
ATOM      4  C   UNL     1     105.042 123.165  81.016  0.00  0.00    +0.000 A 
ATOM      5  C   UNL     1     105.436 123.828  79.858  0.00  0.00    +0.000 A 
ATOM      6  C   UNL     1     104.959 125.113  79.600  0.00  0.00    +0.000 A 
ATOM      7  C   UNL     1     104.087 125.733  80.502  0.00  0.00    +0.000 A 
ATOM      8 CL   UNL     1     103.545 127.330  80.119  0.00  0.00    +0.000 Cl
ENDBRANCH   1   2
BRANCH   1   9
ATOM      9  O   UNL     1     101.397 125.808  82.148  0.00  0.00    +0.000 OA
BRANCH   9  13
ATOM     10  C   UNL     1      99.266 129.127  83.487  0.00  0.00    +0.000 A 
ATOM     11  C   UNL     1      98.560 128.093  82.875  0.00  0.00    +0.000 A 
ATOM     12  C   UNL     1      99.233 126.958  82.410  0.00  0.00    +0.000 A 
ATOM     13  C   UNL     1     100.617 126.855  82.556  0.00  0.00    +0.000 A 
ATOM     14  C   UNL     1     101.318 127.898  83.170  0.00  0.00    +0.000 A 
ATOM     15  C   UNL     1     100.648 129.030  83.634  0.00  0.00    +0.000 A 
ENDBRANCH   9  13
ENDBRANCH   1   9
TORSDOF 3
ENDMDL
