MODEL 1
REMARK VINA RESULT:      -5.2      0.000      0.000
REMARK  Name = *****
REMARK  2 active torsions:
REMARK  status: ('A' for Active; 'I' for Inactive)
REMARK    1  A    between atoms: C_1  and  C_2
REMARK    2  A    between atoms: C_5  and  C_8
REMARK                            x       y       z     vdW  Elec       q    Type
REMARK                         _______ _______ _______ _____ _____    ______ ____
ROOT
ATOM      1  C   UNL     1     102.973 125.927  82.631  0.00  0.00    +0.000 A 
ATOM      2  C   UNL     1     101.649 125.939  82.439  0.00  0.00    +0.000 A 
ATOM      3  C   UNL     1     100.786 127.075  82.764  0.00  0.00    +0.000 A 
ATOM      4  C   UNL     1      99.414 126.970  82.480  0.00  0.00    +0.000 A 
ATOM      5  C   UNL     1      98.537 128.017  82.772  0.00  0.00    +0.000 A 
ATOM      6  C   UNL     1      99.019 129.185  83.352  0.00  0.00    +0.000 A 
ATOM      7  C   UNL     1     100.379 129.302  83.641  0.00  0.00    +0.000 A 
ATOM      8  C   UNL     1     101.270 128.253  83.348  0.00  0.00    +0.000 A 
ATOM      9  C   UNL     1     102.701 128.451  83.684  0.00  0.00    +0.000 A 
ATOM     10  O   UNL     1     103.064 129.484  84.239  0.00  0.00    +0.000 OA
ATOM     11  S   UNL     1     103.887 127.227  83.283  0.00  0.00    +0.000 S 
ENDROOT
BRANCH   1  16
ATOM     12  C   UNL     1     105.940 121.175  81.186  0.00  0.00    +0.000 C 
ATOM     13  C   UNL     1     105.172 122.412  81.551  0.00  0.00    +0.000 A 
ATOM     14  C   UNL     1     104.790 123.336  80.573  0.00  0.00    +0.000 A 
ATOM     15  C   UNL     1     104.079 124.486  80.926  0.00  0.00    +0.000 A 
ATOM     16  C   UNL     1     103.744 124.731  82.264  0.00  0.00    +0.000 A 
ATOM     17  C   UNL     1     104.124 123.804  83.242  0.00  0.00    +0.000 A 
ATOM     18  C   UNL     1     104.835 122.654  82.887  0.00  0.00    +0.000 A 
ENDBRANCH   1  16
TORSDOF 1
ENDMDL
