MODEL 1
REMARK VINA RESULT:      -4.3      0.000      0.000
REMARK  Name = *****
REMARK  6 active torsions:
REMARK  status: ('A' for Active; 'I' for Inactive)
REMARK    1  A    between atoms: C_1  and  C_2
REMARK    2  A    between atoms: C_5  and  O_8
REMARK    3  A    between atoms: O_8  and  S_9
REMARK    4  A    between atoms: S_9  and  O_10
REMARK    5  A    between atoms: O_10  and  C_11
REMARK    6  A    between atoms: C_14  and  C_17
REMARK                            x       y       z     vdW  Elec       q    Type
REMARK                         _______ _______ _______ _____ _____    ______ ____
ROOT
ATOM      1  S   UNL     1      87.109  64.052  86.735  0.00  0.00    +0.000 S 
ENDROOT
BRANCH   1   2
ATOM      2  O   UNL     1      88.661  64.607  86.481  0.00  0.00    +0.000 OA
BRANCH   2   7
ATOM      3  C   UNL     1      89.194  70.221  87.082  0.00  0.00    +0.000 C 
ATOM      4  C   UNL     1      89.085  68.731  86.944  0.00  0.00    +0.000 A 
ATOM      5  C   UNL     1      90.066  68.008  86.251  0.00  0.00    +0.000 A 
ATOM      6  C   UNL     1      89.948  66.626  86.093  0.00  0.00    +0.000 A 
ATOM      7  C   UNL     1      88.848  65.957  86.634  0.00  0.00    +0.000 A 
ATOM      8  C   UNL     1      87.845  66.672  87.288  0.00  0.00    +0.000 A 
ATOM      9  C   UNL     1      87.965  68.054  87.447  0.00  0.00    +0.000 A 
ENDBRANCH   2   7
ENDBRANCH   1   2
BRANCH   1  10
ATOM     10  O   UNL     1      87.459  62.845  87.832  0.00  0.00    +0.000 OA
BRANCH  10  11
ATOM     11  C   UNL     1      87.653  63.261  89.124  0.00  0.00    +0.000 A 
ATOM     12  C   UNL     1      88.918  63.514  89.654  0.00  0.00    +0.000 A 
ATOM     13  C   UNL     1      89.044  63.983  90.964  0.00  0.00    +0.000 A 
ATOM     14  C   UNL     1      87.908  64.206  91.752  0.00  0.00    +0.000 A 
ATOM     15  C   UNL     1      86.640  63.985  91.198  0.00  0.00    +0.000 A 
ATOM     16  C   UNL     1      86.514  63.517  89.888  0.00  0.00    +0.000 A 
ATOM     17  C   UNL     1      88.045  64.744  93.145  0.00  0.00    +0.000 C 
ENDBRANCH  10  11
ENDBRANCH   1  10
TORSDOF 4
ENDMDL
