REMARK  Name = *****
REMARK  4 active torsions:
REMARK  status: ('A' for Active; 'I' for Inactive)
REMARK    1  A    between atoms: C_1  and  C_2
REMARK    2  A    between atoms: C_2  and  N_3
REMARK    3  A    between atoms: C_10  and  C_18
REMARK    4  A    between atoms: N_11  and  C_12
REMARK                            x       y       z     vdW  Elec       q    Type
REMARK                         _______ _______ _______ _____ _____    ______ ____
ROOT
ATOM      1  N   UNL     1       2.664  -1.677  -0.786  0.00  0.00    +0.000 N 
ATOM      2  C   UNL     1       3.264  -1.862  -2.040  0.00  0.00    +0.000 A 
ATOM      3  C   UNL     1       3.327  -1.006  -3.124  0.00  0.00    +0.000 A 
ATOM      4  C   UNL     1       3.973  -1.440  -4.287  0.00  0.00    +0.000 A 
ATOM      5  C   UNL     1       4.547  -2.719  -4.354  0.00  0.00    +0.000 A 
ATOM      6  C   UNL     1       4.486  -3.580  -3.258  0.00  0.00    +0.000 A 
ATOM      7  C   UNL     1       3.846  -3.134  -2.110  0.00  0.00    +0.000 A 
ATOM      8  C   UNL     1       3.667  -3.830  -0.779  0.00  0.00    +0.000 C 
ATOM      9  N   UNL     1       2.911  -2.803   0.031  0.00  0.00    +0.000 N 
ATOM     10  C   UNL     1       5.013  -4.131  -0.129  0.00  0.00    +0.000 C 
ENDROOT
BRANCH   9  11
ATOM     11  C   UNL     1       1.835  -3.398   0.750  0.00  0.00    +0.000 A 
ATOM     12  C   UNL     1       2.095  -4.172   1.890  0.00  0.00    +0.000 A 
ATOM     13  C   UNL     1       1.054  -4.763   2.611  0.00  0.00    +0.000 A 
ATOM     14  C   UNL     1      -0.266  -4.584   2.203  0.00  0.00    +0.000 A 
ATOM     15  C   UNL     1      -0.544  -3.811   1.079  0.00  0.00    +0.000 A 
ATOM     16  C   UNL     1       0.500  -3.220   0.361  0.00  0.00    +0.000 A 
ENDBRANCH   9  11
BRANCH   1  18
ATOM     17  C   UNL     1       1.467   0.424  -0.375  0.00  0.00    +0.000 C 
ATOM     18  C   UNL     1       2.758  -0.351  -0.167  0.00  0.00    +0.000 C 
ENDBRANCH   1  18
TORSDOF 2
