MODEL 1
REMARK VINA RESULT:      -4.6      0.000      0.000
REMARK  Name = *****
REMARK  3 active torsions:
REMARK  status: ('A' for Active; 'I' for Inactive)
REMARK    1  A    between atoms: C_4  and  C_7
REMARK    2  A    between atoms: C_8  and  C_9
REMARK    3  A    between atoms: C_9  and  C_11
REMARK                            x       y       z     vdW  Elec       q    Type
REMARK                         _______ _______ _______ _____ _____    ______ ____
ROOT
ATOM      1  C   UNL     1      99.134 127.528  82.780  0.00  0.00    +0.000 C 
ATOM      2  C   UNL     1     100.140 126.686  82.507  0.00  0.00    +0.000 C 
ATOM      3  F   UNL     1      98.029 127.412  82.004  0.00  0.00    +0.000 F 
ENDROOT
BRANCH   1   7
ATOM      4  C   UNL     1      98.970 130.828  85.491  0.00  0.00    +0.000 A 
ATOM      5  C   UNL     1      99.428 131.003  84.187  0.00  0.00    +0.000 A 
ATOM      6  C   UNL     1      99.486 129.913  83.315  0.00  0.00    +0.000 A 
ATOM      7  C   UNL     1      99.098 128.636  83.742  0.00  0.00    +0.000 A 
ATOM      8  C   UNL     1      98.620 128.477  85.047  0.00  0.00    +0.000 A 
ATOM      9  C   UNL     1      98.563 129.566  85.921  0.00  0.00    +0.000 A 
ENDBRANCH   1   7
BRANCH   2  10
ATOM     10  C   UNL     1     101.476 126.659  83.153  0.00  0.00    +0.000 C 
ATOM     11  O   UNL     1     101.721 125.975  84.138  0.00  0.00    +0.000 OA
BRANCH  10  12
ATOM     12  C   UNL     1     102.569 127.431  82.496  0.00  0.00    +0.000 A 
ATOM     13  C   UNL     1     103.247 128.473  83.144  0.00  0.00    +0.000 A 
ATOM     14  C   UNL     1     104.269 129.162  82.484  0.00  0.00    +0.000 A 
ATOM     15  C   UNL     1     104.624 128.807  81.182  0.00  0.00    +0.000 A 
ATOM     16  C   UNL     1     103.966 127.761  80.539  0.00  0.00    +0.000 A 
ATOM     17  C   UNL     1     102.945 127.072  81.194  0.00  0.00    +0.000 A 
ENDBRANCH  10  12
ENDBRANCH   2  10
TORSDOF 3
ENDMDL
