REMARK  Name = *****
REMARK  5 active torsions:
REMARK  status: ('A' for Active; 'I' for Inactive)
REMARK    1  A    between atoms: C_1  and  O_2
REMARK    2  A    between atoms: O_2  and  N_3
REMARK    3  A    between atoms: C_4  and  C_5
REMARK    4  A    between atoms: C_4  and  C_12
REMARK    5  A    between atoms: C_5  and  C_6
REMARK                            x       y       z     vdW  Elec       q    Type
REMARK                         _______ _______ _______ _____ _____    ______ ____
ROOT
ATOM      1  N   UNL     1       3.037   0.114   1.686  0.00  0.00    +0.000 NA
ATOM      2  C   UNL     1       4.276  -0.121   1.346  0.00  0.00    +0.000 C 
ENDROOT
BRANCH   2   3
ATOM      3  C   UNL     1       5.198  -0.685   2.392  0.00  0.00    +0.000 A 
ATOM      4  C   UNL     1       4.640  -1.279   3.534  0.00  0.00    +0.000 A 
ATOM      5  C   UNL     1       5.459  -1.819   4.528  0.00  0.00    +0.000 A 
ATOM      6  C   UNL     1       6.844  -1.768   4.393  0.00  0.00    +0.000 A 
ATOM      7  C   UNL     1       7.410  -1.175   3.266  0.00  0.00    +0.000 A 
ATOM      8  C   UNL     1       6.592  -0.634   2.269  0.00  0.00    +0.000 A 
ENDBRANCH   2   3
BRANCH   1  10
ATOM      9  C   UNL     1       0.967   0.886   1.088  0.00  0.00    +0.000 C 
ATOM     10  O   UNL     1       2.286   0.630   0.624  0.00  0.00    +0.000 OA
ENDBRANCH   1  10
BRANCH   2  11
ATOM     11  C   UNL     1       4.829   0.131  -0.058  0.00  0.00    +0.000 C 
BRANCH  11  12
ATOM     12  C   UNL     1       5.534   1.460  -0.236  0.00  0.00    +0.000 A 
ATOM     13  C   UNL     1       5.079   2.631   0.386  0.00  0.00    +0.000 A 
ATOM     14  C   UNL     1       5.736   3.846   0.182  0.00  0.00    +0.000 A 
ATOM     15  C   UNL     1       6.846   3.910  -0.658  0.00  0.00    +0.000 A 
ATOM     16  C   UNL     1       7.296   2.759  -1.300  0.00  0.00    +0.000 A 
ATOM     17  C   UNL     1       6.640   1.543  -1.096  0.00  0.00    +0.000 A 
ENDBRANCH  11  12
ENDBRANCH   2  11
TORSDOF 4
