MODEL 1
REMARK VINA RESULT:      -4.3      0.000      0.000
REMARK  Name = *****
REMARK  4 active torsions:
REMARK  status: ('A' for Active; 'I' for Inactive)
REMARK    1  A    between atoms: C_1  and  S_2
REMARK    2  A    between atoms: S_2  and  C_3
REMARK    3  A    between atoms: S_2  and  C_11
REMARK    4  A    between atoms: C_3  and  C_4
REMARK                            x       y       z     vdW  Elec       q    Type
REMARK                         _______ _______ _______ _____ _____    ______ ____
ROOT
ATOM      1  C   UNL     1      87.200  70.233  89.873  0.00  0.00    +0.000 C 
ATOM      2  S   UNL     1      87.799  70.085  88.177  0.00  0.00    +0.000 S 
ENDROOT
BRANCH   2   3
ATOM      3  C   UNL     1      86.536  71.016  87.295  0.00  0.00    +0.000 A 
ATOM      4  C   UNL     1      85.497  71.555  88.061  0.00  0.00    +0.000 A 
ATOM      5  C   UNL     1      84.480  72.300  87.460  0.00  0.00    +0.000 A 
ATOM      6  C   UNL     1      84.494  72.513  86.084  0.00  0.00    +0.000 A 
ATOM      7  C   UNL     1      85.525  71.983  85.312  0.00  0.00    +0.000 A 
ATOM      8  C   UNL     1      86.544  71.237  85.915  0.00  0.00    +0.000 A 
ENDBRANCH   2   3
BRANCH   2   9
ATOM      9  C   UNL     1      87.199  68.392  87.892  0.00  0.00    +0.000 C 
BRANCH   9  10
ATOM     10  C   UNL     1      88.234  67.542  87.199  0.00  0.00    +0.000 A 
ATOM     11  C   UNL     1      88.170  66.142  87.277  0.00  0.00    +0.000 A 
ATOM     12  C   UNL     1      89.134  65.351  86.648  0.00  0.00    +0.000 A 
ATOM     13  C   UNL     1      90.171  65.956  85.943  0.00  0.00    +0.000 A 
ATOM     14  C   UNL     1      90.255  67.345  85.863  0.00  0.00    +0.000 A 
ATOM     15  C   UNL     1      89.289  68.135  86.491  0.00  0.00    +0.000 A 
ATOM     16 BR   UNL     1      91.479  64.888  85.093  0.00  0.00    +0.000 Br
ENDBRANCH   9  10
ENDBRANCH   2   9
TORSDOF 3
ENDMDL
