MODEL 1
REMARK VINA RESULT:      -4.9      0.000      0.000
REMARK  Name = *****
REMARK  5 active torsions:
REMARK  status: ('A' for Active; 'I' for Inactive)
REMARK    1  A    between atoms: C_1  and  N_2
REMARK    2  A    between atoms: N_2  and  C_3
REMARK    3  A    between atoms: N_2  and  C_4
REMARK    4  A    between atoms: C_8  and  C_10
REMARK    5  A    between atoms: C_11  and  C_12
REMARK                            x       y       z     vdW  Elec       q    Type
REMARK                         _______ _______ _______ _____ _____    ______ ____
ROOT
ATOM      1  C   UNL     1     104.952 123.013  81.198  0.00  0.00    +0.000 A 
ATOM      2  C   UNL     1     105.807 123.304  80.122  0.00  0.00    +0.000 A 
ATOM      3  C   UNL     1     105.721 124.501  79.402  0.00  0.00    +0.000 A 
ATOM      4  C   UNL     1     104.773 125.458  79.746  0.00  0.00    +0.000 A 
ATOM      5  C   UNL     1     103.901 125.219  80.808  0.00  0.00    +0.000 A 
ATOM      6  C   UNL     1     104.016 124.013  81.527  0.00  0.00    +0.000 A 
ENDROOT
BRANCH   1   8
ATOM      7  C   UNL     1     104.576 121.794  83.314  0.00  0.00    +0.000 C 
ATOM      8  N   UNL     1     105.054 121.824  81.933  0.00  0.00    +0.000 N 
ATOM      9  C   UNL     1     106.143 120.899  81.622  0.00  0.00    +0.000 C 
ENDBRANCH   1   8
BRANCH   5  10
ATOM     10  C   UNL     1     102.911 126.216  81.246  0.00  0.00    +0.000 C 
ATOM     11  C   UNL     1     101.989 125.990  82.197  0.00  0.00    +0.000 C 
BRANCH  11  12
ATOM     12  C   UNL     1     101.011 126.990  82.644  0.00  0.00    +0.000 A 
ATOM     13  C   UNL     1     101.390 128.169  83.301  0.00  0.00    +0.000 A 
ATOM     14  C   UNL     1     100.431 129.112  83.682  0.00  0.00    +0.000 A 
ATOM     15  C   UNL     1      99.084 128.891  83.399  0.00  0.00    +0.000 A 
ATOM     16  C   UNL     1      98.696 127.732  82.733  0.00  0.00    +0.000 A 
ATOM     17  C   UNL     1      99.655 126.790  82.352  0.00  0.00    +0.000 A 
ENDBRANCH  11  12
ENDBRANCH   5  10
TORSDOF 3
ENDMDL
