REMARK  Name = *****
REMARK  3 active torsions:
REMARK  status: ('A' for Active; 'I' for Inactive)
REMARK    1  A    between atoms: C_1  and  C_2
REMARK    2  A    between atoms: C_2  and  C_11
REMARK    3  A    between atoms: C_4  and  C_5
REMARK                            x       y       z     vdW  Elec       q    Type
REMARK                         _______ _______ _______ _____ _____    ______ ____
ROOT
ATOM      1  C   UNL     1       0.812   0.285  -0.221  0.00  0.00    +0.000 C 
ATOM      2  C   UNL     1       2.290  -0.037  -0.088  0.00  0.00    +0.000 C 
ATOM      3  C   UNL     1       3.199   0.553  -1.133  0.00  0.00    +0.000 C 
ATOM      4  C   UNL     1       2.978  -0.949  -1.147  0.00  0.00    +0.000 C 
ATOM      5 CL   UNL     1       1.928  -1.564  -2.466  0.00  0.00    +0.000 Cl
ENDROOT
BRANCH   2   6
ATOM      6  C   UNL     1       2.735  -0.085   1.372  0.00  0.00    +0.000 A 
ATOM      7  C   UNL     1       2.595  -1.256   2.139  0.00  0.00    +0.000 A 
ATOM      8  C   UNL     1       2.988  -1.303   3.478  0.00  0.00    +0.000 A 
ATOM      9  C   UNL     1       3.517  -0.169   4.088  0.00  0.00    +0.000 A 
ATOM     10  C   UNL     1       3.647   1.010   3.361  0.00  0.00    +0.000 A 
ATOM     11  C   UNL     1       3.255   1.050   2.020  0.00  0.00    +0.000 A 
ENDBRANCH   2   6
BRANCH   4  12
ATOM     12  C   UNL     1       4.204  -1.849  -0.794  0.00  0.00    +0.000 A 
ATOM     13  C   UNL     1       5.271  -1.491   0.010  0.00  0.00    +0.000 A 
ATOM     14  C   UNL     1       6.232  -2.536   0.148  0.00  0.00    +0.000 A 
ATOM     15  C   UNL     1       5.878  -3.658  -0.563  0.00  0.00    +0.000 A 
ATOM     16  S   UNL     1       4.400  -3.447  -1.390  0.00  0.00    +0.000 S 
ENDBRANCH   4  12
TORSDOF 2
