MODEL 1
REMARK VINA RESULT:      -4.8      0.000      0.000
REMARK  Name = *****
REMARK  4 active torsions:
REMARK  status: ('A' for Active; 'I' for Inactive)
REMARK    1  A    between atoms: C_3  and  C_11
REMARK    2  A    between atoms: C_5  and  C_7
REMARK    3  A    between atoms: C_11  and  O_12
REMARK    4  A    between atoms: O_12  and  C_13
REMARK                            x       y       z     vdW  Elec       q    Type
REMARK                         _______ _______ _______ _____ _____    ______ ____
ROOT
ATOM      1  C   UNL     1      99.211 126.901  82.515  0.00  0.00    +0.000 A 
ATOM      2  C   UNL     1     100.549 126.538  82.358  0.00  0.00    +0.000 A 
ATOM      3  C   UNL     1     101.572 127.384  82.803  0.00  0.00    +0.000 A 
ATOM      4  C   UNL     1     101.233 128.592  83.431  0.00  0.00    +0.000 A 
ATOM      5  C   UNL     1      99.890 128.969  83.594  0.00  0.00    +0.000 A 
ATOM      6  C   UNL     1      98.883 128.111  83.127  0.00  0.00    +0.000 A 
ENDROOT
BRANCH   5   7
ATOM      7  C   UNL     1      99.519 130.269  84.265  0.00  0.00    +0.000 C 
ATOM      8  F   UNL     1     100.500 130.773  85.064  0.00  0.00    +0.000 F 
ATOM      9  F   UNL     1      99.230 131.253  83.368  0.00  0.00    +0.000 F 
ATOM     10  F   UNL     1      98.417 130.152  85.056  0.00  0.00    +0.000 F 
ENDBRANCH   5   7
BRANCH   3  11
ATOM     11  C   UNL     1     103.021 126.980  82.653  0.00  0.00    +0.000 C 
BRANCH  11  12
ATOM     12  O   UNL     1     103.280 126.818  81.261  0.00  0.00    +0.000 OA
BRANCH  12  13
ATOM     13  C   UNL     1     103.944 125.645  80.968  0.00  0.00    +0.000 A 
ATOM     14  N   UNL     1     103.793 124.567  81.767  0.00  0.00    +0.000 NA
ATOM     15  C   UNL     1     104.468 123.449  81.423  0.00  0.00    +0.000 A 
ATOM     16  C   UNL     1     105.288 123.360  80.315  0.00  0.00    +0.000 A 
ATOM     17  C   UNL     1     105.417 124.491  79.519  0.00  0.00    +0.000 A 
ATOM     18  C   UNL     1     104.739 125.659  79.839  0.00  0.00    +0.000 A 
ATOM     19 CL   UNL     1     106.427 124.441  78.126  0.00  0.00    +0.000 Cl
ENDBRANCH  12  13
ENDBRANCH  11  12
ENDBRANCH   3  11
TORSDOF 4
ENDMDL
