MODEL 1
REMARK VINA RESULT:      -5.1      0.000      0.000
REMARK  Name = *****
REMARK  2 active torsions:
REMARK  status: ('A' for Active; 'I' for Inactive)
REMARK    1  A    between atoms: C_3  and  N_8
REMARK    2  A    between atoms: C_9  and  C_11
REMARK                            x       y       z     vdW  Elec       q    Type
REMARK                         _______ _______ _______ _____ _____    ______ ____
ROOT
ATOM      1  N   UNL     1     102.005 126.033  82.240  0.00  0.00    +0.000 N 
ATOM      2  C   UNL     1     102.973 126.207  81.266  0.00  0.00    +0.000 C 
ATOM      3  O   UNL     1     103.167 127.207  80.586  0.00  0.00    +0.000 OA
ATOM      4  H   UNL     1     102.033 125.186  82.738  0.00  0.00    +0.000 HD
ENDROOT
BRANCH   2   5
ATOM      5  C   UNL     1     103.887 125.046  81.076  0.00  0.00    +0.000 A 
ATOM      6  C   UNL     1     104.656 124.991  79.907  0.00  0.00    +0.000 A 
ATOM      7  C   UNL     1     105.511 123.915  79.700  0.00  0.00    +0.000 A 
ATOM      8  C   UNL     1     105.600 122.893  80.639  0.00  0.00    +0.000 A 
ATOM      9  C   UNL     1     104.828 122.929  81.796  0.00  0.00    +0.000 A 
ATOM     10  C   UNL     1     103.964 124.006  82.017  0.00  0.00    +0.000 A 
ATOM     11  F   UNL     1     106.426 121.859  80.434  0.00  0.00    +0.000 F 
ATOM     12  F   UNL     1     106.255 123.871  78.586  0.00  0.00    +0.000 F 
ENDBRANCH   2   5
BRANCH   1  15
ATOM     13  C   UNL     1      98.673 127.680  82.715  0.00  0.00    +0.000 A 
ATOM     14  C   UNL     1      99.628 126.738  82.322  0.00  0.00    +0.000 A 
ATOM     15  C   UNL     1     100.984 126.940  82.597  0.00  0.00    +0.000 A 
ATOM     16  C   UNL     1     101.368 128.102  83.279  0.00  0.00    +0.000 A 
ATOM     17  C   UNL     1     100.410 129.039  83.668  0.00  0.00    +0.000 A 
ATOM     18  C   UNL     1      99.063 128.834  83.389  0.00  0.00    +0.000 A 
ATOM     19 CL   UNL     1     100.902 130.463  84.504  0.00  0.00    +0.000 Cl
ENDBRANCH   1  15
TORSDOF 2
ENDMDL
