MODEL 1
REMARK VINA RESULT:      -4.3      0.000      0.000
REMARK  Name = *****
REMARK  3 active torsions:
REMARK  status: ('A' for Active; 'I' for Inactive)
REMARK    1  A    between atoms: C_4  and  C_7
REMARK    2  A    between atoms: C_7  and  O_9
REMARK    3  A    between atoms: O_9  and  C_10
REMARK                            x       y       z     vdW  Elec       q    Type
REMARK                         _______ _______ _______ _____ _____    ______ ____
ROOT
ATOM      1  C   UNL     1     102.997 126.560  81.806  0.00  0.00    +0.000 C 
ATOM      2  O   UNL     1     103.139 127.361  80.891  0.00  0.00    +0.000 OA
ENDROOT
BRANCH   1   6
ATOM      3  C   UNL     1     105.344 122.918  81.776  0.00  0.00    +0.000 C 
ATOM      4  C   UNL     1     104.402 123.152  82.953  0.00  0.00    +0.000 C 
ATOM      5  C   UNL     1     103.959 124.610  83.037  0.00  0.00    +0.000 C 
ATOM      6  C   UNL     1     103.341 125.084  81.718  0.00  0.00    +0.000 C 
ATOM      7  C   UNL     1     104.283 124.847  80.537  0.00  0.00    +0.000 C 
ATOM      8  C   UNL     1     104.731 123.388  80.460  0.00  0.00    +0.000 C 
ENDBRANCH   1   6
BRANCH   1   9
ATOM      9  O   UNL     1     102.472 126.828  83.066  0.00  0.00    +0.000 OA
BRANCH   9  10
ATOM     10  C   UNL     1     101.206 127.413  83.002  0.00  0.00    +0.000 A 
ATOM     11  C   UNL     1     100.157 126.655  82.482  0.00  0.00    +0.000 A 
ATOM     12  C   UNL     1      98.874 127.199  82.439  0.00  0.00    +0.000 A 
ATOM     13  C   UNL     1      98.644 128.489  82.926  0.00  0.00    +0.000 A 
ATOM     14  C   UNL     1      99.696 129.236  83.464  0.00  0.00    +0.000 A 
ATOM     15  C   UNL     1     100.981 128.696  83.509  0.00  0.00    +0.000 A 
ATOM     16 CL   UNL     1     102.255 129.625  84.210  0.00  0.00    +0.000 Cl
ENDBRANCH   9  10
ENDBRANCH   1   9
TORSDOF 3
ENDMDL
