MODEL 1
REMARK VINA RESULT:      -4.5      0.000      0.000
REMARK  Name = *****
REMARK  5 active torsions:
REMARK  status: ('A' for Active; 'I' for Inactive)
REMARK    1  A    between atoms: C_1  and  C_2
REMARK    2  A    between atoms: C_2  and  C_3
REMARK    3  A    between atoms: C_2  and  O_9
REMARK    4  A    between atoms: O_9  and  C_10
REMARK    5  A    between atoms: C_10  and  C_12
REMARK                            x       y       z     vdW  Elec       q    Type
REMARK                         _______ _______ _______ _____ _____    ______ ____
ROOT
ATOM      1  O   UNL     1     104.503 126.048  80.991  0.00  0.00    +0.000 OA
ENDROOT
BRANCH   1   3
ATOM      2  C   UNL     1     105.632 124.867  79.196  0.00  0.00    +0.000 C 
ATOM      3  C   UNL     1     104.456 124.866  80.171  0.00  0.00    +0.000 C 
BRANCH   3   4
ATOM      4  C   UNL     1     104.510 123.662  81.093  0.00  0.00    +0.000 A 
ATOM      5  C   UNL     1     104.342 123.796  82.480  0.00  0.00    +0.000 A 
ATOM      6  C   UNL     1     104.404 122.681  83.317  0.00  0.00    +0.000 A 
ATOM      7  C   UNL     1     104.638 121.418  82.778  0.00  0.00    +0.000 A 
ATOM      8  C   UNL     1     104.811 121.269  81.404  0.00  0.00    +0.000 A 
ATOM      9  C   UNL     1     104.749 122.383  80.566  0.00  0.00    +0.000 A 
ENDBRANCH   3   4
ENDBRANCH   1   3
BRANCH   1  10
ATOM     10  C   UNL     1     103.577 126.996  80.705  0.00  0.00    +0.000 C 
ATOM     11  O   UNL     1     103.433 127.584  79.650  0.00  0.00    +0.000 OA
BRANCH  10  12
ATOM     12  C   UNL     1     102.746 127.202  81.908  0.00  0.00    +0.000 A 
ATOM     13  C   UNL     1     101.653 126.348  82.128  0.00  0.00    +0.000 A 
ATOM     14  C   UNL     1     100.828 126.534  83.238  0.00  0.00    +0.000 A 
ATOM     15  C   UNL     1     101.089 127.571  84.130  0.00  0.00    +0.000 A 
ATOM     16  C   UNL     1     102.176 128.422  83.917  0.00  0.00    +0.000 A 
ATOM     17  C   UNL     1     103.009 128.241  82.807  0.00  0.00    +0.000 A 
ATOM     18 CL   UNL     1     104.362 129.302  82.648  0.00  0.00    +0.000 Cl
ENDBRANCH  10  12
ENDBRANCH   1  10
TORSDOF 4
ENDMDL
