MODEL 1
REMARK VINA RESULT:      -3.7      0.000      0.000
REMARK  Name = *****
REMARK  4 active torsions:
REMARK  status: ('A' for Active; 'I' for Inactive)
REMARK    1  A    between atoms: N_4  and  C_7
REMARK    2  A    between atoms: C_7  and  C_9
REMARK    3  A    between atoms: C_9  and  C_10
REMARK    4  A    between atoms: C_10  and  C_11
REMARK                            x       y       z     vdW  Elec       q    Type
REMARK                         _______ _______ _______ _____ _____    ______ ____
ROOT
ATOM      1  C   UNL     1     104.100 127.134  82.603  0.00  0.00    +0.000 C 
ATOM      2  S   UNL     1     104.520 128.106  83.921  0.00  0.00    +0.000 S 
ENDROOT
BRANCH   1   6
ATOM      3  C   UNL     1     104.660 123.523  80.776  0.00  0.00    +0.000 C 
ATOM      4  C   UNL     1     104.447 124.838  80.023  0.00  0.00    +0.000 C 
ATOM      5  C   UNL     1     105.237 125.974  80.671  0.00  0.00    +0.000 C 
ATOM      6  N   UNL     1     104.881 126.090  82.096  0.00  0.00    +0.000 N 
ATOM      7  C   UNL     1     105.196 124.865  82.843  0.00  0.00    +0.000 C 
ATOM      8  C   UNL     1     104.403 123.688  82.276  0.00  0.00    +0.000 C 
ENDBRANCH   1   6
BRANCH   1   9
ATOM      9  C   UNL     1     102.737 127.403  81.955  0.00  0.00    +0.000 C 
BRANCH   9  10
ATOM     10  C   UNL     1     101.717 126.325  82.336  0.00  0.00    +0.000 C 
BRANCH  10  11
ATOM     11  C   UNL     1     100.520 126.894  83.099  0.00  0.00    +0.000 C 
ATOM     12  C   UNL     1      99.217 126.779  82.310  0.00  0.00    +0.000 C 
ATOM     13  C   UNL     1      98.272 127.734  83.027  0.00  0.00    +0.000 C 
ATOM     14  C   UNL     1      99.159 128.815  83.647  0.00  0.00    +0.000 C 
ATOM     15  C   UNL     1     100.601 128.396  83.367  0.00  0.00    +0.000 C 
ENDBRANCH  10  11
ENDBRANCH   9  10
ENDBRANCH   1   9
TORSDOF 4
ENDMDL
