MODEL 1
REMARK VINA RESULT:      -4.6      0.000      0.000
REMARK  Name = *****
REMARK  2 active torsions:
REMARK  status: ('A' for Active; 'I' for Inactive)
REMARK    1  A    between atoms: C_10  and  S_11
REMARK    2  A    between atoms: S_11  and  C_12
REMARK                            x       y       z     vdW  Elec       q    Type
REMARK                         _______ _______ _______ _____ _____    ______ ____
ROOT
ATOM      1  C   UNL     1      88.916  65.259  87.033  0.00  0.00    +0.000 C 
ATOM      2  C   UNL     1      89.639  64.583  85.914  0.00  0.00    +0.000 C 
ATOM      3  C   UNL     1      90.446  65.411  85.243  0.00  0.00    +0.000 C 
ATOM      4  C   UNL     1      90.433  66.798  85.803  0.00  0.00    +0.000 C 
ATOM      5  C   UNL     1      89.413  66.709  86.990  0.00  0.00    +0.000 C 
ATOM      6  C   UNL     1      88.338  67.755  86.585  0.00  0.00    +0.000 C 
ATOM      7  C   UNL     1      88.294  67.615  85.058  0.00  0.00    +0.000 C 
ATOM      8  C   UNL     1      89.797  67.879  84.891  0.00  0.00    +0.000 C 
ATOM      9  C   UNL     1      89.875  69.195  85.637  0.00  0.00    +0.000 C 
ATOM     10  C   UNL     1      88.993  69.121  86.647  0.00  0.00    +0.000 C 
ENDROOT
BRANCH  10  11
ATOM     11  S   UNL     1      88.684  70.283  87.857  0.00  0.00    +0.000 S 
BRANCH  11  12
ATOM     12  C   UNL     1      87.207  71.033  87.194  0.00  0.00    +0.000 A 
ATOM     13  C   UNL     1      87.047  71.211  85.816  0.00  0.00    +0.000 A 
ATOM     14  C   UNL     1      85.879  71.788  85.311  0.00  0.00    +0.000 A 
ATOM     15  C   UNL     1      84.864  72.184  86.180  0.00  0.00    +0.000 A 
ATOM     16  C   UNL     1      85.014  72.001  87.554  0.00  0.00    +0.000 A 
ATOM     17  C   UNL     1      86.180  71.424  88.060  0.00  0.00    +0.000 A 
ENDBRANCH  11  12
ENDBRANCH  10  11
TORSDOF 2
ENDMDL
