MODEL 1
REMARK VINA RESULT:      -4.2      0.000      0.000
REMARK  Name = *****
REMARK  5 active torsions:
REMARK  status: ('A' for Active; 'I' for Inactive)
REMARK    1  A    between atoms: C_1  and  O_2
REMARK    2  A    between atoms: O_2  and  C_3
REMARK    3  A    between atoms: C_3  and  C_4
REMARK    4  A    between atoms: C_3  and  C_12
REMARK    5  A    between atoms: C_5  and  C_6
REMARK                            x       y       z     vdW  Elec       q    Type
REMARK                         _______ _______ _______ _____ _____    ______ ____
ROOT
ATOM      1  C   UNL     1      90.140  68.121  85.909  0.00  0.00    +0.000 C 
ENDROOT
BRANCH   1   2
ATOM      2  C   UNL     1      89.152  68.763  86.871  0.00  0.00    +0.000 A 
ATOM      3  C   UNL     1      87.987  68.070  87.243  0.00  0.00    +0.000 A 
ATOM      4  C   UNL     1      87.080  68.631  88.144  0.00  0.00    +0.000 A 
ATOM      5  C   UNL     1      87.326  69.890  88.689  0.00  0.00    +0.000 A 
ATOM      6  C   UNL     1      88.479  70.587  88.336  0.00  0.00    +0.000 A 
ATOM      7  C   UNL     1      89.387  70.027  87.436  0.00  0.00    +0.000 A 
ENDBRANCH   1   2
BRANCH   1   9
ATOM      8  C   UNL     1      90.956  65.931  85.486  0.00  0.00    +0.000 C 
ATOM      9  O   UNL     1      90.611  66.889  86.477  0.00  0.00    +0.000 OA
ENDBRANCH   1   9
BRANCH   1  10
ATOM     10  C   UNL     1      89.485  67.796  84.590  0.00  0.00    +0.000 C 
ATOM     11  C   UNL     1      89.162  68.649  83.605  0.00  0.00    +0.000 C 
BRANCH  11  12
ATOM     12  C   UNL     1      89.378  70.093  83.662  0.00  0.00    +0.000 A 
ATOM     13  C   UNL     1      90.638  70.631  83.380  0.00  0.00    +0.000 A 
ATOM     14  C   UNL     1      90.845  72.009  83.457  0.00  0.00    +0.000 A 
ATOM     15  C   UNL     1      89.794  72.853  83.815  0.00  0.00    +0.000 A 
ATOM     16  C   UNL     1      88.536  72.322  84.095  0.00  0.00    +0.000 A 
ATOM     17  C   UNL     1      88.327  70.944  84.019  0.00  0.00    +0.000 A 
ENDBRANCH  11  12
ENDBRANCH   1  10
TORSDOF 4
ENDMDL
