MODEL 1
REMARK VINA RESULT:      -4.3      0.000      0.000
REMARK  Name = *****
REMARK  2 active torsions:
REMARK  status: ('A' for Active; 'I' for Inactive)
REMARK    1  A    between atoms: C_6  and  S_7
REMARK    2  A    between atoms: S_7  and  C_8
REMARK                            x       y       z     vdW  Elec       q    Type
REMARK                         _______ _______ _______ _____ _____    ______ ____
ROOT
ATOM      1  C   UNL     1      97.645 120.327  81.635  0.00  0.00    +0.000 C 
ATOM      2  C   UNL     1      96.384 119.607  82.089  0.00  0.00    +0.000 C 
ATOM      3  C   UNL     1      96.081 118.644  80.949  0.00  0.00    +0.000 C 
ATOM      4  C   UNL     1      97.444 118.299  80.413  0.00  0.00    +0.000 C 
ATOM      5  C   UNL     1      97.691 117.322  79.587  0.00  0.00    +0.000 C 
ATOM      6  C   UNL     1      97.934 116.343  78.769  0.00  0.00    +0.000 C 
ATOM      7  C   UNL     1      98.478 119.232  80.980  0.00  0.00    +0.000 C 
ENDROOT
BRANCH   6   8
ATOM      8  S   UNL     1      96.607 115.435  78.140  0.00  0.00    +0.000 S 
BRANCH   8   9
ATOM      9  C   UNL     1      96.010 116.609  76.939  0.00  0.00    +0.000 A 
ATOM     10  C   UNL     1      96.642 116.735  75.698  0.00  0.00    +0.000 A 
ATOM     11  C   UNL     1      96.172 117.653  74.758  0.00  0.00    +0.000 A 
ATOM     12  C   UNL     1      95.062 118.445  75.051  0.00  0.00    +0.000 A 
ATOM     13  C   UNL     1      94.421 118.318  76.283  0.00  0.00    +0.000 A 
ATOM     14  C   UNL     1      94.893 117.400  77.226  0.00  0.00    +0.000 A 
ENDBRANCH   8   9
ENDBRANCH   6   8
TORSDOF 2
ENDMDL
