MODEL 1
REMARK VINA RESULT:      -4.9      0.000      0.000
REMARK  Name = *****
REMARK  6 active torsions:
REMARK  status: ('A' for Active; 'I' for Inactive)
REMARK    1  A    between atoms: C_1  and  C_2
REMARK    2  A    between atoms: C_2  and  C_4
REMARK    3  A    between atoms: C_4  and  C_5
REMARK    4  A    between atoms: C_5  and  C_6
REMARK    5  A    between atoms: C_5  and  C_13
REMARK    6  A    between atoms: C_6  and  C_7
REMARK                            x       y       z     vdW  Elec       q    Type
REMARK                         _______ _______ _______ _____ _____    ______ ____
ROOT
ATOM      1  C   UNL     1      88.531  69.977  86.571  0.00  0.00    +0.000 C 
ENDROOT
BRANCH   1   2
ATOM      2  C   UNL     1      88.720  68.472  86.722  0.00  0.00    +0.000 A 
ATOM      3  C   UNL     1      87.732  67.727  87.390  0.00  0.00    +0.000 A 
ATOM      4  C   UNL     1      87.864  66.347  87.559  0.00  0.00    +0.000 A 
ATOM      5  C   UNL     1      88.986  65.690  87.064  0.00  0.00    +0.000 A 
ATOM      6  C   UNL     1      89.977  66.414  86.406  0.00  0.00    +0.000 A 
ATOM      7  C   UNL     1      89.847  67.795  86.238  0.00  0.00    +0.000 A 
ENDBRANCH   1   2
BRANCH   1   8
ATOM      8  C   UNL     1      89.797  70.771  86.201  0.00  0.00    +0.000 C 
BRANCH   8  10
ATOM      9  C   UNL     1      89.188  72.327  84.214  0.00  0.00    +0.000 C 
ATOM     10  C   UNL     1      89.911  71.108  84.725  0.00  0.00    +0.000 C 
ATOM     11  O   UNL     1      90.626  70.438  83.977  0.00  0.00    +0.000 OA
ENDBRANCH   8  10
ENDBRANCH   1   8
BRANCH   1  12
ATOM     12  C   UNL     1      87.797  70.596  87.790  0.00  0.00    +0.000 C 
BRANCH  12  13
ATOM     13  C   UNL     1      86.483  71.284  87.504  0.00  0.00    +0.000 A 
ATOM     14  C   UNL     1      85.629  71.657  88.550  0.00  0.00    +0.000 A 
ATOM     15  C   UNL     1      84.418  72.301  88.283  0.00  0.00    +0.000 A 
ATOM     16  C   UNL     1      84.046  72.571  86.968  0.00  0.00    +0.000 A 
ATOM     17  C   UNL     1      84.882  72.197  85.920  0.00  0.00    +0.000 A 
ATOM     18  C   UNL     1      86.094  71.556  86.185  0.00  0.00    +0.000 A 
ENDBRANCH  12  13
ENDBRANCH   1  12
TORSDOF 5
ENDMDL
