MODEL 1
REMARK VINA RESULT:      -5.0      0.000      0.000
REMARK  Name = *****
REMARK  2 active torsions:
REMARK  status: ('A' for Active; 'I' for Inactive)
REMARK    1  A    between atoms: C_1  and  C_2
REMARK    2  A    between atoms: C_7  and  C_8
REMARK                            x       y       z     vdW  Elec       q    Type
REMARK                         _______ _______ _______ _____ _____    ______ ____
ROOT
ATOM      1  C   UNL     1     102.637 126.138  81.762  0.00  0.00    +0.000 A 
ATOM      2  N   UNL     1     103.306 126.329  80.638  0.00  0.00    +0.000 NA
ATOM      3  C   UNL     1     104.134 125.242  80.545  0.00  0.00    +0.000 A 
ATOM      4  C   UNL     1     103.937 124.410  81.634  0.00  0.00    +0.000 A 
ATOM      5  O   UNL     1     102.979 124.976  82.421  0.00  0.00    +0.000 OA
ATOM      6  C   UNL     1     104.613 123.218  81.858  0.00  0.00    +0.000 A 
ATOM      7  C   UNL     1     105.552 122.875  80.880  0.00  0.00    +0.000 A 
ATOM      8  C   UNL     1     105.786 123.683  79.760  0.00  0.00    +0.000 A 
ATOM      9  C   UNL     1     105.079 124.881  79.576  0.00  0.00    +0.000 A 
ATOM     10 CL   UNL     1     106.448 121.413  81.061  0.00  0.00    +0.000 Cl
ENDROOT
BRANCH   1  17
ATOM     11  C   UNL     1     103.328 128.639  83.292  0.00  0.00    +0.000 C 
ATOM     12  C   UNL     1     101.916 128.142  83.124  0.00  0.00    +0.000 A 
ATOM     13  C   UNL     1     100.879 128.890  83.717  0.00  0.00    +0.000 A 
ATOM     14  C   UNL     1      99.549 128.492  83.603  0.00  0.00    +0.000 A 
ATOM     15  C   UNL     1      99.233 127.340  82.896  0.00  0.00    +0.000 A 
ATOM     16  C   UNL     1     100.248 126.587  82.303  0.00  0.00    +0.000 A 
ATOM     17  C   UNL     1     101.603 126.966  82.401  0.00  0.00    +0.000 A 
ENDBRANCH   1  17
TORSDOF 1
ENDMDL
