MODEL 1
REMARK VINA RESULT:      -4.3      0.000      0.000
REMARK  Name = *****
REMARK  4 active torsions:
REMARK  status: ('A' for Active; 'I' for Inactive)
REMARK    1  A    between atoms: C_1  and  O_2
REMARK    2  A    between atoms: O_2  and  C_3
REMARK    3  A    between atoms: C_6  and  C_9
REMARK    4  A    between atoms: C_10  and  C_11
REMARK                            x       y       z     vdW  Elec       q    Type
REMARK                         _______ _______ _______ _____ _____    ______ ____
ROOT
ATOM      1  C   UNL     1      87.532  63.879  86.729  0.00  0.00    +0.000 C 
ATOM      2  C   UNL     1      87.309  63.130  87.823  0.00  0.00    +0.000 C 
ATOM      3 CL   UNL     1      87.076  63.276  85.170  0.00  0.00    +0.000 Cl
ENDROOT
BRANCH   1   7
ATOM      4  C   UNL     1      89.355  67.753  86.728  0.00  0.00    +0.000 A 
ATOM      5  C   UNL     1      88.023  67.604  87.111  0.00  0.00    +0.000 A 
ATOM      6  C   UNL     1      87.429  66.336  87.114  0.00  0.00    +0.000 A 
ATOM      7  C   UNL     1      88.162  65.206  86.734  0.00  0.00    +0.000 A 
ATOM      8  C   UNL     1      89.497  65.358  86.350  0.00  0.00    +0.000 A 
ATOM      9  C   UNL     1      90.086  66.625  86.347  0.00  0.00    +0.000 A 
BRANCH   4  11
ATOM     10  C   UNL     1      89.444  70.061  87.288  0.00  0.00    +0.000 C 
ATOM     11  O   UNL     1      90.053  68.929  86.680  0.00  0.00    +0.000 OA
ENDBRANCH   4  11
ENDBRANCH   1   7
BRANCH   2  12
ATOM     12  C   UNL     1      87.635  63.529  89.193  0.00  0.00    +0.000 A 
ATOM     13  C   UNL     1      88.964  63.537  89.634  0.00  0.00    +0.000 A 
ATOM     14  C   UNL     1      89.267  63.917  90.942  0.00  0.00    +0.000 A 
ATOM     15  C   UNL     1      88.245  64.290  91.816  0.00  0.00    +0.000 A 
ATOM     16  C   UNL     1      86.920  64.285  91.381  0.00  0.00    +0.000 A 
ATOM     17  C   UNL     1      86.615  63.908  90.072  0.00  0.00    +0.000 A 
ENDBRANCH   2  12
TORSDOF 3
ENDMDL
