REMARK  Name = *****
REMARK  4 active torsions:
REMARK  status: ('A' for Active; 'I' for Inactive)
REMARK    1  A    between atoms: C_4  and  S_7
REMARK    2  A    between atoms: S_7  and  N_8
REMARK    3  A    between atoms: N_8  and  S_9
REMARK    4  A    between atoms: S_9  and  C_10
REMARK                            x       y       z     vdW  Elec       q    Type
REMARK                         _______ _______ _______ _____ _____    ______ ____
ROOT
ATOM      1  N   UNL     1      -4.119  -0.712  -0.302  0.00  0.00    +0.000 NA
ATOM      2  H   UNL     1      -4.128  -1.070   0.653  0.00  0.00    +0.000 HD
ENDROOT
BRANCH   1   3
ATOM      3  S   UNL     1      -3.306   0.728  -0.338  0.00  0.00    +0.000 S 
BRANCH   3   7
ATOM      4  C   UNL     1       0.895  -0.571   0.972  0.00  0.00    +0.000 A 
ATOM      5  C   UNL     1       0.257  -1.249  -0.066  0.00  0.00    +0.000 A 
ATOM      6  C   UNL     1      -1.022  -0.861  -0.471  0.00  0.00    +0.000 A 
ATOM      7  C   UNL     1      -1.673   0.204   0.163  0.00  0.00    +0.000 A 
ATOM      8  C   UNL     1      -1.022   0.884   1.197  0.00  0.00    +0.000 A 
ATOM      9  C   UNL     1       0.257   0.496   1.602  0.00  0.00    +0.000 A 
ENDBRANCH   3   7
ENDBRANCH   1   3
BRANCH   1  10
ATOM     10  S   UNL     1      -5.675  -0.505  -0.824  0.00  0.00    +0.000 S 
BRANCH  10  11
ATOM     11  C   UNL     1      -6.227  -2.202  -0.885  0.00  0.00    +0.000 A 
ATOM     12  C   UNL     1      -7.374  -2.580  -0.180  0.00  0.00    +0.000 A 
ATOM     13  C   UNL     1      -7.824  -3.902  -0.222  0.00  0.00    +0.000 A 
ATOM     14  C   UNL     1      -7.132  -4.851  -0.972  0.00  0.00    +0.000 A 
ATOM     15  C   UNL     1      -5.992  -4.481  -1.684  0.00  0.00    +0.000 A 
ATOM     16  C   UNL     1      -5.542  -3.160  -1.643  0.00  0.00    +0.000 A 
ENDBRANCH  10  11
ENDBRANCH   1  10
TORSDOF 4
