MODEL 1
REMARK VINA RESULT:      -4.5      0.000      0.000
REMARK  Name = *****
REMARK  4 active torsions:
REMARK  status: ('A' for Active; 'I' for Inactive)
REMARK    1  A    between atoms: C_4  and  C_7
REMARK    2  A    between atoms: C_7  and  C_8
REMARK    3  A    between atoms: C_8  and  S_9
REMARK    4  A    between atoms: S_9  and  C_10
REMARK                            x       y       z     vdW  Elec       q    Type
REMARK                         _______ _______ _______ _____ _____    ______ ____
ROOT
ATOM      1  C   UNL     1     103.226 125.453  80.877  0.00  0.00    +0.000 C 
ATOM      2 BR   UNL     1     103.714 127.259  80.272  0.00  0.00    +0.000 Br
ENDROOT
BRANCH   1   6
ATOM      3  C   UNL     1     106.530 122.797  80.000  0.00  0.00    +0.000 A 
ATOM      4  C   UNL     1     105.605 122.473  80.990  0.00  0.00    +0.000 A 
ATOM      5  C   UNL     1     104.540 123.334  81.262  0.00  0.00    +0.000 A 
ATOM      6  C   UNL     1     104.387 124.535  80.552  0.00  0.00    +0.000 A 
ATOM      7  C   UNL     1     105.326 124.845  79.553  0.00  0.00    +0.000 A 
ATOM      8  C   UNL     1     106.390 123.982  79.282  0.00  0.00    +0.000 A 
ENDBRANCH   1   6
BRANCH   1   9
ATOM      9  C   UNL     1     102.853 125.464  82.364  0.00  0.00    +0.000 C 
BRANCH   9  10
ATOM     10  S   UNL     1     102.887 127.156  83.075  0.00  0.00    +0.000 S 
BRANCH  10  11
ATOM     11  C   UNL     1     101.148 127.545  83.017  0.00  0.00    +0.000 A 
ATOM     12  C   UNL     1     100.650 128.754  83.513  0.00  0.00    +0.000 A 
ATOM     13  C   UNL     1      99.281 129.027  83.460  0.00  0.00    +0.000 A 
ATOM     14  C   UNL     1      98.403 128.090  82.919  0.00  0.00    +0.000 A 
ATOM     15  C   UNL     1      98.891 126.877  82.436  0.00  0.00    +0.000 A 
ATOM     16  C   UNL     1     100.259 126.603  82.489  0.00  0.00    +0.000 A 
ENDBRANCH  10  11
ENDBRANCH   9  10
ENDBRANCH   1   9
TORSDOF 4
ENDMDL
