MODEL 1
REMARK VINA RESULT:      -4.4      0.000      0.000
REMARK  Name = *****
REMARK  3 active torsions:
REMARK  status: ('A' for Active; 'I' for Inactive)
REMARK    1  A    between atoms: C_4  and  C_7
REMARK    2  A    between atoms: C_7  and  S_9
REMARK    3  A    between atoms: S_9  and  C_10
REMARK                            x       y       z     vdW  Elec       q    Type
REMARK                         _______ _______ _______ _____ _____    ______ ____
ROOT
ATOM      1  C   UNL     1     102.992 125.593  83.635  0.00  0.00    +0.000 C 
ATOM      2  O   UNL     1     102.525 124.967  84.579  0.00  0.00    +0.000 OA
ENDROOT
BRANCH   1   6
ATOM      3  C   UNL     1     104.890 123.394  80.457  0.00  0.00    +0.000 A 
ATOM      4  C   UNL     1     104.319 124.633  80.173  0.00  0.00    +0.000 A 
ATOM      5  C   UNL     1     103.698 125.371  81.186  0.00  0.00    +0.000 A 
ATOM      6  C   UNL     1     103.646 124.875  82.496  0.00  0.00    +0.000 A 
ATOM      7  C   UNL     1     104.223 123.623  82.767  0.00  0.00    +0.000 A 
ATOM      8  C   UNL     1     104.842 122.888  81.753  0.00  0.00    +0.000 A 
ENDBRANCH   1   6
BRANCH   1   9
ATOM      9  S   UNL     1     102.944 127.354  83.595  0.00  0.00    +0.000 S 
BRANCH   9  10
ATOM     10  C   UNL     1     101.222 127.651  83.245  0.00  0.00    +0.000 A 
ATOM     11  C   UNL     1     100.464 126.654  82.624  0.00  0.00    +0.000 A 
ATOM     12  C   UNL     1      99.105 126.854  82.372  0.00  0.00    +0.000 A 
ATOM     13  C   UNL     1      98.496 128.050  82.746  0.00  0.00    +0.000 A 
ATOM     14  C   UNL     1      99.242 129.046  83.374  0.00  0.00    +0.000 A 
ATOM     15  C   UNL     1     100.601 128.845  83.627  0.00  0.00    +0.000 A 
ENDBRANCH   9  10
ENDBRANCH   1   9
TORSDOF 3
ENDMDL
