MODEL 1
REMARK VINA RESULT:      -4.4      0.000      0.000
REMARK  Name = *****
REMARK  6 active torsions:
REMARK  status: ('A' for Active; 'I' for Inactive)
REMARK    1  A    between atoms: C_1  and  S_2
REMARK    2  A    between atoms: S_2  and  C_3
REMARK    3  A    between atoms: C_3  and  O_12
REMARK    4  A    between atoms: N_4  and  C_5
REMARK    5  A    between atoms: C_5  and  C_6
REMARK    6  A    between atoms: O_12  and  C_13
REMARK                            x       y       z     vdW  Elec       q    Type
REMARK                         _______ _______ _______ _____ _____    ______ ____
ROOT
ATOM      1  C   UNL     1      90.008  66.230  86.376  0.00  0.00    +0.000 C 
ATOM      2  N   UNL     1      89.121  65.599  87.047  0.00  0.00    +0.000 NA
ENDROOT
BRANCH   1   4
ATOM      3  C   UNL     1      90.043  65.518  83.779  0.00  0.00    +0.000 C 
ATOM      4  S   UNL     1      91.116  65.489  85.232  0.00  0.00    +0.000 S 
ENDBRANCH   1   4
BRANCH   2   5
ATOM      5  C   UNL     1      88.931  64.155  87.008  0.00  0.00    +0.000 C 
BRANCH   5   6
ATOM      6  C   UNL     1      88.087  63.644  88.154  0.00  0.00    +0.000 A 
ATOM      7  C   UNL     1      88.218  64.195  89.437  0.00  0.00    +0.000 A 
ATOM      8  C   UNL     1      87.416  63.745  90.488  0.00  0.00    +0.000 A 
ATOM      9  C   UNL     1      86.466  62.750  90.266  0.00  0.00    +0.000 A 
ATOM     10  C   UNL     1      86.315  62.205  88.993  0.00  0.00    +0.000 A 
ATOM     11  C   UNL     1      87.118  62.652  87.942  0.00  0.00    +0.000 A 
ENDBRANCH   5   6
ENDBRANCH   2   5
BRANCH   1  12
ATOM     12  O   UNL     1      90.037  67.573  86.601  0.00  0.00    +0.000 OA
BRANCH  12  13
ATOM     13  C   UNL     1      88.851  68.407  86.589  0.00  0.00    +0.000 C 
ATOM     14  C   UNL     1      88.466  68.622  85.121  0.00  0.00    +0.000 C 
ATOM     15  C   UNL     1      89.532  69.411  84.356  0.00  0.00    +0.000 C 
ATOM     16  C   UNL     1      90.043  70.595  85.120  0.00  0.00    +0.000 C 
ATOM     17  C   UNL     1      89.844  70.757  86.435  0.00  0.00    +0.000 C 
ATOM     18  C   UNL     1      89.119  69.752  87.289  0.00  0.00    +0.000 C 
ENDBRANCH  12  13
ENDBRANCH   1  12
TORSDOF 5
ENDMDL
