MODEL 1
REMARK VINA RESULT:      -4.2      0.000      0.000
REMARK  Name = *****
REMARK  3 active torsions:
REMARK  status: ('A' for Active; 'I' for Inactive)
REMARK    1  A    between atoms: C_1  and  C_2
REMARK    2  A    between atoms: C_2  and  C_8
REMARK    3  A    between atoms: C_8  and  C_10
REMARK                            x       y       z     vdW  Elec       q    Type
REMARK                         _______ _______ _______ _____ _____    ______ ____
ROOT
ATOM      1  C   UNL     1     102.923 127.371  82.722  0.00  0.00    +0.000 C 
ATOM      2  O   UNL     1     103.687 127.879  83.538  0.00  0.00    +0.000 OA
ENDROOT
BRANCH   1   4
ATOM      3  C   UNL     1     103.560 127.495  80.324  0.00  0.00    +0.000 C 
ATOM      4  C   UNL     1     103.479 126.631  81.551  0.00  0.00    +0.000 C 
ATOM      5  C   UNL     1     103.889 125.354  81.692  0.00  0.00    +0.000 C 
ATOM      6  S   UNL     1     103.803 124.470  83.201  0.00  0.00    +0.000 S 
ATOM      7  C   UNL     1     104.894 123.114  82.684  0.00  0.00    +0.000 C 
ATOM      8  C   UNL     1     104.607 122.840  81.221  0.00  0.00    +0.000 C 
ATOM      9  S   UNL     1     104.558 124.438  80.358  0.00  0.00    +0.000 S 
ENDBRANCH   1   4
BRANCH   1  10
ATOM     10  C   UNL     1     101.444 127.543  82.834  0.00  0.00    +0.000 A 
ATOM     11  C   UNL     1     100.529 126.604  82.337  0.00  0.00    +0.000 A 
ATOM     12  C   UNL     1      99.156 126.828  82.461  0.00  0.00    +0.000 A 
ATOM     13  C   UNL     1      98.687 127.989  83.077  0.00  0.00    +0.000 A 
ATOM     14  C   UNL     1      99.590 128.930  83.568  0.00  0.00    +0.000 A 
ATOM     15  C   UNL     1     100.963 128.709  83.446  0.00  0.00    +0.000 A 
ENDBRANCH   1  10
TORSDOF 2
ENDMDL
