REMARK  Name = *****
REMARK  4 active torsions:
REMARK  status: ('A' for Active; 'I' for Inactive)
REMARK    1  A    between atoms: C_1  and  C_2
REMARK    2  A    between atoms: C_3  and  C_16
REMARK    3  A    between atoms: C_4  and  C_8
REMARK    4  A    between atoms: C_9  and  C_10
REMARK                            x       y       z     vdW  Elec       q    Type
REMARK                         _______ _______ _______ _____ _____    ______ ____
ROOT
ATOM      1  C   UNL     1       1.856   1.471   0.060  0.00  0.00    +0.000 C 
ATOM      2  C   UNL     1       0.563   0.703  -0.013  0.00  0.00    +0.000 A 
ATOM      3  C   UNL     1       0.525  -0.710   0.073  0.00  0.00    +0.000 A 
ATOM      4  C   UNL     1      -0.726  -1.369   0.025  0.00  0.00    +0.000 A 
ATOM      5  C   UNL     1      -1.903  -0.624  -0.142  0.00  0.00    +0.000 A 
ATOM      6  C   UNL     1      -1.855   0.761  -0.260  0.00  0.00    +0.000 A 
ATOM      7  C   UNL     1      -0.631   1.420  -0.194  0.00  0.00    +0.000 A 
ATOM      8  C   UNL     1       1.799  -1.498   0.268  0.00  0.00    +0.000 C 
ENDROOT
BRANCH   4   9
ATOM      9  C   UNL     1      -0.837  -2.827   0.189  0.00  0.00    +0.000 C 
ATOM     10  C   UNL     1      -1.375  -3.616  -0.755  0.00  0.00    +0.000 C 
BRANCH  10  11
ATOM     11  C   UNL     1      -1.480  -5.076  -0.632  0.00  0.00    +0.000 A 
ATOM     12  C   UNL     1      -1.837  -5.700   0.570  0.00  0.00    +0.000 A 
ATOM     13  C   UNL     1      -1.958  -7.091   0.641  0.00  0.00    +0.000 A 
ATOM     14  C   UNL     1      -1.731  -7.870  -0.492  0.00  0.00    +0.000 A 
ATOM     15  C   UNL     1      -1.390  -7.259  -1.697  0.00  0.00    +0.000 A 
ATOM     16  C   UNL     1      -1.272  -5.869  -1.768  0.00  0.00    +0.000 A 
ENDBRANCH  10  11
ENDBRANCH   4   9
TORSDOF 2
