MODEL 1
REMARK VINA RESULT:      -4.2      0.000      0.000
REMARK  Name = *****
REMARK  4 active torsions:
REMARK  status: ('A' for Active; 'I' for Inactive)
REMARK    1  A    between atoms: C_1  and  C_2
REMARK    2  A    between atoms: C_5  and  O_8
REMARK    3  A    between atoms: O_8  and  C_9
REMARK    4  A    between atoms: C_9  and  C_11
REMARK                            x       y       z     vdW  Elec       q    Type
REMARK                         _______ _______ _______ _____ _____    ______ ____
ROOT
ATOM      1  O   UNL     1     102.017 125.778  81.758  0.00  0.00    +0.000 OA
ENDROOT
BRANCH   1   6
ATOM      2  C   UNL     1      99.265 130.072  84.295  0.00  0.00    +0.000 C 
ATOM      3  C   UNL     1     100.017 128.943  83.653  0.00  0.00    +0.000 A 
ATOM      4  C   UNL     1     101.417 128.962  83.577  0.00  0.00    +0.000 A 
ATOM      5  C   UNL     1     102.108 127.916  82.963  0.00  0.00    +0.000 A 
ATOM      6  C   UNL     1     101.395 126.840  82.439  0.00  0.00    +0.000 A 
ATOM      7  C   UNL     1     100.002 126.817  82.482  0.00  0.00    +0.000 A 
ATOM      8  C   UNL     1      99.315 127.867  83.092  0.00  0.00    +0.000 A 
ENDBRANCH   1   6
BRANCH   1   9
ATOM      9  C   UNL     1     103.021 125.037  82.390  0.00  0.00    +0.000 C 
ATOM     10  O   UNL     1     103.067 124.796  83.590  0.00  0.00    +0.000 OA
BRANCH   9  11
ATOM     11  C   UNL     1     103.982 124.602  81.389  0.00  0.00    +0.000 A 
ATOM     12  C   UNL     1     104.576 123.364  81.212  0.00  0.00    +0.000 A 
ATOM     13  C   UNL     1     105.475 123.339  80.106  0.00  0.00    +0.000 A 
ATOM     14  C   UNL     1     105.540 124.558  79.469  0.00  0.00    +0.000 A 
ATOM     15  S   UNL     1     104.527 125.720  80.206  0.00  0.00    +0.000 S 
ENDBRANCH   9  11
ENDBRANCH   1   9
TORSDOF 3
ENDMDL
