REMARK  Name = *****
REMARK  4 active torsions:
REMARK  status: ('A' for Active; 'I' for Inactive)
REMARK    1  A    between atoms: C_1  and  C_2
REMARK    2  A    between atoms: C_3  and  O_9
REMARK    3  A    between atoms: O_9  and  C_10
REMARK    4  A    between atoms: C_10  and  C_12
REMARK                            x       y       z     vdW  Elec       q    Type
REMARK                         _______ _______ _______ _____ _____    ______ ____
ROOT
ATOM      1  O   UNL     1      -1.025   1.927  -1.215  0.00  0.00    +0.000 OA
ENDROOT
BRANCH   1   4
ATOM      2  C   UNL     1      -3.440   0.440  -0.737  0.00  0.00    +0.000 C 
ATOM      3  C   UNL     1      -2.090  -0.038  -0.288  0.00  0.00    +0.000 A 
ATOM      4  C   UNL     1      -0.931   0.726  -0.500  0.00  0.00    +0.000 A 
ATOM      5  C   UNL     1       0.324   0.273  -0.077  0.00  0.00    +0.000 A 
ATOM      6  C   UNL     1       0.425  -0.940   0.603  0.00  0.00    +0.000 A 
ATOM      7  C   UNL     1      -0.722  -1.696   0.851  0.00  0.00    +0.000 A 
ATOM      8  C   UNL     1      -1.970  -1.247   0.411  0.00  0.00    +0.000 A 
ATOM      9 CL   UNL     1       1.760   1.175  -0.391  0.00  0.00    +0.000 Cl
ENDBRANCH   1   4
BRANCH   1  10
ATOM     10  C   UNL     1      -1.315   3.009  -0.406  0.00  0.00    +0.000 C 
ATOM     11  O   UNL     1      -1.501   3.006   0.801  0.00  0.00    +0.000 OA
BRANCH  10  12
ATOM     12  C   UNL     1      -1.471   4.219  -1.254  0.00  0.00    +0.000 A 
ATOM     13  C   UNL     1      -2.220   5.288  -0.746  0.00  0.00    +0.000 A 
ATOM     14  C   UNL     1      -2.414   6.437  -1.514  0.00  0.00    +0.000 A 
ATOM     15  C   UNL     1      -1.854   6.526  -2.788  0.00  0.00    +0.000 A 
ATOM     16  C   UNL     1      -1.095   5.470  -3.295  0.00  0.00    +0.000 A 
ATOM     17  C   UNL     1      -0.902   4.317  -2.531  0.00  0.00    +0.000 A 
ENDBRANCH  10  12
ENDBRANCH   1  10
TORSDOF 3
