MODEL 1
REMARK VINA RESULT:      -4.4      0.000      0.000
REMARK  Name = *****
REMARK  3 active torsions:
REMARK  status: ('A' for Active; 'I' for Inactive)
REMARK    1  A    between atoms: C_5  and  C_7
REMARK    2  A    between atoms: C_7  and  S_8
REMARK    3  A    between atoms: S_8  and  C_9
REMARK                            x       y       z     vdW  Elec       q    Type
REMARK                         _______ _______ _______ _____ _____    ______ ____
ROOT
ATOM      1  C   UNL     1     102.685 127.612  82.927  0.00  0.00    +0.000 C 
ENDROOT
BRANCH   1   6
ATOM      2  C   UNL     1      98.995 126.810  82.452  0.00  0.00    +0.000 A 
ATOM      3  C   UNL     1      98.368 127.854  83.123  0.00  0.00    +0.000 A 
ATOM      4  C   UNL     1      99.136 128.839  83.743  0.00  0.00    +0.000 A 
ATOM      5  C   UNL     1     100.533 128.784  83.692  0.00  0.00    +0.000 A 
ATOM      6  C   UNL     1     101.183 127.740  83.011  0.00  0.00    +0.000 A 
ATOM      7  C   UNL     1     100.389 126.750  82.399  0.00  0.00    +0.000 A 
ATOM      8 BR   UNL     1     101.484 130.171  84.577  0.00  0.00    +0.000 Br
ENDBRANCH   1   6
BRANCH   1   9
ATOM      9  S   UNL     1     103.217 127.089  81.260  0.00  0.00    +0.000 S 
BRANCH   9  10
ATOM     10  C   UNL     1     103.751 125.420  81.594  0.00  0.00    +0.000 A 
ATOM     11  C   UNL     1     103.737 124.964  82.919  0.00  0.00    +0.000 A 
ATOM     12  C   UNL     1     104.157 123.668  83.232  0.00  0.00    +0.000 A 
ATOM     13  C   UNL     1     104.603 122.822  82.221  0.00  0.00    +0.000 A 
ATOM     14  C   UNL     1     104.632 123.283  80.910  0.00  0.00    +0.000 A 
ATOM     15  C   UNL     1     104.218 124.572  80.587  0.00  0.00    +0.000 A 
ATOM     16  F   UNL     1     105.072 122.472  79.938  0.00  0.00    +0.000 F 
ENDBRANCH   9  10
ENDBRANCH   1   9
TORSDOF 3
ENDMDL
