MODEL 1
REMARK VINA RESULT:      -4.9      0.000      0.000
REMARK  Name = *****
REMARK  6 active torsions:
REMARK  status: ('A' for Active; 'I' for Inactive)
REMARK    1  A    between atoms: C_1  and  O_2
REMARK    2  A    between atoms: O_2  and  C_3
REMARK    3  A    between atoms: C_5  and  O_18
REMARK    4  A    between atoms: C_7  and  C_9
REMARK    5  A    between atoms: C_10  and  C_11
REMARK    6  A    between atoms: O_18  and  C_19
REMARK                            x       y       z     vdW  Elec       q    Type
REMARK                         _______ _______ _______ _____ _____    ______ ____
ROOT
ATOM      1  C   UNL     1     100.746 129.025  83.660  0.00  0.00    +0.000 A 
ATOM      2  C   UNL     1      99.408 128.731  83.389  0.00  0.00    +0.000 A 
ATOM      3  C   UNL     1      99.069 127.522  82.775  0.00  0.00    +0.000 A 
ATOM      4  C   UNL     1     100.075 126.614  82.428  0.00  0.00    +0.000 A 
ATOM      5  C   UNL     1     101.422 126.902  82.675  0.00  0.00    +0.000 A 
ATOM      6  C   UNL     1     101.742 128.109  83.306  0.00  0.00    +0.000 A 
ENDROOT
BRANCH   1   8
ATOM      7  C   UNL     1     100.266 130.972  84.946  0.00  0.00    +0.000 C 
ATOM      8  O   UNL     1     101.214 130.163  84.262  0.00  0.00    +0.000 OA
ENDBRANCH   1   8
BRANCH   5   9
ATOM      9  C   UNL     1     102.503 125.958  82.353  0.00  0.00    +0.000 C 
ATOM     10  C   UNL     1     102.947 125.721  81.108  0.00  0.00    +0.000 C 
BRANCH  10  11
ATOM     11  C   UNL     1     104.039 124.790  80.792  0.00  0.00    +0.000 A 
ATOM     12  C   UNL     1     104.889 124.980  79.693  0.00  0.00    +0.000 A 
ATOM     13  C   UNL     1     105.936 124.089  79.443  0.00  0.00    +0.000 A 
ATOM     14  C   UNL     1     106.139 123.014  80.299  0.00  0.00    +0.000 A 
ATOM     15  C   UNL     1     105.320 122.815  81.402  0.00  0.00    +0.000 A 
ATOM     16  C   UNL     1     104.273 123.706  81.652  0.00  0.00    +0.000 A 
ATOM     17  F   UNL     1     107.144 122.160  80.060  0.00  0.00    +0.000 F 
ENDBRANCH  10  11
ENDBRANCH   5   9
BRANCH   3  18
ATOM     18  O   UNL     1      97.801 127.107  82.463  0.00  0.00    +0.000 OA
ATOM     19  C   UNL     1      96.938 126.787  83.546  0.00  0.00    +0.000 C 
ENDBRANCH   3  18
TORSDOF 4
ENDMDL
