MODEL 1
REMARK VINA RESULT:      -5.0      0.000      0.000
REMARK  Name = *****
REMARK  2 active torsions:
REMARK  status: ('A' for Active; 'I' for Inactive)
REMARK    1  A    between atoms: C_3  and  N_9
REMARK    2  A    between atoms: C_10  and  C_11
REMARK                            x       y       z     vdW  Elec       q    Type
REMARK                         _______ _______ _______ _____ _____    ______ ____
ROOT
ATOM      1  N   UNL     1     102.960 126.036  82.555  0.00  0.00    +0.000 NA
ATOM      2  C   UNL     1     101.672 125.963  82.662  0.00  0.00    +0.000 C 
ENDROOT
BRANCH   1   5
ATOM      3  C   UNL     1     104.613 122.798  83.259  0.00  0.00    +0.000 A 
ATOM      4  C   UNL     1     103.947 124.018  83.422  0.00  0.00    +0.000 A 
ATOM      5  C   UNL     1     103.661 124.837  82.322  0.00  0.00    +0.000 A 
ATOM      6  C   UNL     1     104.034 124.391  81.046  0.00  0.00    +0.000 A 
ATOM      7  C   UNL     1     104.696 123.178  80.886  0.00  0.00    +0.000 A 
ATOM      8  C   UNL     1     104.991 122.378  81.985  0.00  0.00    +0.000 A 
ATOM      9  F   UNL     1     105.059 122.766  79.663  0.00  0.00    +0.000 F 
ATOM     10  F   UNL     1     103.761 125.137  79.964  0.00  0.00    +0.000 F 
ENDBRANCH   1   5
BRANCH   2  11
ATOM     11  C   UNL     1     100.855 127.161  82.924  0.00  0.00    +0.000 A 
ATOM     12  C   UNL     1      99.513 127.161  82.541  0.00  0.00    +0.000 A 
ATOM     13  C   UNL     1      98.708 128.275  82.773  0.00  0.00    +0.000 A 
ATOM     14  C   UNL     1      99.253 129.398  83.395  0.00  0.00    +0.000 A 
ATOM     15  C   UNL     1     100.594 129.392  83.775  0.00  0.00    +0.000 A 
ATOM     16  C   UNL     1     101.403 128.285  83.546  0.00  0.00    +0.000 A 
ATOM     17  F   UNL     1     101.111 130.475  84.369  0.00  0.00    +0.000 F 
ATOM     18  F   UNL     1      98.974 126.091  81.940  0.00  0.00    +0.000 F 
ENDBRANCH   2  11
TORSDOF 2
ENDMDL
