MODEL 1
REMARK VINA RESULT:      -4.9      0.000      0.000
REMARK  Name = *****
REMARK  6 active torsions:
REMARK  status: ('A' for Active; 'I' for Inactive)
REMARK    1  A    between atoms: C_1  and  C_2
REMARK    2  A    between atoms: C_4  and  C_16
REMARK    3  A    between atoms: C_5  and  C_8
REMARK    4  A    between atoms: C_8  and  C_9
REMARK    5  A    between atoms: C_9  and  C_10
REMARK    6  A    between atoms: C_16  and  C_18
REMARK                            x       y       z     vdW  Elec       q    Type
REMARK                         _______ _______ _______ _____ _____    ______ ____
ROOT
ATOM      1  C   UNL     1      83.921  72.604  86.556  0.00  0.00    +0.000 C 
ATOM      2  C   UNL     1      85.260  71.960  86.760  0.00  0.00    +0.000 A 
ATOM      3  C   UNL     1      85.741  71.711  88.049  0.00  0.00    +0.000 A 
ATOM      4  C   UNL     1      87.007  71.133  88.246  0.00  0.00    +0.000 A 
ATOM      5  C   UNL     1      87.827  70.798  87.144  0.00  0.00    +0.000 A 
ATOM      6  C   UNL     1      87.326  71.057  85.856  0.00  0.00    +0.000 A 
ATOM      7  C   UNL     1      86.068  71.639  85.668  0.00  0.00    +0.000 A 
ENDROOT
BRANCH   4   8
ATOM      8  C   UNL     1      87.441  70.869  89.649  0.00  0.00    +0.000 C 
ATOM      9  O   UNL     1      87.088  69.846  90.230  0.00  0.00    +0.000 OA
ATOM     10  C   UNL     1      88.295  71.905  90.332  0.00  0.00    +0.000 C 
ENDBRANCH   4   8
BRANCH   5  11
ATOM     11  C   UNL     1      89.192  70.166  87.356  0.00  0.00    +0.000 C 
BRANCH  11  12
ATOM     12  C   UNL     1      89.701  69.206  86.267  0.00  0.00    +0.000 C 
BRANCH  12  13
ATOM     13  C   UNL     1      89.401  67.734  86.469  0.00  0.00    +0.000 A 
ATOM     14  C   UNL     1      88.275  67.260  87.156  0.00  0.00    +0.000 A 
ATOM     15  C   UNL     1      88.046  65.887  87.289  0.00  0.00    +0.000 A 
ATOM     16  C   UNL     1      88.934  64.971  86.732  0.00  0.00    +0.000 A 
ATOM     17  C   UNL     1      90.051  65.424  86.037  0.00  0.00    +0.000 A 
ATOM     18  C   UNL     1      90.282  66.794  85.905  0.00  0.00    +0.000 A 
ENDBRANCH  12  13
ENDBRANCH  11  12
ENDBRANCH   5  11
TORSDOF 4
ENDMDL
