MODEL 1
REMARK VINA RESULT:      -4.0      0.000      0.000
REMARK  Name = *****
REMARK  3 active torsions:
REMARK  status: ('A' for Active; 'I' for Inactive)
REMARK    1  A    between atoms: C_5  and  O_7
REMARK    2  A    between atoms: O_7  and  C_8
REMARK    3  A    between atoms: C_8  and  C_10
REMARK                            x       y       z     vdW  Elec       q    Type
REMARK                         _______ _______ _______ _____ _____    ______ ____
ROOT
ATOM      1  O   UNL     1     102.639 126.781  82.966  0.00  0.00    +0.000 OA
ENDROOT
BRANCH   1   6
ATOM      2  C   UNL     1      99.018 127.113  82.442  0.00  0.00    +0.000 A 
ATOM      3  C   UNL     1      98.781 128.380  82.982  0.00  0.00    +0.000 A 
ATOM      4  C   UNL     1      99.835 129.123  83.524  0.00  0.00    +0.000 A 
ATOM      5  C   UNL     1     101.126 128.595  83.531  0.00  0.00    +0.000 A 
ATOM      6  C   UNL     1     101.350 127.320  83.006  0.00  0.00    +0.000 A 
ATOM      7  C   UNL     1     100.307 126.580  82.446  0.00  0.00    +0.000 A 
ATOM      8 CL   UNL     1     102.415 129.543  84.174  0.00  0.00    +0.000 Cl
ENDBRANCH   1   6
BRANCH   1   9
ATOM      9  C   UNL     1     103.148 126.681  81.671  0.00  0.00    +0.000 C 
ATOM     10  O   UNL     1     103.111 127.577  80.833  0.00  0.00    +0.000 OA
BRANCH   9  11
ATOM     11  C   UNL     1     103.735 125.364  81.495  0.00  0.00    +0.000 A 
ATOM     12  C   UNL     1     104.156 124.729  80.339  0.00  0.00    +0.000 A 
ATOM     13  C   UNL     1     104.683 123.428  80.588  0.00  0.00    +0.000 A 
ATOM     14  C   UNL     1     104.651 123.107  81.925  0.00  0.00    +0.000 A 
ATOM     15  S   UNL     1     103.991 124.369  82.870  0.00  0.00    +0.000 S 
ENDBRANCH   9  11
ENDBRANCH   1   9
TORSDOF 3
ENDMDL
