MODEL 1
REMARK VINA RESULT:      -4.4      0.000      0.000
REMARK  Name = *****
REMARK  3 active torsions:
REMARK  status: ('A' for Active; 'I' for Inactive)
REMARK    1  A    between atoms: C_1  and  C_2
REMARK    2  A    between atoms: C_5  and  C_7
REMARK    3  A    between atoms: C_8  and  C_9
REMARK                            x       y       z     vdW  Elec       q    Type
REMARK                         _______ _______ _______ _____ _____    ______ ____
ROOT
ATOM      1  C   UNL     1     102.837 125.920  81.292  0.00  0.00    +0.000 C 
ATOM      2  C   UNL     1     102.106 125.910  82.417  0.00  0.00    +0.000 C 
ENDROOT
BRANCH   2   3
ATOM      3  C   UNL     1     101.075 126.925  82.693  0.00  0.00    +0.000 A 
ATOM      4  C   UNL     1      99.741 126.653  82.347  0.00  0.00    +0.000 A 
ATOM      5  C   UNL     1      98.729 127.579  82.611  0.00  0.00    +0.000 A 
ATOM      6  C   UNL     1      99.035 128.789  83.229  0.00  0.00    +0.000 A 
ATOM      7  C   UNL     1     100.353 129.072  83.588  0.00  0.00    +0.000 A 
ATOM      8  C   UNL     1     101.368 128.145  83.326  0.00  0.00    +0.000 A 
ATOM      9 BR   UNL     1     103.137 128.622  83.840  0.00  0.00    +0.000 Br
ENDBRANCH   2   3
BRANCH   1  14
ATOM     10  C   UNL     1     106.184 121.877  81.844  0.00  0.00    +0.000 C 
ATOM     11  C   UNL     1     105.422 123.035  81.299  0.00  0.00    +0.000 A 
ATOM     12  C   UNL     1     105.520 123.616  80.055  0.00  0.00    +0.000 A 
ATOM     13  C   UNL     1     104.617 124.710  79.899  0.00  0.00    +0.000 A 
ATOM     14  C   UNL     1     103.845 124.946  81.024  0.00  0.00    +0.000 A 
ATOM     15  S   UNL     1     104.247 123.812  82.263  0.00  0.00    +0.000 S 
ENDBRANCH   1  14
TORSDOF 2
ENDMDL
