MODEL 1
REMARK VINA RESULT:      -4.4      0.000      0.000
REMARK  Name = *****
REMARK  6 active torsions:
REMARK  status: ('A' for Active; 'I' for Inactive)
REMARK    1  A    between atoms: C_1  and  C_2
REMARK    2  A    between atoms: C_5  and  C_16
REMARK    3  A    between atoms: C_6  and  C_8
REMARK    4  A    between atoms: C_8  and  C_9
REMARK    5  A    between atoms: C_9  and  C_10
REMARK    6  A    between atoms: C_16  and  C_18
REMARK                            x       y       z     vdW  Elec       q    Type
REMARK                         _______ _______ _______ _____ _____    ______ ____
ROOT
ATOM      1  C   UNL     1      91.578  65.382  85.296  0.00  0.00    +0.000 C 
ATOM      2  C   UNL     1      90.175  65.916  85.545  0.00  0.00    +0.000 C 
ATOM      3  C   UNL     1      89.332  64.908  86.322  0.00  0.00    +0.000 C 
ATOM      4  C   UNL     1      87.961  65.495  86.641  0.00  0.00    +0.000 C 
ATOM      5  C   UNL     1      88.099  66.861  87.337  0.00  0.00    +0.000 C 
ATOM      6  C   UNL     1      89.036  67.783  86.512  0.00  0.00    +0.000 C 
ATOM      7  O   UNL     1      90.298  67.128  86.293  0.00  0.00    +0.000 OA
ENDROOT
BRANCH   5   8
ATOM      8  C   UNL     1      86.729  67.457  87.649  0.00  0.00    +0.000 C 
ATOM      9  C   UNL     1      86.351  67.692  88.917  0.00  0.00    +0.000 C 
ATOM     10  C   UNL     1      85.810  67.783  86.501  0.00  0.00    +0.000 C 
ENDBRANCH   5   8
BRANCH   6  11
ATOM     11  C   UNL     1      89.326  69.111  87.230  0.00  0.00    +0.000 C 
BRANCH  11  12
ATOM     12  C   UNL     1      89.001  70.320  86.346  0.00  0.00    +0.000 C 
BRANCH  12  13
ATOM     13  C   UNL     1      87.637  70.885  86.659  0.00  0.00    +0.000 A 
ATOM     14  C   UNL     1      86.783  71.289  85.624  0.00  0.00    +0.000 A 
ATOM     15  C   UNL     1      85.529  71.830  85.912  0.00  0.00    +0.000 A 
ATOM     16  C   UNL     1      85.119  71.976  87.236  0.00  0.00    +0.000 A 
ATOM     17  C   UNL     1      85.965  71.584  88.273  0.00  0.00    +0.000 A 
ATOM     18  C   UNL     1      87.219  71.044  87.986  0.00  0.00    +0.000 A 
ENDBRANCH  12  13
ENDBRANCH  11  12
ENDBRANCH   6  11
TORSDOF 4
ENDMDL
