REMARK  Name = *****
REMARK  1 active torsions:
REMARK  status: ('A' for Active; 'I' for Inactive)
REMARK    1  A    between atoms: C_8  and  C_10
REMARK                            x       y       z     vdW  Elec       q    Type
REMARK                         _______ _______ _______ _____ _____    ______ ____
ROOT
ATOM      1  C   UNL     1       2.233   0.584   0.003  0.00  0.00    +0.000 A 
ATOM      2  C   UNL     1       2.112  -0.811   0.065  0.00  0.00    +0.000 A 
ATOM      3  C   UNL     1       0.858  -1.434   0.087  0.00  0.00    +0.000 A 
ATOM      4  C   UNL     1      -0.238  -0.582   0.044  0.00  0.00    +0.000 A 
ATOM      5  C   UNL     1      -0.162   0.799  -0.016  0.00  0.00    +0.000 A 
ATOM      6  C   UNL     1       1.098   1.409  -0.038  0.00  0.00    +0.000 A 
ATOM      7  N   UNL     1      -1.425   1.332  -0.043  0.00  0.00    +0.000 NA
ATOM      8  C   UNL     1      -2.220   0.278  -0.009  0.00  0.00    +0.000 A 
ATOM      9  O   UNL     1      -1.557  -0.927   0.055  0.00  0.00    +0.000 OA
ENDROOT
BRANCH   8  10
ATOM     10  C   UNL     1      -3.681   0.199  -0.008  0.00  0.00    +0.000 A 
ATOM     11  C   UNL     1      -4.500   1.174  -0.606  0.00  0.00    +0.000 A 
ATOM     12  C   UNL     1      -5.897   1.062  -0.561  0.00  0.00    +0.000 A 
ATOM     13  C   UNL     1      -6.489  -0.022   0.080  0.00  0.00    +0.000 A 
ATOM     14  C   UNL     1      -5.702  -1.001   0.675  0.00  0.00    +0.000 A 
ATOM     15  C   UNL     1      -4.309  -0.890   0.630  0.00  0.00    +0.000 A 
ATOM     16 CL   UNL     1      -8.203  -0.155   0.131  0.00  0.00    +0.000 Cl
ATOM     17 CL   UNL     1      -3.872   2.538  -1.468  0.00  0.00    +0.000 Cl
ENDBRANCH   8  10
TORSDOF 1
