MODEL 1
REMARK VINA RESULT:      -4.5      0.000      0.000
REMARK  Name = *****
REMARK  0 active torsions:
REMARK  status: ('A' for Active; 'I' for Inactive)
REMARK                            x       y       z     vdW  Elec       q    Type
REMARK                         _______ _______ _______ _____ _____    ______ ____
ROOT
ATOM      1  C   UNL     1     104.535 120.616  81.844  0.00  0.00    +0.000 A 
ATOM      2  C   UNL     1     104.436 120.929  83.203  0.00  0.00    +0.000 A 
ATOM      3  C   UNL     1     104.429 122.262  83.617  0.00  0.00    +0.000 A 
ATOM      4  C   UNL     1     104.534 123.280  82.671  0.00  0.00    +0.000 A 
ATOM      5  C   UNL     1     104.604 122.968  81.293  0.00  0.00    +0.000 A 
ATOM      6  C   UNL     1     104.621 121.632  80.889  0.00  0.00    +0.000 A 
ATOM      7  C   UNL     1     104.718 124.047  80.299  0.00  0.00    +0.000 C 
ATOM      8  C   UNL     1     103.804 125.027  80.407  0.00  0.00    +0.000 C 
ATOM      9  C   UNL     1     104.328 126.338  80.824  0.00  0.00    +0.000 A 
ATOM     10  C   UNL     1     103.945 127.497  80.147  0.00  0.00    +0.000 A 
ATOM     11  C   UNL     1     104.418 128.740  80.574  0.00  0.00    +0.000 A 
ATOM     12  C   UNL     1     105.268 128.830  81.679  0.00  0.00    +0.000 A 
ATOM     13  C   UNL     1     105.648 127.679  82.371  0.00  0.00    +0.000 A 
ATOM     14  C   UNL     1     105.162 126.437  81.962  0.00  0.00    +0.000 A 
ATOM     15  O   UNL     1     105.621 125.327  82.656  0.00  0.00    +0.000 OA
ATOM     16  O   UNL     1     104.451 124.582  83.147  0.00  0.00    +0.000 OA
ENDROOT
TORSDOF 0
ENDMDL
