MODEL 1
REMARK VINA RESULT:      -4.6      0.000      0.000
REMARK  Name = *****
REMARK  5 active torsions:
REMARK  status: ('A' for Active; 'I' for Inactive)
REMARK    1  A    between atoms: C_1  and  C_2
REMARK    2  A    between atoms: C_5  and  C_8
REMARK    3  A    between atoms: C_8  and  C_10
REMARK    4  A    between atoms: C_10  and  C_11
REMARK    5  A    between atoms: C_11  and  C_12
REMARK                            x       y       z     vdW  Elec       q    Type
REMARK                         _______ _______ _______ _____ _____    ______ ____
ROOT
ATOM      1  C   UNL     1      88.376  68.949  87.306  0.00  0.00    +0.000 C 
ATOM      2 CL   UNL     1      86.902  68.143  86.674  0.00  0.00    +0.000 Cl
ENDROOT
BRANCH   1   3
ATOM      3  C   UNL     1      89.542  68.671  86.367  0.00  0.00    +0.000 C 
ATOM      4  O   UNL     1      90.384  67.800  86.587  0.00  0.00    +0.000 OA
BRANCH   3   9
ATOM      5  C   UNL     1      89.961  71.583  81.345  0.00  0.00    +0.000 C 
ATOM      6  C   UNL     1      89.835  70.863  82.656  0.00  0.00    +0.000 A 
ATOM      7  C   UNL     1      90.403  71.394  83.818  0.00  0.00    +0.000 A 
ATOM      8  C   UNL     1      90.319  70.706  85.035  0.00  0.00    +0.000 A 
ATOM      9  C   UNL     1      89.672  69.467  85.102  0.00  0.00    +0.000 A 
ATOM     10  C   UNL     1      89.110  68.933  83.933  0.00  0.00    +0.000 A 
ATOM     11  C   UNL     1      89.197  69.622  82.720  0.00  0.00    +0.000 A 
ENDBRANCH   3   9
ENDBRANCH   1   3
BRANCH   1  12
ATOM     12  C   UNL     1      88.221  70.461  87.554  0.00  0.00    +0.000 C 
ATOM     13 CL   UNL     1      88.535  70.851  89.288  0.00  0.00    +0.000 Cl
BRANCH  12  14
ATOM     14  C   UNL     1      86.937  71.119  87.079  0.00  0.00    +0.000 A 
ATOM     15  C   UNL     1      86.690  71.406  85.727  0.00  0.00    +0.000 A 
ATOM     16  C   UNL     1      85.501  72.019  85.328  0.00  0.00    +0.000 A 
ATOM     17  C   UNL     1      84.538  72.359  86.274  0.00  0.00    +0.000 A 
ATOM     18  C   UNL     1      84.764  72.086  87.620  0.00  0.00    +0.000 A 
ATOM     19  C   UNL     1      85.953  71.472  88.020  0.00  0.00    +0.000 A 
ENDBRANCH  12  14
ENDBRANCH   1  12
TORSDOF 4
ENDMDL
