MODEL 1
REMARK VINA RESULT:      -4.5      0.000      0.000
REMARK  Name = *****
REMARK  5 active torsions:
REMARK  status: ('A' for Active; 'I' for Inactive)
REMARK    1  A    between atoms: C_2  and  S_3
REMARK    2  A    between atoms: S_3  and  N_4
REMARK    3  A    between atoms: N_4  and  C_5
REMARK    4  A    between atoms: N_4  and  C_12
REMARK    5  A    between atoms: C_5  and  C_6
REMARK                            x       y       z     vdW  Elec       q    Type
REMARK                         _______ _______ _______ _____ _____    ______ ____
ROOT
ATOM      1  N   UNL     1     103.437 126.511  81.712  0.00  0.00    +0.000 N 
ENDROOT
BRANCH   1   2
ATOM      2  C   UNL     1     103.883 125.168  81.731  0.00  0.00    +0.000 A 
ATOM      3  C   UNL     1     103.918 124.409  82.920  0.00  0.00    +0.000 A 
ATOM      4  C   UNL     1     104.360 123.078  82.951  0.00  0.00    +0.000 A 
ATOM      5  C   UNL     1     104.787 122.467  81.781  0.00  0.00    +0.000 A 
ATOM      6  C   UNL     1     104.775 123.176  80.589  0.00  0.00    +0.000 A 
ATOM      7  C   UNL     1     104.330 124.506  80.569  0.00  0.00    +0.000 A 
ATOM      8 CL   UNL     1     105.330 120.836  81.810  0.00  0.00    +0.000 Cl
ENDBRANCH   1   2
BRANCH   1   9
ATOM      9  S   UNL     1     103.606 127.494  80.357  0.00  0.00    +0.000 S 
BRANCH   9  11
ATOM     10  C   UNL     1     105.318 129.533  81.487  0.00  0.00    +0.000 C 
ATOM     11  C   UNL     1     104.608 128.688  81.017  0.00  0.00    +0.000 C 
ENDBRANCH   9  11
ENDBRANCH   1   9
BRANCH   1  12
ATOM     12  C   UNL     1     102.981 127.179  82.946  0.00  0.00    +0.000 C 
BRANCH  12  13
ATOM     13  C   UNL     1     101.502 127.526  82.945  0.00  0.00    +0.000 A 
ATOM     14  C   UNL     1     100.576 126.619  82.402  0.00  0.00    +0.000 A 
ATOM     15  C   UNL     1      99.208 126.899  82.424  0.00  0.00    +0.000 A 
ATOM     16  C   UNL     1      98.747 128.082  82.998  0.00  0.00    +0.000 A 
ATOM     17  C   UNL     1      99.651 128.982  83.555  0.00  0.00    +0.000 A 
ATOM     18  C   UNL     1     101.019 128.703  83.537  0.00  0.00    +0.000 A 
ENDBRANCH  12  13
ENDBRANCH   1  12
TORSDOF 5
ENDMDL
