REMARK  Name = *****
REMARK  2 active torsions:
REMARK  status: ('A' for Active; 'I' for Inactive)
REMARK    1  A    between atoms: C_4  and  C_6
REMARK    2  A    between atoms: C_7  and  C_8
REMARK                            x       y       z     vdW  Elec       q    Type
REMARK                         _______ _______ _______ _____ _____    ______ ____
ROOT
ATOM      1  C   UNL     1      -0.117  -2.663   0.015  0.00  0.00    +0.000 C 
ATOM      2  C   UNL     1       0.792  -3.635  -0.165  0.00  0.00    +0.000 C 
ENDROOT
BRANCH   2   3
ATOM      3  C   UNL     1       0.422  -5.013  -0.173  0.00  0.00    +0.000 A 
ATOM      4  C   UNL     1      -0.593  -5.705  -0.810  0.00  0.00    +0.000 A 
ATOM      5  C   UNL     1      -0.605  -7.099  -0.536  0.00  0.00    +0.000 A 
ATOM      6  C   UNL     1       0.425  -7.458   0.301  0.00  0.00    +0.000 A 
ATOM      7  S   UNL     1       1.396  -6.122   0.732  0.00  0.00    +0.000 S 
ATOM      8 BR   UNL     1      -1.878  -4.982  -2.001  0.00  0.00    +0.000 Br
ENDBRANCH   2   3
BRANCH   1  12
ATOM      9  C   UNL     1       1.361   0.784   0.003  0.00  0.00    +0.000 A 
ATOM     10  C   UNL     1       0.065   1.198   0.195  0.00  0.00    +0.000 A 
ATOM     11  S   UNL     1      -1.022  -0.115   0.269  0.00  0.00    +0.000 S 
ATOM     12  C   UNL     1       0.236  -1.279   0.043  0.00  0.00    +0.000 A 
ATOM     13  C   UNL     1       1.458  -0.637  -0.084  0.00  0.00    +0.000 A 
ENDBRANCH   1  12
TORSDOF 2
