MODEL 1
REMARK VINA RESULT:      -4.5      0.000      0.000
REMARK  Name = *****
REMARK  5 active torsions:
REMARK  status: ('A' for Active; 'I' for Inactive)
REMARK    1  A    between atoms: C_1  and  C_2
REMARK    2  A    between atoms: C_2  and  C_3
REMARK    3  A    between atoms: C_2  and  O_9
REMARK    4  A    between atoms: O_9  and  C_10
REMARK    5  A    between atoms: C_10  and  C_11
REMARK                            x       y       z     vdW  Elec       q    Type
REMARK                         _______ _______ _______ _____ _____    ______ ____
ROOT
ATOM      1  O   UNL     1     103.440 125.213  80.093  0.00  0.00    +0.000 OA
ENDROOT
BRANCH   1   3
ATOM      2  C   UNL     1     105.878 125.420  80.170  0.00  0.00    +0.000 C 
ATOM      3  C   UNL     1     104.674 124.480  80.074  0.00  0.00    +0.000 C 
BRANCH   3   4
ATOM      4  C   UNL     1     104.626 123.310  81.045  0.00  0.00    +0.000 A 
ATOM      5  C   UNL     1     104.705 121.970  80.640  0.00  0.00    +0.000 A 
ATOM      6  C   UNL     1     104.649 120.935  81.579  0.00  0.00    +0.000 A 
ATOM      7  C   UNL     1     104.511 121.223  82.935  0.00  0.00    +0.000 A 
ATOM      8  C   UNL     1     104.425 122.547  83.355  0.00  0.00    +0.000 A 
ATOM      9  C   UNL     1     104.480 123.580  82.419  0.00  0.00    +0.000 A 
ENDBRANCH   3   4
ENDBRANCH   1   3
BRANCH   1  10
ATOM     10  C   UNL     1     103.573 126.614  80.309  0.00  0.00    +0.000 C 
BRANCH  10  11
ATOM     11  C   UNL     1     102.817 126.960  81.566  0.00  0.00    +0.000 A 
ATOM     12  C   UNL     1     103.123 128.130  82.278  0.00  0.00    +0.000 A 
ATOM     13  C   UNL     1     102.438 128.444  83.454  0.00  0.00    +0.000 A 
ATOM     14  C   UNL     1     101.451 127.583  83.929  0.00  0.00    +0.000 A 
ATOM     15  C   UNL     1     101.146 126.410  83.242  0.00  0.00    +0.000 A 
ATOM     16  C   UNL     1     101.831 126.097  82.066  0.00  0.00    +0.000 A 
ATOM     17 CL   UNL     1     100.607 127.968  85.378  0.00  0.00    +0.000 Cl
ENDBRANCH  10  11
ENDBRANCH   1  10
TORSDOF 4
ENDMDL
