MODEL 1
REMARK VINA RESULT:      -4.6      0.000      0.000
REMARK  Name = *****
REMARK  4 active torsions:
REMARK  status: ('A' for Active; 'I' for Inactive)
REMARK    1  A    between atoms: C_4  and  C_7
REMARK    2  A    between atoms: C_7  and  C_9
REMARK    3  A    between atoms: C_9  and  C_10
REMARK    4  A    between atoms: C_10  and  C_11
REMARK                            x       y       z     vdW  Elec       q    Type
REMARK                         _______ _______ _______ _____ _____    ______ ____
ROOT
ATOM      1  C   UNL     1     100.340 126.521  83.292  0.00  0.00    +0.000 C 
ENDROOT
BRANCH   1   2
ATOM      2  C   UNL     1      99.189 127.459  82.979  0.00  0.00    +0.000 C 
ATOM      3  O   UNL     1      98.390 127.235  82.071  0.00  0.00    +0.000 OA
BRANCH   2   7
ATOM      4  C   UNL     1      98.747 131.041  85.309  0.00  0.00    +0.000 A 
ATOM      5  C   UNL     1      98.299 129.828  85.829  0.00  0.00    +0.000 A 
ATOM      6  C   UNL     1      98.433 128.651  85.086  0.00  0.00    +0.000 A 
ATOM      7  C   UNL     1      99.020 128.686  83.815  0.00  0.00    +0.000 A 
ATOM      8  C   UNL     1      99.464 129.911  83.298  0.00  0.00    +0.000 A 
ATOM      9  C   UNL     1      99.330 131.084  84.044  0.00  0.00    +0.000 A 
ENDBRANCH   2   7
ENDBRANCH   1   2
BRANCH   1  10
ATOM     10  C   UNL     1     101.413 126.564  82.202  0.00  0.00    +0.000 C 
BRANCH  10  11
ATOM     11  C   UNL     1     102.510 127.550  82.539  0.00  0.00    +0.000 A 
ATOM     12  C   UNL     1     102.562 128.086  83.838  0.00  0.00    +0.000 A 
ATOM     13  C   UNL     1     103.545 129.011  84.193  0.00  0.00    +0.000 A 
ATOM     14  C   UNL     1     104.489 129.418  83.256  0.00  0.00    +0.000 A 
ATOM     15  C   UNL     1     104.450 128.902  81.961  0.00  0.00    +0.000 A 
ATOM     16  C   UNL     1     103.466 127.976  81.602  0.00  0.00    +0.000 A 
ATOM     17 CL   UNL     1     103.474 127.394  79.974  0.00  0.00    +0.000 Cl
ENDBRANCH  10  11
ENDBRANCH   1  10
TORSDOF 4
ENDMDL
