MODEL 1
REMARK VINA RESULT:      -4.5      0.000      0.000
REMARK  Name = *****
REMARK  4 active torsions:
REMARK  status: ('A' for Active; 'I' for Inactive)
REMARK    1  A    between atoms: C_1  and  C_2
REMARK    2  A    between atoms: C_3  and  C_9
REMARK    3  A    between atoms: N_11  and  C_12
REMARK    4  A    between atoms: N_11  and  C_13
REMARK                            x       y       z     vdW  Elec       q    Type
REMARK                         _______ _______ _______ _____ _____    ______ ____
ROOT
ATOM      1  C   UNL     1      87.463  64.063  87.614  0.00  0.00    +0.000 C 
ATOM      2  O   UNL     1      86.467  63.892  86.916  0.00  0.00    +0.000 OA
ATOM      3  N   UNL     1      87.682  63.604  88.928  0.00  0.00    +0.000 N 
ATOM      4  C   UNL     1      88.961  63.831  89.610  0.00  0.00    +0.000 C 
ENDROOT
BRANCH   1   7
ATOM      5  C   UNL     1      87.635  67.029  87.822  0.00  0.00    +0.000 C 
ATOM      6  C   UNL     1      88.638  66.221  87.043  0.00  0.00    +0.000 A 
ATOM      7  C   UNL     1      88.548  64.818  86.951  0.00  0.00    +0.000 A 
ATOM      8  C   UNL     1      89.504  64.064  86.255  0.00  0.00    +0.000 A 
ATOM      9  C   UNL     1      90.551  64.705  85.601  0.00  0.00    +0.000 A 
ATOM     10  C   UNL     1      90.641  66.095  85.648  0.00  0.00    +0.000 A 
ATOM     11  C   UNL     1      89.696  66.845  86.361  0.00  0.00    +0.000 A 
ATOM     12 CL   UNL     1      89.880  68.564  86.354  0.00  0.00    +0.000 Cl
ENDBRANCH   1   7
BRANCH   3  13
ATOM     13  C   UNL     1      86.690  62.825  89.639  0.00  0.00    +0.000 A 
ATOM     14  C   UNL     1      86.318  61.535  89.237  0.00  0.00    +0.000 A 
ATOM     15  C   UNL     1      85.347  60.798  89.928  0.00  0.00    +0.000 A 
ATOM     16  C   UNL     1      84.720  61.340  91.043  0.00  0.00    +0.000 A 
ATOM     17  C   UNL     1      85.063  62.618  91.465  0.00  0.00    +0.000 A 
ATOM     18  C   UNL     1      86.034  63.351  90.769  0.00  0.00    +0.000 A 
ENDBRANCH   3  13
TORSDOF 2
ENDMDL
