REMARK  Name = *****
REMARK  3 active torsions:
REMARK  status: ('A' for Active; 'I' for Inactive)
REMARK    1  A    between atoms: C_1  and  C_2
REMARK    2  A    between atoms: C_5  and  N_8
REMARK    3  A    between atoms: C_9  and  C_10
REMARK                            x       y       z     vdW  Elec       q    Type
REMARK                         _______ _______ _______ _____ _____    ______ ____
ROOT
ATOM      1  N   UNL     1      -3.265   0.092   0.287  0.00  0.00    +0.000 NA
ATOM      2  C   UNL     1      -3.905   0.758  -0.622  0.00  0.00    +0.000 C 
ENDROOT
BRANCH   1   7
ATOM      3  C   UNL     1       2.435   0.052  -0.122  0.00  0.00    +0.000 C 
ATOM      4  C   UNL     1       0.937   0.080  -0.043  0.00  0.00    +0.000 A 
ATOM      5  C   UNL     1       0.283   1.116   0.634  0.00  0.00    +0.000 A 
ATOM      6  C   UNL     1      -1.111   1.121   0.740  0.00  0.00    +0.000 A 
ATOM      7  C   UNL     1      -1.868   0.095   0.172  0.00  0.00    +0.000 A 
ATOM      8  C   UNL     1      -1.215  -0.955  -0.477  0.00  0.00    +0.000 A 
ATOM      9  C   UNL     1       0.178  -0.965  -0.584  0.00  0.00    +0.000 A 
ENDBRANCH   1   7
BRANCH   2  10
ATOM     10  C   UNL     1      -5.378   0.844  -0.629  0.00  0.00    +0.000 A 
ATOM     11  C   UNL     1      -6.136   0.192   0.346  0.00  0.00    +0.000 A 
ATOM     12  C   UNL     1      -7.520   0.296   0.305  0.00  0.00    +0.000 A 
ATOM     13  C   UNL     1      -8.158   1.037  -0.685  0.00  0.00    +0.000 A 
ATOM     14  C   UNL     1      -7.399   1.688  -1.658  0.00  0.00    +0.000 A 
ATOM     15  C   UNL     1      -6.006   1.593  -1.632  0.00  0.00    +0.000 A 
ATOM     16  F   UNL     1      -8.256  -0.326   1.235  0.00  0.00    +0.000 F 
ENDBRANCH   2  10
TORSDOF 2
