REMARK  Name = *****
REMARK  4 active torsions:
REMARK  status: ('A' for Active; 'I' for Inactive)
REMARK    1  A    between atoms: C_5  and  C_7
REMARK    2  A    between atoms: C_7  and  O_8
REMARK    3  A    between atoms: O_8  and  C_9
REMARK    4  A    between atoms: C_9  and  C_11
REMARK                            x       y       z     vdW  Elec       q    Type
REMARK                         _______ _______ _______ _____ _____    ______ ____
ROOT
ATOM      1  O   UNL     1      -1.840  -2.386   0.010  0.00  0.00    +0.000 OA
ENDROOT
BRANCH   1   2
ATOM      2  C   UNL     1      -2.582  -3.485  -0.261  0.00  0.00    +0.000 C 
ATOM      3  O   UNL     1      -2.165  -4.626  -0.385  0.00  0.00    +0.000 OA
BRANCH   2   4
ATOM      4  C   UNL     1      -4.019  -3.120  -0.389  0.00  0.00    +0.000 A 
ATOM      5  C   UNL     1      -4.471  -1.795  -0.299  0.00  0.00    +0.000 A 
ATOM      6  C   UNL     1      -5.834  -1.507  -0.429  0.00  0.00    +0.000 A 
ATOM      7  C   UNL     1      -6.745  -2.539  -0.648  0.00  0.00    +0.000 A 
ATOM      8  C   UNL     1      -6.307  -3.859  -0.742  0.00  0.00    +0.000 A 
ATOM      9  C   UNL     1      -4.946  -4.150  -0.613  0.00  0.00    +0.000 A 
ATOM     10 CL   UNL     1      -8.420  -2.181  -0.807  0.00  0.00    +0.000 Cl
ENDBRANCH   2   4
ENDBRANCH   1   2
BRANCH   1  11
ATOM     11  C   UNL     1      -0.427  -2.596   0.121  0.00  0.00    +0.000 C 
BRANCH  11  16
ATOM     12  C   UNL     1       1.192  -3.129  -3.280  0.00  0.00    +0.000 A 
ATOM     13  C   UNL     1       1.441  -1.825  -3.699  0.00  0.00    +0.000 A 
ATOM     14  C   UNL     1       1.083  -0.754  -2.881  0.00  0.00    +0.000 A 
ATOM     15  C   UNL     1       0.480  -0.984  -1.641  0.00  0.00    +0.000 A 
ATOM     16  C   UNL     1       0.237  -2.294  -1.198  0.00  0.00    +0.000 A 
ATOM     17  C   UNL     1       0.591  -3.362  -2.041  0.00  0.00    +0.000 A 
ATOM     18 CL   UNL     1       0.046   0.394  -0.693  0.00  0.00    +0.000 Cl
ENDBRANCH  11  16
ENDBRANCH   1  11
TORSDOF 4
