MODEL 1
REMARK VINA RESULT:      -3.7      0.000      0.000
REMARK  Name = *****
REMARK  3 active torsions:
REMARK  status: ('A' for Active; 'I' for Inactive)
REMARK    1  A    between atoms: C_4  and  O_7
REMARK    2  A    between atoms: O_7  and  C_8
REMARK    3  A    between atoms: C_8  and  C_9
REMARK                            x       y       z     vdW  Elec       q    Type
REMARK                         _______ _______ _______ _____ _____    ______ ____
ROOT
ATOM      1  O   UNL     1     102.524 126.975  83.225  0.00  0.00    +0.000 OA
ENDROOT
BRANCH   1   5
ATOM      2  C   UNL     1      98.606 128.352  82.918  0.00  0.00    +0.000 A 
ATOM      3  C   UNL     1      98.985 127.099  82.444  0.00  0.00    +0.000 A 
ATOM      4  C   UNL     1     100.311 126.680  82.571  0.00  0.00    +0.000 A 
ATOM      5  C   UNL     1     101.267 127.508  83.168  0.00  0.00    +0.000 A 
ATOM      6  C   UNL     1     100.880 128.763  83.642  0.00  0.00    +0.000 A 
ATOM      7  C   UNL     1      99.552 129.182  83.515  0.00  0.00    +0.000 A 
ENDBRANCH   1   5
BRANCH   1   8
ATOM      8  C   UNL     1     102.624 125.557  83.370  0.00  0.00    +0.000 C 
BRANCH   8   9
ATOM      9  C   UNL     1     103.446 124.970  82.256  0.00  0.00    +0.000 A 
ATOM     10  C   UNL     1     104.262 123.859  82.371  0.00  0.00    +0.000 A 
ATOM     11  S   UNL     1     105.066 123.469  80.913  0.00  0.00    +0.000 S 
ATOM     12  C   UNL     1     104.332 124.778  80.097  0.00  0.00    +0.000 A 
ATOM     13  C   UNL     1     103.497 125.497  80.921  0.00  0.00    +0.000 A 
ENDBRANCH   8   9
ENDBRANCH   1   8
TORSDOF 3
ENDMDL
