MODEL 1
REMARK VINA RESULT:      -3.8      0.000      0.000
REMARK  Name = *****
REMARK  3 active torsions:
REMARK  status: ('A' for Active; 'I' for Inactive)
REMARK    1  A    between atoms: C_4  and  C_7
REMARK    2  A    between atoms: C_7  and  S_8
REMARK    3  A    between atoms: S_8  and  C_9
REMARK                            x       y       z     vdW  Elec       q    Type
REMARK                         _______ _______ _______ _____ _____    ______ ____
ROOT
ATOM      1  C   UNL     1     102.715 127.672  83.176  0.00  0.00    +0.000 C 
ENDROOT
BRANCH   1   5
ATOM      2  C   UNL     1      98.418 127.951  82.893  0.00  0.00    +0.000 A 
ATOM      3  C   UNL     1      99.076 126.823  82.410  0.00  0.00    +0.000 A 
ATOM      4  C   UNL     1     100.466 126.730  82.501  0.00  0.00    +0.000 A 
ATOM      5  C   UNL     1     101.212 127.766  83.085  0.00  0.00    +0.000 A 
ATOM      6  C   UNL     1     100.538 128.901  83.559  0.00  0.00    +0.000 A 
ATOM      7  C   UNL     1      99.148 128.991  83.467  0.00  0.00    +0.000 A 
ENDBRANCH   1   5
BRANCH   1   8
ATOM      8  S   UNL     1     103.481 127.639  81.528  0.00  0.00    +0.000 S 
BRANCH   8   9
ATOM      9  C   UNL     1     103.909 125.941  81.390  0.00  0.00    +0.000 A 
ATOM     10  C   UNL     1     104.287 125.315  80.221  0.00  0.00    +0.000 A 
ATOM     11  C   UNL     1     104.592 123.936  80.418  0.00  0.00    +0.000 A 
ATOM     12  C   UNL     1     104.447 123.560  81.735  0.00  0.00    +0.000 A 
ATOM     13  S   UNL     1     103.954 124.868  82.721  0.00  0.00    +0.000 S 
ENDBRANCH   8   9
ENDBRANCH   1   8
TORSDOF 3
ENDMDL
