REMARK  Name = *****
REMARK  2 active torsions:
REMARK  status: ('A' for Active; 'I' for Inactive)
REMARK    1  A    between atoms: C_3  and  C_9
REMARK    2  A    between atoms: N_10  and  C_11
REMARK                            x       y       z     vdW  Elec       q    Type
REMARK                         _______ _______ _______ _____ _____    ______ ____
ROOT
ATOM      1  C   UNL     1      -2.458   2.733   0.347  0.00  0.00    +0.000 C 
ATOM      2  N   UNL     1      -1.906   3.746  -0.245  0.00  0.00    +0.000 NA
ENDROOT
BRANCH   1   5
ATOM      3  C   UNL     1      -2.352   0.013  -2.275  0.00  0.00    +0.000 A 
ATOM      4  C   UNL     1      -2.180   1.252  -1.651  0.00  0.00    +0.000 A 
ATOM      5  C   UNL     1      -2.626   1.440  -0.336  0.00  0.00    +0.000 A 
ATOM      6  C   UNL     1      -3.239   0.394   0.347  0.00  0.00    +0.000 A 
ATOM      7  C   UNL     1      -3.407  -0.835  -0.280  0.00  0.00    +0.000 A 
ATOM      8  C   UNL     1      -2.968  -1.034  -1.587  0.00  0.00    +0.000 A 
ATOM      9  F   UNL     1      -3.997  -1.846   0.372  0.00  0.00    +0.000 F 
ATOM     10  F   UNL     1      -3.671   0.561   1.607  0.00  0.00    +0.000 F 
ENDBRANCH   1   5
BRANCH   2  11
ATOM     11  C   UNL     1      -1.804   4.922   0.510  0.00  0.00    +0.000 A 
ATOM     12  C   UNL     1      -0.611   5.230   1.166  0.00  0.00    +0.000 A 
ATOM     13  C   UNL     1      -0.507   6.410   1.896  0.00  0.00    +0.000 A 
ATOM     14  C   UNL     1      -1.568   7.300   1.978  0.00  0.00    +0.000 A 
ATOM     15  C   UNL     1      -2.746   6.994   1.310  0.00  0.00    +0.000 A 
ATOM     16  C   UNL     1      -2.873   5.820   0.575  0.00  0.00    +0.000 A 
ATOM     17  F   UNL     1      -3.778   7.845   1.374  0.00  0.00    +0.000 F 
ATOM     18  F   UNL     1       0.640   6.694   2.528  0.00  0.00    +0.000 F 
ENDBRANCH   2  11
TORSDOF 2
