MODEL 1
REMARK VINA RESULT:      -4.3      0.000      0.000
REMARK  Name = *****
REMARK  3 active torsions:
REMARK  status: ('A' for Active; 'I' for Inactive)
REMARK    1  A    between atoms: C_1  and  C_2
REMARK    2  A    between atoms: C_5  and  C_7
REMARK    3  A    between atoms: C_8  and  C_9
REMARK                            x       y       z     vdW  Elec       q    Type
REMARK                         _______ _______ _______ _____ _____    ______ ____
ROOT
ATOM      1  C   UNL     1     103.064 126.334  81.264  0.00  0.00    +0.000 C 
ATOM      2  C   UNL     1     102.039 126.010  82.071  0.00  0.00    +0.000 C 
ENDROOT
BRANCH   1   7
ATOM      3  C   UNL     1     106.021 122.013  80.874  0.00  0.00    +0.000 C 
ATOM      4  C   UNL     1     105.348 123.319  80.663  0.00  0.00    +0.000 A 
ATOM      5  C   UNL     1     105.485 124.219  79.629  0.00  0.00    +0.000 A 
ATOM      6  N   UNL     1     104.713 125.359  79.721  0.00  0.00    +0.000 NA
ATOM      7  C   UNL     1     103.982 125.338  80.820  0.00  0.00    +0.000 A 
ATOM      8  S   UNL     1     104.211 123.919  81.791  0.00  0.00    +0.000 S 
ENDBRANCH   1   7
BRANCH   2   9
ATOM      9  C   UNL     1     101.056 126.977  82.582  0.00  0.00    +0.000 A 
ATOM     10  C   UNL     1     101.433 128.145  83.257  0.00  0.00    +0.000 A 
ATOM     11  C   UNL     1     100.467 129.052  83.702  0.00  0.00    +0.000 A 
ATOM     12  C   UNL     1      99.116 128.805  83.466  0.00  0.00    +0.000 A 
ATOM     13  C   UNL     1      98.730 127.655  82.781  0.00  0.00    +0.000 A 
ATOM     14  C   UNL     1      99.696 126.748  82.337  0.00  0.00    +0.000 A 
ENDBRANCH   2   9
TORSDOF 2
ENDMDL
