REMARK  Name = *****
REMARK  1 active torsions:
REMARK  status: ('A' for Active; 'I' for Inactive)
REMARK    1  A    between atoms: C_5  and  C_6
REMARK                            x       y       z     vdW  Elec       q    Type
REMARK                         _______ _______ _______ _____ _____    ______ ____
ROOT
ATOM      1  C   UNL     1       1.986   0.839   0.875  0.00  0.00    +0.000 C 
ATOM      2  C   UNL     1       1.215   1.112  -0.434  0.00  0.00    +0.000 C 
ATOM      3  C   UNL     1       1.676  -0.079  -1.292  0.00  0.00    +0.000 C 
ATOM      4  C   UNL     1       1.213  -1.158  -0.290  0.00  0.00    +0.000 C 
ATOM      5  C   UNL     1       1.950  -0.726   1.013  0.00  0.00    +0.000 C 
ATOM      6  C   UNL     1      -0.227  -0.708  -0.150  0.00  0.00    +0.000 A 
ATOM      7  C   UNL     1      -1.389  -1.416   0.068  0.00  0.00    +0.000 A 
ATOM      8  C   UNL     1      -2.571  -0.682   0.196  0.00  0.00    +0.000 A 
ATOM      9  C   UNL     1      -2.565   0.726   0.117  0.00  0.00    +0.000 A 
ATOM     10  C   UNL     1      -1.377   1.431  -0.093  0.00  0.00    +0.000 A 
ATOM     11  C   UNL     1      -0.221   0.696  -0.228  0.00  0.00    +0.000 A 
ENDROOT
BRANCH   5  12
ATOM     12  C   UNL     1       3.331  -1.300   1.269  0.00  0.00    +0.000 A 
ATOM     13  C   UNL     1       4.022  -2.098   0.347  0.00  0.00    +0.000 A 
ATOM     14  C   UNL     1       5.292  -2.600   0.646  0.00  0.00    +0.000 A 
ATOM     15  C   UNL     1       5.890  -2.314   1.871  0.00  0.00    +0.000 A 
ATOM     16  C   UNL     1       5.217  -1.527   2.801  0.00  0.00    +0.000 A 
ATOM     17  C   UNL     1       3.949  -1.026   2.502  0.00  0.00    +0.000 A 
ENDBRANCH   5  12
TORSDOF 1
