REMARK  Name = *****
REMARK  2 active torsions:
REMARK  status: ('A' for Active; 'I' for Inactive)
REMARK    1  A    between atoms: C_6  and  C_7
REMARK    2  A    between atoms: N_8  and  C_9
REMARK                            x       y       z     vdW  Elec       q    Type
REMARK                         _______ _______ _______ _____ _____    ______ ____
ROOT
ATOM      1  C   UNL     1      -3.474   0.215  -0.154  0.00  0.00    +0.000 C 
ATOM      2  N   UNL     1      -4.143   1.197   0.363  0.00  0.00    +0.000 NA
ENDROOT
BRANCH   1   8
ATOM      3  C   UNL     1      -1.342  -0.938  -0.659  0.00  0.00    +0.000 A 
ATOM      4  C   UNL     1       0.051  -1.011  -0.603  0.00  0.00    +0.000 A 
ATOM      5  C   UNL     1       0.769   0.004   0.023  0.00  0.00    +0.000 A 
ATOM      6  C   UNL     1       0.122   1.095   0.595  0.00  0.00    +0.000 A 
ATOM      7  C   UNL     1      -1.271   1.173   0.542  0.00  0.00    +0.000 A 
ATOM      8  C   UNL     1      -2.000   0.155  -0.085  0.00  0.00    +0.000 A 
ATOM      9  F   UNL     1       2.105  -0.070   0.073  0.00  0.00    +0.000 F 
ENDBRANCH   1   8
BRANCH   2  10
ATOM     10  C   UNL     1      -5.535   1.128   0.226  0.00  0.00    +0.000 A 
ATOM     11  C   UNL     1      -6.308   0.470   1.187  0.00  0.00    +0.000 A 
ATOM     12  C   UNL     1      -7.698   0.415   1.060  0.00  0.00    +0.000 A 
ATOM     13  C   UNL     1      -8.316   1.031  -0.028  0.00  0.00    +0.000 A 
ATOM     14  C   UNL     1      -7.557   1.704  -0.983  0.00  0.00    +0.000 A 
ATOM     15  C   UNL     1      -6.167   1.755  -0.851  0.00  0.00    +0.000 A 
ATOM     16 CL   UNL     1     -10.028   0.964  -0.188  0.00  0.00    +0.000 Cl
ENDBRANCH   2  10
TORSDOF 2
