MODEL 1
REMARK VINA RESULT:      -4.3      0.000      0.000
REMARK  Name = *****
REMARK  3 active torsions:
REMARK  status: ('A' for Active; 'I' for Inactive)
REMARK    1  A    between atoms: C_1  and  C_2
REMARK    2  A    between atoms: C_2  and  C_10
REMARK    3  A    between atoms: C_3  and  C_4
REMARK                            x       y       z     vdW  Elec       q    Type
REMARK                         _______ _______ _______ _____ _____    ______ ____
ROOT
ATOM      1  C   UNL     1     103.258 127.286  80.727  0.00  0.00    +0.000 C 
ATOM      2  C   UNL     1     102.899 125.985  81.414  0.00  0.00    +0.000 C 
ATOM      3  C   UNL     1     101.868 125.875  82.281  0.00  0.00    +0.000 C 
ENDROOT
BRANCH   3   4
ATOM      4  C   UNL     1     100.963 126.959  82.670  0.00  0.00    +0.000 A 
ATOM      5  C   UNL     1     101.453 128.069  83.365  0.00  0.00    +0.000 A 
ATOM      6  C   UNL     1     100.588 129.099  83.737  0.00  0.00    +0.000 A 
ATOM      7  C   UNL     1      99.233 129.023  83.417  0.00  0.00    +0.000 A 
ATOM      8  C   UNL     1      98.740 127.916  82.726  0.00  0.00    +0.000 A 
ATOM      9  C   UNL     1      99.604 126.884  82.353  0.00  0.00    +0.000 A 
ENDBRANCH   3   4
BRANCH   2  10
ATOM     10  C   UNL     1     103.742 124.760  81.110  0.00  0.00    +0.000 C 
ATOM     11  S   UNL     1     104.448 124.048  82.627  0.00  0.00    +0.000 S 
ATOM     12  C   UNL     1     106.109 123.761  81.967  0.00  0.00    +0.000 C 
ATOM     13  C   UNL     1     106.444 124.912  81.041  0.00  0.00    +0.000 C 
ATOM     14  S   UNL     1     105.052 125.123  79.904  0.00  0.00    +0.000 S 
ENDBRANCH   2  10
TORSDOF 2
ENDMDL
