MODEL 1
REMARK VINA RESULT:      -4.7      0.000      0.000
REMARK  Name = *****
REMARK  4 active torsions:
REMARK  status: ('A' for Active; 'I' for Inactive)
REMARK    1  A    between atoms: C_1  and  N_2
REMARK    2  A    between atoms: N_2  and  C_3
REMARK    3  A    between atoms: N_2  and  C_9
REMARK    4  A    between atoms: C_9  and  C_11
REMARK                            x       y       z     vdW  Elec       q    Type
REMARK                         _______ _______ _______ _____ _____    ______ ____
ROOT
ATOM      1  C   UNL     1      89.606  70.699  85.987  0.00  0.00    +0.000 C 
ATOM      2  N   UNL     1      88.772  69.959  86.944  0.00  0.00    +0.000 N 
ENDROOT
BRANCH   2   3
ATOM      3  C   UNL     1      88.878  68.540  86.877  0.00  0.00    +0.000 A 
ATOM      4  C   UNL     1      87.870  67.685  87.358  0.00  0.00    +0.000 A 
ATOM      5  C   UNL     1      87.981  66.291  87.268  0.00  0.00    +0.000 A 
ATOM      6  C   UNL     1      89.107  65.714  86.692  0.00  0.00    +0.000 A 
ATOM      7  C   UNL     1      90.120  66.531  86.207  0.00  0.00    +0.000 A 
ATOM      8  C   UNL     1      90.004  67.922  86.299  0.00  0.00    +0.000 A 
ENDBRANCH   2   3
BRANCH   2   9
ATOM      9  C   UNL     1      88.020  70.633  87.914  0.00  0.00    +0.000 C 
ATOM     10  C   UNL     1      88.396  70.796  89.195  0.00  0.00    +0.000 C 
BRANCH   9  11
ATOM     11  C   UNL     1      86.729  71.235  87.495  0.00  0.00    +0.000 A 
ATOM     12  C   UNL     1      85.815  71.664  88.469  0.00  0.00    +0.000 A 
ATOM     13  C   UNL     1      84.599  72.241  88.100  0.00  0.00    +0.000 A 
ATOM     14  C   UNL     1      84.283  72.395  86.751  0.00  0.00    +0.000 A 
ATOM     15  C   UNL     1      85.183  71.977  85.773  0.00  0.00    +0.000 A 
ATOM     16  C   UNL     1      86.400  71.400  86.142  0.00  0.00    +0.000 A 
ENDBRANCH   9  11
ENDBRANCH   2   9
TORSDOF 3
ENDMDL
