MODEL 1
REMARK VINA RESULT:      -4.2      0.000      0.000
REMARK  Name = *****
REMARK  4 active torsions:
REMARK  status: ('A' for Active; 'I' for Inactive)
REMARK    1  A    between atoms: C_1  and  C_2
REMARK    2  A    between atoms: C_5  and  C_8
REMARK    3  A    between atoms: C_8  and  S_9
REMARK    4  A    between atoms: S_9  and  C_11
REMARK                            x       y       z     vdW  Elec       q    Type
REMARK                         _______ _______ _______ _____ _____    ______ ____
ROOT
ATOM      1  C   UNL     1     102.882 125.664  81.850  0.00  0.00    +0.000 C 
ENDROOT
BRANCH   1   6
ATOM      2  C   UNL     1      99.269 129.667  84.057  0.00  0.00    +0.000 C 
ATOM      3  C   UNL     1     100.190 128.631  83.485  0.00  0.00    +0.000 A 
ATOM      4  C   UNL     1      99.686 127.469  82.890  0.00  0.00    +0.000 A 
ATOM      5  C   UNL     1     100.554 126.510  82.362  0.00  0.00    +0.000 A 
ATOM      6  C   UNL     1     101.942 126.692  82.426  0.00  0.00    +0.000 A 
ATOM      7  C   UNL     1     102.443 127.858  83.019  0.00  0.00    +0.000 A 
ATOM      8  C   UNL     1     101.575 128.817  83.545  0.00  0.00    +0.000 A 
ENDBRANCH   1   6
BRANCH   1   9
ATOM      9  S   UNL     1     103.963 124.938  83.124  0.00  0.00    +0.000 S 
ATOM     10  O   UNL     1     103.117 124.491  84.282  0.00  0.00    +0.000 OA
BRANCH   9  11
ATOM     11  C   UNL     1     104.431 123.490  82.267  0.00  0.00    +0.000 A 
ATOM     12  C   UNL     1     104.589 123.426  80.900  0.00  0.00    +0.000 A 
ATOM     13  C   UNL     1     104.954 122.115  80.471  0.00  0.00    +0.000 A 
ATOM     14  C   UNL     1     105.043 121.233  81.527  0.00  0.00    +0.000 A 
ATOM     15  S   UNL     1     104.679 121.985  83.022  0.00  0.00    +0.000 S 
ENDBRANCH   9  11
ENDBRANCH   1   9
TORSDOF 3
ENDMDL
