MODEL 1
REMARK VINA RESULT:      -4.5      0.000      0.000
REMARK  Name = *****
REMARK  4 active torsions:
REMARK  status: ('A' for Active; 'I' for Inactive)
REMARK    1  A    between atoms: C_1  and  C_2
REMARK    2  A    between atoms: C_4  and  O_8
REMARK    3  A    between atoms: O_8  and  C_9
REMARK    4  A    between atoms: C_9  and  C_11
REMARK                            x       y       z     vdW  Elec       q    Type
REMARK                         _______ _______ _______ _____ _____    ______ ____
ROOT
ATOM      1  C   UNL     1     101.831 125.956  82.779  0.00  0.00    +0.000 C 
ATOM      2  O   UNL     1     102.281 125.320  83.719  0.00  0.00    +0.000 OA
ENDROOT
BRANCH   1   3
ATOM      3  C   UNL     1     100.874 127.068  82.962  0.00  0.00    +0.000 A 
ATOM      4  C   UNL     1     101.243 128.279  83.549  0.00  0.00    +0.000 A 
ATOM      5  C   UNL     1     100.297 129.293  83.705  0.00  0.00    +0.000 A 
ATOM      6  C   UNL     1      98.979 129.101  83.285  0.00  0.00    +0.000 A 
ATOM      7  C   UNL     1      98.603 127.886  82.713  0.00  0.00    +0.000 A 
ATOM      8  C   UNL     1      99.546 126.870  82.555  0.00  0.00    +0.000 A 
ATOM      9 CL   UNL     1     100.736 130.795  84.428  0.00  0.00    +0.000 Cl
ATOM     10  F   UNL     1     102.494 128.470  83.997  0.00  0.00    +0.000 F 
ENDBRANCH   1   3
BRANCH   1  11
ATOM     11  O   UNL     1     102.032 125.735  81.431  0.00  0.00    +0.000 OA
BRANCH  11  15
ATOM     12  C   UNL     1     106.137 123.965  79.285  0.00  0.00    +0.000 C 
ATOM     13  C   UNL     1     105.349 125.083  79.901  0.00  0.00    +0.000 A 
ATOM     14  C   UNL     1     104.062 124.854  80.402  0.00  0.00    +0.000 A 
ATOM     15  C   UNL     1     103.341 125.909  80.961  0.00  0.00    +0.000 A 
ATOM     16  C   UNL     1     103.857 127.202  80.985  0.00  0.00    +0.000 A 
ATOM     17  C   UNL     1     105.130 127.437  80.471  0.00  0.00    +0.000 A 
ATOM     18  C   UNL     1     105.872 126.384  79.931  0.00  0.00    +0.000 A 
ENDBRANCH  11  15
ENDBRANCH   1  11
TORSDOF 3
ENDMDL
