MODEL 1
REMARK VINA RESULT:      -4.3      0.000      0.000
REMARK  Name = *****
REMARK  2 active torsions:
REMARK  status: ('A' for Active; 'I' for Inactive)
REMARK    1  A    between atoms: C_4  and  C_7
REMARK    2  A    between atoms: N_8  and  C_9
REMARK                            x       y       z     vdW  Elec       q    Type
REMARK                         _______ _______ _______ _____ _____    ______ ____
ROOT
ATOM      1  C   UNL     1      86.754  63.619  88.038  0.00  0.00    +0.000 C 
ATOM      2  N   UNL     1      86.909  64.317  86.952  0.00  0.00    +0.000 NA
ATOM      3 CL   UNL     1      85.665  62.277  87.883  0.00  0.00    +0.000 Cl
ENDROOT
BRANCH   2   4
ATOM      4  C   UNL     1      87.721  65.465  86.943  0.00  0.00    +0.000 A 
ATOM      5  C   UNL     1      89.052  65.435  86.488  0.00  0.00    +0.000 A 
ATOM      6  C   UNL     1      89.825  66.597  86.460  0.00  0.00    +0.000 A 
ATOM      7  C   UNL     1      89.260  67.797  86.871  0.00  0.00    +0.000 A 
ATOM      8  C   UNL     1      87.939  67.860  87.300  0.00  0.00    +0.000 A 
ATOM      9  C   UNL     1      87.169  66.697  87.326  0.00  0.00    +0.000 A 
ATOM     10  F   UNL     1      89.997  68.914  86.847  0.00  0.00    +0.000 F 
ATOM     11 CL   UNL     1      89.785  63.959  85.961  0.00  0.00    +0.000 Cl
ENDBRANCH   2   4
BRANCH   1  15
ATOM     12  C   UNL     1      88.539  64.360  91.839  0.00  0.00    +0.000 A 
ATOM     13  C   UNL     1      87.183  64.628  91.637  0.00  0.00    +0.000 A 
ATOM     14  C   UNL     1      86.601  64.385  90.394  0.00  0.00    +0.000 A 
ATOM     15  C   UNL     1      87.385  63.879  89.352  0.00  0.00    +0.000 A 
ATOM     16  C   UNL     1      88.738  63.595  89.554  0.00  0.00    +0.000 A 
ATOM     17  C   UNL     1      89.315  63.842  90.799  0.00  0.00    +0.000 A 
ENDBRANCH   1  15
TORSDOF 2
ENDMDL
