MODEL 1
REMARK VINA RESULT:      -3.9      0.000      0.000
REMARK  Name = *****
REMARK  4 active torsions:
REMARK  status: ('A' for Active; 'I' for Inactive)
REMARK    1  A    between atoms: C_1  and  C_2
REMARK    2  A    between atoms: C_4  and  O_9
REMARK    3  A    between atoms: O_9  and  C_10
REMARK    4  A    between atoms: C_10  and  C_12
REMARK                            x       y       z     vdW  Elec       q    Type
REMARK                         _______ _______ _______ _____ _____    ______ ____
ROOT
ATOM      1  C   UNL     1     103.690 127.645  80.266  0.00  0.00    +0.000 C 
ATOM      2  C   UNL     1     103.203 127.621  81.685  0.00  0.00    +0.000 A 
ATOM      3  C   UNL     1     101.929 127.126  81.990  0.00  0.00    +0.000 A 
ATOM      4  C   UNL     1     101.485 127.123  83.313  0.00  0.00    +0.000 A 
ATOM      5  C   UNL     1     102.273 127.650  84.338  0.00  0.00    +0.000 A 
ATOM      6  C   UNL     1     103.535 128.159  84.036  0.00  0.00    +0.000 A 
ATOM      7  C   UNL     1     103.996 128.146  82.716  0.00  0.00    +0.000 A 
ATOM      8 CL   UNL     1     101.713 127.707  85.968  0.00  0.00    +0.000 Cl
ENDROOT
BRANCH   4   9
ATOM      9  O   UNL     1     100.196 126.648  83.577  0.00  0.00    +0.000 OA
BRANCH   9  10
ATOM     10  C   UNL     1      99.197 127.442  83.017  0.00  0.00    +0.000 C 
ATOM     11  O   UNL     1      98.558 127.157  82.007  0.00  0.00    +0.000 OA
BRANCH  10  12
ATOM     12  C   UNL     1      99.058 128.653  83.807  0.00  0.00    +0.000 A 
ATOM     13  C   UNL     1      99.463 129.947  83.522  0.00  0.00    +0.000 A 
ATOM     14  C   UNL     1      99.142 130.865  84.565  0.00  0.00    +0.000 A 
ATOM     15  C   UNL     1      98.502 130.246  85.614  0.00  0.00    +0.000 A 
ATOM     16  S   UNL     1      98.292 128.573  85.341  0.00  0.00    +0.000 S 
ENDBRANCH  10  12
ENDBRANCH   9  10
ENDBRANCH   4   9
TORSDOF 3
ENDMDL
