MODEL 1
REMARK VINA RESULT:      -4.5      0.000      0.000
REMARK  Name = *****
REMARK  3 active torsions:
REMARK  status: ('A' for Active; 'I' for Inactive)
REMARK    1  A    between atoms: C_4  and  C_7
REMARK    2  A    between atoms: C_7  and  C_8
REMARK    3  A    between atoms: C_9  and  C_10
REMARK                            x       y       z     vdW  Elec       q    Type
REMARK                         _______ _______ _______ _____ _____    ______ ____
ROOT
ATOM      1  C   UNL     1      88.411  72.338  83.745  0.00  0.00    +0.000 C 
ATOM      2  C   UNL     1      89.499  71.921  84.416  0.00  0.00    +0.000 C 
ATOM      3 CL   UNL     1      88.447  73.941  83.059  0.00  0.00    +0.000 Cl
ENDROOT
BRANCH   2   4
ATOM      4  C   UNL     1      89.628  70.618  85.067  0.00  0.00    +0.000 A 
ATOM      5  C   UNL     1      89.524  70.525  86.459  0.00  0.00    +0.000 A 
ATOM      6  C   UNL     1      89.650  69.286  87.091  0.00  0.00    +0.000 A 
ATOM      7  C   UNL     1      89.874  68.136  86.334  0.00  0.00    +0.000 A 
ATOM      8  C   UNL     1      89.972  68.222  84.946  0.00  0.00    +0.000 A 
ATOM      9  C   UNL     1      89.847  69.460  84.312  0.00  0.00    +0.000 A 
ENDBRANCH   2   4
BRANCH   1  10
ATOM     10  C   UNL     1      87.110  71.598  83.557  0.00  0.00    +0.000 C 
BRANCH  10  14
ATOM     11  C   UNL     1      84.096  72.575  86.492  0.00  0.00    +0.000 A 
ATOM     12  C   UNL     1      85.256  71.908  86.878  0.00  0.00    +0.000 A 
ATOM     13  C   UNL     1      86.232  71.596  85.931  0.00  0.00    +0.000 A 
ATOM     14  C   UNL     1      86.057  71.951  84.585  0.00  0.00    +0.000 A 
ATOM     15  C   UNL     1      84.884  72.620  84.209  0.00  0.00    +0.000 A 
ATOM     16  C   UNL     1      83.909  72.930  85.159  0.00  0.00    +0.000 A 
ENDBRANCH  10  14
ENDBRANCH   1  10
TORSDOF 3
ENDMDL
