MODEL 1
REMARK VINA RESULT:      -4.0      0.000      0.000
REMARK  Name = *****
REMARK  4 active torsions:
REMARK  status: ('A' for Active; 'I' for Inactive)
REMARK    1  A    between atoms: C_1  and  C_2
REMARK    2  A    between atoms: C_5  and  S_8
REMARK    3  A    between atoms: S_8  and  O_10
REMARK    4  A    between atoms: O_10  and  C_11
REMARK                            x       y       z     vdW  Elec       q    Type
REMARK                         _______ _______ _______ _____ _____    ______ ____
ROOT
ATOM      1  S   UNL     1     103.380 125.438  83.983  0.00  0.00    +0.000 S 
ATOM      2  O   UNL     1     102.808 124.485  84.990  0.00  0.00    +0.000 OA
ENDROOT
BRANCH   1   7
ATOM      3  C   UNL     1      99.392 130.057  83.454  0.00  0.00    +0.000 C 
ATOM      4  C   UNL     1     100.378 128.932  83.569  0.00  0.00    +0.000 A 
ATOM      5  C   UNL     1     100.021 127.637  83.175  0.00  0.00    +0.000 A 
ATOM      6  C   UNL     1     100.929 126.582  83.308  0.00  0.00    +0.000 A 
ATOM      7  C   UNL     1     102.199 126.805  83.851  0.00  0.00    +0.000 A 
ATOM      8  C   UNL     1     102.551 128.096  84.257  0.00  0.00    +0.000 A 
ATOM      9  C   UNL     1     101.644 129.150  84.123  0.00  0.00    +0.000 A 
ENDBRANCH   1   7
BRANCH   1  10
ATOM     10  O   UNL     1     103.036 124.879  82.509  0.00  0.00    +0.000 OA
BRANCH  10  11
ATOM     11  C   UNL     1     104.136 124.752  81.621  0.00  0.00    +0.000 C 
ATOM     12  C   UNL     1     105.329 125.580  82.145  0.00  0.00    +0.000 C 
ATOM     13  C   UNL     1     105.630 126.536  80.976  0.00  0.00    +0.000 C 
ATOM     14  C   UNL     1     104.524 127.603  80.916  0.00  0.00    +0.000 C 
ATOM     15  C   UNL     1     103.313 126.816  80.394  0.00  0.00    +0.000 C 
ATOM     16  C   UNL     1     103.874 125.391  80.237  0.00  0.00    +0.000 C 
ATOM     17  C   UNL     1     105.299 125.669  79.761  0.00  0.00    +0.000 C 
ENDBRANCH  10  11
ENDBRANCH   1  10
TORSDOF 3
ENDMDL
