MODEL 1
REMARK VINA RESULT:      -4.4      0.000      0.000
REMARK  Name = *****
REMARK  2 active torsions:
REMARK  status: ('A' for Active; 'I' for Inactive)
REMARK    1  A    between atoms: C_4  and  C_7
REMARK    2  A    between atoms: C_8  and  C_9
REMARK                            x       y       z     vdW  Elec       q    Type
REMARK                         _______ _______ _______ _____ _____    ______ ____
ROOT
ATOM      1  C   UNL     1     102.069 126.280  81.941  0.00  0.00    +0.000 C 
ATOM      2  C   UNL     1     102.943 125.606  81.468  0.00  0.00    +0.000 C 
ENDROOT
BRANCH   1   6
ATOM      3  C   UNL     1      98.985 128.650  83.588  0.00  0.00    +0.000 A 
ATOM      4  C   UNL     1      98.668 127.518  82.838  0.00  0.00    +0.000 A 
ATOM      5  C   UNL     1      99.687 126.735  82.292  0.00  0.00    +0.000 A 
ATOM      6  C   UNL     1     101.024 127.082  82.497  0.00  0.00    +0.000 A 
ATOM      7  C   UNL     1     101.339 128.217  83.250  0.00  0.00    +0.000 A 
ATOM      8  C   UNL     1     100.320 129.000  83.794  0.00  0.00    +0.000 A 
ENDBRANCH   1   6
BRANCH   2   9
ATOM      9  C   UNL     1     103.981 124.809  80.906  0.00  0.00    +0.000 A 
ATOM     10  C   UNL     1     104.408 123.598  81.408  0.00  0.00    +0.000 A 
ATOM     11  S   UNL     1     105.675 122.991  80.418  0.00  0.00    +0.000 S 
ATOM     12  C   UNL     1     105.527 124.376  79.440  0.00  0.00    +0.000 A 
ATOM     13  N   UNL     1     104.621 125.261  79.773  0.00  0.00    +0.000 NA
ATOM     14 CL   UNL     1     106.548 124.570  78.075  0.00  0.00    +0.000 Cl
ENDBRANCH   2   9
TORSDOF 2
ENDMDL
