MODEL 1
REMARK VINA RESULT:      -3.9      0.000      0.000
REMARK  Name = *****
REMARK  5 active torsions:
REMARK  status: ('A' for Active; 'I' for Inactive)
REMARK    1  A    between atoms: C_1  and  C_2
REMARK    2  A    between atoms: C_5  and  C_8
REMARK    3  A    between atoms: C_8  and  C_10
REMARK    4  A    between atoms: C_10  and  S_11
REMARK    5  A    between atoms: S_11  and  C_12
REMARK                            x       y       z     vdW  Elec       q    Type
REMARK                         _______ _______ _______ _____ _____    ______ ____
ROOT
ATOM      1  C   UNL     1      86.247  63.190  86.594  0.00  0.00    +0.000 C 
ATOM      2  O   UNL     1      85.526  63.424  85.624  0.00  0.00    +0.000 OA
ENDROOT
BRANCH   1   7
ATOM      3  C   UNL     1      83.686  60.957  91.309  0.00  0.00    +0.000 C 
ATOM      4  C   UNL     1      84.348  61.503  90.078  0.00  0.00    +0.000 A 
ATOM      5  C   UNL     1      85.678  61.175  89.783  0.00  0.00    +0.000 A 
ATOM      6  C   UNL     1      86.309  61.707  88.654  0.00  0.00    +0.000 A 
ATOM      7  C   UNL     1      85.620  62.589  87.812  0.00  0.00    +0.000 A 
ATOM      8  C   UNL     1      84.293  62.921  88.111  0.00  0.00    +0.000 A 
ATOM      9  C   UNL     1      83.664  62.388  89.240  0.00  0.00    +0.000 A 
ENDBRANCH   1   7
BRANCH   1  10
ATOM     10  C   UNL     1      87.745  63.448  86.622  0.00  0.00    +0.000 C 
BRANCH  10  11
ATOM     11  S   UNL     1      88.145  65.111  87.251  0.00  0.00    +0.000 S 
BRANCH  11  12
ATOM     12  C   UNL     1      87.812  64.850  88.982  0.00  0.00    +0.000 A 
ATOM     13  C   UNL     1      88.708  64.096  89.747  0.00  0.00    +0.000 A 
ATOM     14  C   UNL     1      88.466  63.883  91.106  0.00  0.00    +0.000 A 
ATOM     15  C   UNL     1      87.333  64.428  91.708  0.00  0.00    +0.000 A 
ATOM     16  C   UNL     1      86.444  65.192  90.953  0.00  0.00    +0.000 A 
ATOM     17  C   UNL     1      86.684  65.406  89.594  0.00  0.00    +0.000 A 
ENDBRANCH  11  12
ENDBRANCH  10  11
ENDBRANCH   1  10
TORSDOF 4
ENDMDL
