REMARK  Name = *****
REMARK  3 active torsions:
REMARK  status: ('A' for Active; 'I' for Inactive)
REMARK    1  A    between atoms: C_4  and  S_6
REMARK    2  A    between atoms: S_6  and  C_7
REMARK    3  A    between atoms: C_7  and  C_9
REMARK                            x       y       z     vdW  Elec       q    Type
REMARK                         _______ _______ _______ _____ _____    ______ ____
ROOT
ATOM      1  C   UNL     1       1.432  -3.204   0.643  0.00  0.00    +0.000 C 
ATOM      2  O   UNL     1       2.233  -2.311   0.895  0.00  0.00    +0.000 OA
ENDROOT
BRANCH   1   3
ATOM      3  C   UNL     1       1.881  -4.623   0.536  0.00  0.00    +0.000 A 
ATOM      4  C   UNL     1       1.095  -5.643  -0.018  0.00  0.00    +0.000 A 
ATOM      5  C   UNL     1       1.594  -6.945  -0.084  0.00  0.00    +0.000 A 
ATOM      6  C   UNL     1       2.868  -7.248   0.391  0.00  0.00    +0.000 A 
ATOM      7  C   UNL     1       3.660  -6.239   0.935  0.00  0.00    +0.000 A 
ATOM      8  C   UNL     1       3.170  -4.933   1.003  0.00  0.00    +0.000 A 
ATOM      9 CL   UNL     1       0.623  -8.194  -0.764  0.00  0.00    +0.000 Cl
ENDBRANCH   1   3
BRANCH   1  10
ATOM     10  S   UNL     1      -0.274  -2.839   0.490  0.00  0.00    +0.000 S 
BRANCH  10  14
ATOM     11  C   UNL     1       0.391  -1.879  -3.257  0.00  0.00    +0.000 C 
ATOM     12  C   UNL     1      -0.722  -0.851  -3.132  0.00  0.00    +0.000 C 
ATOM     13  S   UNL     1      -0.794  -0.557  -1.357  0.00  0.00    +0.000 S 
ATOM     14  C   UNL     1      -0.127  -2.139  -1.081  0.00  0.00    +0.000 C 
ATOM     15  N   UNL     1       0.385  -2.776  -2.081  0.00  0.00    +0.000 NA
ENDBRANCH  10  14
ENDBRANCH   1  10
TORSDOF 3
