MODEL 1
REMARK VINA RESULT:      -4.6      0.000      0.000
REMARK  Name = *****
REMARK  2 active torsions:
REMARK  status: ('A' for Active; 'I' for Inactive)
REMARK    1  A    between atoms: C_3  and  C_10
REMARK    2  A    between atoms: C_11  and  C_12
REMARK                            x       y       z     vdW  Elec       q    Type
REMARK                         _______ _______ _______ _____ _____    ______ ____
ROOT
ATOM      1  C   UNL     1     105.529 123.837  79.739  0.00  0.00    +0.000 C 
ATOM      2  C   UNL     1     104.395 124.782  80.122  0.00  0.00    +0.000 C 
ATOM      3  C   UNL     1     104.186 124.763  81.640  0.00  0.00    +0.000 C 
ATOM      4  O   UNL     1     103.925 123.427  82.099  0.00  0.00    +0.000 OA
ATOM      5  C   UNL     1     104.977 122.561  81.814  0.00  0.00    +0.000 C 
ATOM      6  C   UNL     1     105.570 121.862  82.800  0.00  0.00    +0.000 C 
ATOM      7 CL   UNL     1     106.855 120.739  82.519  0.00  0.00    +0.000 Cl
ATOM      8 CL   UNL     1     105.085 122.062  84.454  0.00  0.00    +0.000 Cl
ATOM      9  C   UNL     1     105.302 122.454  80.343  0.00  0.00    +0.000 C 
ENDROOT
BRANCH   3  10
ATOM     10  C   UNL     1     103.049 125.618  82.011  0.00  0.00    +0.000 C 
ATOM     11  C   UNL     1     102.121 126.318  82.314  0.00  0.00    +0.000 C 
BRANCH  11  12
ATOM     12  C   UNL     1     101.017 127.152  82.676  0.00  0.00    +0.000 A 
ATOM     13  C   UNL     1     101.240 128.359  83.340  0.00  0.00    +0.000 A 
ATOM     14  C   UNL     1     100.160 129.173  83.694  0.00  0.00    +0.000 A 
ATOM     15  C   UNL     1      98.859 128.778  83.383  0.00  0.00    +0.000 A 
ATOM     16  C   UNL     1      98.634 127.572  82.720  0.00  0.00    +0.000 A 
ATOM     17  C   UNL     1      99.712 126.759  82.366  0.00  0.00    +0.000 A 
ENDBRANCH  11  12
ENDBRANCH   3  10
TORSDOF 2
ENDMDL
