MODEL 1
REMARK VINA RESULT:      -4.4      0.000      0.000
REMARK  Name = *****
REMARK  4 active torsions:
REMARK  status: ('A' for Active; 'I' for Inactive)
REMARK    1  A    between atoms: C_1  and  C_2
REMARK    2  A    between atoms: C_3  and  N_9
REMARK    3  A    between atoms: N_9  and  S_10
REMARK    4  A    between atoms: S_10  and  N_13
REMARK                            x       y       z     vdW  Elec       q    Type
REMARK                         _______ _______ _______ _____ _____    ______ ____
ROOT
ATOM      1  N   UNL     1     102.371 125.562  81.950  0.00  0.00    +0.000 N 
ATOM      2  H   UNL     1     101.474 125.473  81.554  0.00  0.00    +0.000 HD
ENDROOT
BRANCH   1   5
ATOM      3  C   UNL     1     103.601 127.472  80.065  0.00  0.00    +0.000 C 
ATOM      4  C   UNL     1     104.148 126.093  80.306  0.00  0.00    +0.000 A 
ATOM      5  C   UNL     1     103.558 125.201  81.223  0.00  0.00    +0.000 A 
ATOM      6  C   UNL     1     104.091 123.922  81.402  0.00  0.00    +0.000 A 
ATOM      7  C   UNL     1     105.218 123.530  80.685  0.00  0.00    +0.000 A 
ATOM      8  C   UNL     1     105.819 124.401  79.783  0.00  0.00    +0.000 A 
ATOM      9  C   UNL     1     105.286 125.678  79.596  0.00  0.00    +0.000 A 
ATOM     10 CL   UNL     1     105.870 121.955  80.916  0.00  0.00    +0.000 Cl
ENDBRANCH   1   5
BRANCH   1  11
ATOM     11  S   UNL     1     102.601 126.145  83.520  0.00  0.00    +0.000 S 
ATOM     12  O   UNL     1     102.394 125.026  84.410  0.00  0.00    +0.000 OA
ATOM     13  O   UNL     1     103.827 126.906  83.559  0.00  0.00    +0.000 OA
BRANCH  11  14
ATOM     14  N   UNL     1     101.283 127.199  83.682  0.00  0.00    +0.000 NA
ATOM     15  C   UNL     1     101.657 128.638  83.776  0.00  0.00    +0.000 C 
ATOM     16  C   UNL     1     100.436 129.456  84.189  0.00  0.00    +0.000 C 
ATOM     17  C   UNL     1      99.280 129.252  83.214  0.00  0.00    +0.000 C 
ATOM     18  C   UNL     1      98.973 127.767  83.048  0.00  0.00    +0.000 C 
ATOM     19  C   UNL     1     100.223 126.980  82.661  0.00  0.00    +0.000 C 
ENDBRANCH  11  14
ENDBRANCH   1  11
TORSDOF 3
ENDMDL
