REMARK  Name = *****
REMARK  3 active torsions:
REMARK  status: ('A' for Active; 'I' for Inactive)
REMARK    1  A    between atoms: C_1  and  C_2
REMARK    2  A    between atoms: C_5  and  C_8
REMARK    3  A    between atoms: C_10  and  C_11
REMARK                            x       y       z     vdW  Elec       q    Type
REMARK                         _______ _______ _______ _____ _____    ______ ____
ROOT
ATOM      1  C   UNL     1      -3.226   0.020   0.129  0.00  0.00    +0.000 C 
ATOM      2  C   UNL     1      -4.054   0.556  -0.999  0.00  0.00    +0.000 C 
ATOM      3  C   UNL     1      -4.046   1.290   0.323  0.00  0.00    +0.000 C 
ENDROOT
BRANCH   1   8
ATOM      4  C   UNL     1       2.617  -0.122  -0.097  0.00  0.00    +0.000 C 
ATOM      5  C   UNL     1       1.120  -0.060  -0.053  0.00  0.00    +0.000 A 
ATOM      6  C   UNL     1       0.463   0.406   1.089  0.00  0.00    +0.000 A 
ATOM      7  C   UNL     1      -0.934   0.433   1.140  0.00  0.00    +0.000 A 
ATOM      8  C   UNL     1      -1.719   0.004   0.058  0.00  0.00    +0.000 A 
ATOM      9  C   UNL     1      -1.041  -0.491  -1.068  0.00  0.00    +0.000 A 
ATOM     10  C   UNL     1       0.356  -0.524  -1.126  0.00  0.00    +0.000 A 
ENDBRANCH   1   8
BRANCH   3  11
ATOM     11  C   UNL     1      -3.444   2.693   0.365  0.00  0.00    +0.000 A 
ATOM     12  C   UNL     1      -2.400   3.165  -0.399  0.00  0.00    +0.000 A 
ATOM     13  S   UNL     1      -2.034   4.800  -0.045  0.00  0.00    +0.000 S 
ATOM     14  C   UNL     1      -3.283   4.884   1.122  0.00  0.00    +0.000 A 
ATOM     15  C   UNL     1      -3.961   3.690   1.241  0.00  0.00    +0.000 A 
ENDBRANCH   3  11
TORSDOF 2
