REMARK  Name = *****
REMARK  4 active torsions:
REMARK  status: ('A' for Active; 'I' for Inactive)
REMARK    1  A    between atoms: C_1  and  C_2
REMARK    2  A    between atoms: C_2  and  C_8
REMARK    3  A    between atoms: C_8  and  C_9
REMARK    4  A    between atoms: C_9  and  C_15
REMARK                            x       y       z     vdW  Elec       q    Type
REMARK                         _______ _______ _______ _____ _____    ______ ____
ROOT
ATOM      1  C   UNL     1       3.423   0.488   1.057  0.00  0.00    +0.000 C 
ENDROOT
BRANCH   1   3
ATOM      2  C   UNL     1       1.150   0.662   0.044  0.00  0.00    +0.000 C 
ATOM      3  C   UNL     1       2.563   0.082  -0.193  0.00  0.00    +0.000 C 
ATOM      4  S   UNL     1       3.247   0.776  -1.740  0.00  0.00    +0.000 S 
ATOM      5  C   UNL     1       2.119   0.114  -2.994  0.00  0.00    +0.000 C 
ATOM      6  C   UNL     1       2.071  -1.404  -3.013  0.00  0.00    +0.000 C 
ATOM      7  C   UNL     1       1.442  -2.007  -1.769  0.00  0.00    +0.000 C 
ATOM      8  S   UNL     1       2.431  -1.753  -0.270  0.00  0.00    +0.000 S 
ENDBRANCH   1   3
BRANCH   1   9
ATOM      9  C   UNL     1       4.973   0.328   1.145  0.00  0.00    +0.000 C 
ATOM     10  S   UNL     1       5.484   0.405   2.942  0.00  0.00    +0.000 S 
ATOM     11  C   UNL     1       5.039   2.113   3.363  0.00  0.00    +0.000 C 
ATOM     12  C   UNL     1       5.794   3.146   2.543  0.00  0.00    +0.000 C 
ATOM     13  C   UNL     1       5.460   3.126   1.060  0.00  0.00    +0.000 C 
ATOM     14  S   UNL     1       5.973   1.595   0.238  0.00  0.00    +0.000 S 
ATOM     15  C   UNL     1       5.494  -1.035   0.666  0.00  0.00    +0.000 C 
ENDBRANCH   1   9
TORSDOF 2
