MODEL 1
REMARK VINA RESULT:      -5.0      0.000      0.000
REMARK  Name = *****
REMARK  4 active torsions:
REMARK  status: ('A' for Active; 'I' for Inactive)
REMARK    1  A    between atoms: C_1  and  C_2
REMARK    2  A    between atoms: C_4  and  C_8
REMARK    3  A    between atoms: C_9  and  C_10
REMARK    4  A    between atoms: C_14  and  C_16
REMARK                            x       y       z     vdW  Elec       q    Type
REMARK                         _______ _______ _______ _____ _____    ______ ____
ROOT
ATOM      1  C   UNL     1     102.106 126.313  81.911  0.00  0.00    +0.000 C 
ATOM      2  C   UNL     1     102.979 125.651  81.419  0.00  0.00    +0.000 C 
ENDROOT
BRANCH   1   6
ATOM      3  C   UNL     1     100.722 130.294  84.542  0.00  0.00    +0.000 C 
ATOM      4  C   UNL     1     100.379 129.036  83.800  0.00  0.00    +0.000 A 
ATOM      5  C   UNL     1     101.388 128.259  83.215  0.00  0.00    +0.000 A 
ATOM      6  C   UNL     1     101.067 127.104  82.496  0.00  0.00    +0.000 A 
ATOM      7  C   UNL     1      99.733 126.725  82.348  0.00  0.00    +0.000 A 
ATOM      8  C   UNL     1      98.721 127.501  82.913  0.00  0.00    +0.000 A 
ATOM      9  C   UNL     1      99.042 128.655  83.632  0.00  0.00    +0.000 A 
ENDBRANCH   1   6
BRANCH   2  10
ATOM     10  C   UNL     1     104.019 124.864  80.833  0.00  0.00    +0.000 A 
ATOM     11  C   UNL     1     104.787 125.386  79.790  0.00  0.00    +0.000 A 
ATOM     12  C   UNL     1     105.808 124.620  79.226  0.00  0.00    +0.000 A 
ATOM     13  C   UNL     1     106.060 123.332  79.700  0.00  0.00    +0.000 A 
ATOM     14  C   UNL     1     105.286 122.792  80.735  0.00  0.00    +0.000 A 
ATOM     15  C   UNL     1     104.272 123.573  81.306  0.00  0.00    +0.000 A 
ATOM     16  C   UNL     1     105.579 121.421  81.270  0.00  0.00    +0.000 C 
ENDBRANCH   2  10
TORSDOF 2
ENDMDL
