MODEL 1
REMARK VINA RESULT:      -4.8      0.000      0.000
REMARK  Name = *****
REMARK  4 active torsions:
REMARK  status: ('A' for Active; 'I' for Inactive)
REMARK    1  A    between atoms: C_1  and  C_2
REMARK    2  A    between atoms: C_2  and  C_4
REMARK    3  A    between atoms: C_9  and  C_10
REMARK    4  A    between atoms: C_11  and  C_12
REMARK                            x       y       z     vdW  Elec       q    Type
REMARK                         _______ _______ _______ _____ _____    ______ ____
ROOT
ATOM      1  C   UNL     1      99.605 128.661  83.652  0.00  0.00    +0.000 A 
ATOM      2  C   UNL     1      98.910 129.755  84.193  0.00  0.00    +0.000 A 
ATOM      3  C   UNL     1      99.613 130.859  84.677  0.00  0.00    +0.000 A 
ATOM      4  C   UNL     1     101.005 130.875  84.624  0.00  0.00    +0.000 A 
ATOM      5  C   UNL     1     101.698 129.787  84.088  0.00  0.00    +0.000 A 
ATOM      6  C   UNL     1     101.005 128.672  83.599  0.00  0.00    +0.000 A 
ENDROOT
BRANCH   1   8
ATOM      7  C   UNL     1      98.494 126.413  84.150  0.00  0.00    +0.000 C 
ATOM      8  C   UNL     1      98.820 127.502  83.161  0.00  0.00    +0.000 C 
ATOM      9  O   UNL     1      98.494 127.428  81.981  0.00  0.00    +0.000 OA
ENDBRANCH   1   8
BRANCH   6  10
ATOM     10  C   UNL     1     101.764 127.600  83.028  0.00  0.00    +0.000 C 
ATOM     11  C   UNL     1     102.410 126.707  82.545  0.00  0.00    +0.000 C 
BRANCH  11  12
ATOM     12  C   UNL     1     103.180 125.647  81.975  0.00  0.00    +0.000 A 
ATOM     13  C   UNL     1     103.508 125.674  80.616  0.00  0.00    +0.000 A 
ATOM     14  C   UNL     1     104.257 124.636  80.058  0.00  0.00    +0.000 A 
ATOM     15  C   UNL     1     104.673 123.582  80.863  0.00  0.00    +0.000 A 
ATOM     16  C   UNL     1     104.355 123.546  82.217  0.00  0.00    +0.000 A 
ATOM     17  C   UNL     1     103.606 124.583  82.776  0.00  0.00    +0.000 A 
ATOM     18  F   UNL     1     105.391 122.586  80.327  0.00  0.00    +0.000 F 
ENDBRANCH  11  12
ENDBRANCH   6  10
TORSDOF 3
ENDMDL
