MODEL 1
REMARK VINA RESULT:      -4.6      0.000      0.000
REMARK  Name = *****
REMARK  5 active torsions:
REMARK  status: ('A' for Active; 'I' for Inactive)
REMARK    1  A    between atoms: C_1  and  C_2
REMARK    2  A    between atoms: C_3  and  C_9
REMARK    3  A    between atoms: C_9  and  O_11
REMARK    4  A    between atoms: O_11  and  C_12
REMARK    5  A    between atoms: C_12  and  C_13
REMARK                            x       y       z     vdW  Elec       q    Type
REMARK                         _______ _______ _______ _____ _____    ______ ____
ROOT
ATOM      1  C   UNL     1     104.560 124.656  80.128  0.00  0.00    +0.000 C 
ATOM      2  O   UNL     1     105.469 125.082  79.430  0.00  0.00    +0.000 OA
ENDROOT
BRANCH   1   5
ATOM      3  C   UNL     1     104.040 124.136  83.420  0.00  0.00    +0.000 C 
ATOM      4  C   UNL     1     104.504 123.262  82.313  0.00  0.00    +0.000 C 
ATOM      5  C   UNL     1     104.710 123.476  80.998  0.00  0.00    +0.000 C 
ATOM      6  C   UNL     1     105.203 122.167  80.406  0.00  0.00    +0.000 C 
ATOM      7  C   UNL     1     106.630 121.918  80.937  0.00  0.00    +0.000 C 
ATOM      8  C   UNL     1     106.395 121.670  82.449  0.00  0.00    +0.000 C 
ATOM      9  C   UNL     1     104.866 121.810  82.583  0.00  0.00    +0.000 C 
ATOM     10  C   UNL     1     104.393 121.192  81.265  0.00  0.00    +0.000 C 
ENDBRANCH   1   5
BRANCH   1  11
ATOM     11  O   UNL     1     103.322 125.183  80.231  0.00  0.00    +0.000 OA
BRANCH  11  12
ATOM     12  C   UNL     1     103.255 126.611  80.303  0.00  0.00    +0.000 C 
BRANCH  12  13
ATOM     13  C   UNL     1     102.671 127.017  81.630  0.00  0.00    +0.000 A 
ATOM     14  C   UNL     1     101.506 126.407  82.114  0.00  0.00    +0.000 A 
ATOM     15  C   UNL     1     100.955 126.802  83.334  0.00  0.00    +0.000 A 
ATOM     16  C   UNL     1     101.558 127.815  84.077  0.00  0.00    +0.000 A 
ATOM     17  C   UNL     1     102.709 128.439  83.598  0.00  0.00    +0.000 A 
ATOM     18  C   UNL     1     103.261 128.045  82.379  0.00  0.00    +0.000 A 
ENDBRANCH  12  13
ENDBRANCH  11  12
ENDBRANCH   1  11
TORSDOF 4
ENDMDL
