MODEL 1
REMARK VINA RESULT:      -4.7      0.000      0.000
REMARK  Name = *****
REMARK  3 active torsions:
REMARK  status: ('A' for Active; 'I' for Inactive)
REMARK    1  A    between atoms: C_3  and  C_8
REMARK    2  A    between atoms: C_8  and  O_10
REMARK    3  A    between atoms: O_10  and  C_11
REMARK                            x       y       z     vdW  Elec       q    Type
REMARK                         _______ _______ _______ _____ _____    ______ ____
ROOT
ATOM      1  C   UNL     1     103.164 126.593  81.739  0.00  0.00    +0.000 C 
ATOM      2  O   UNL     1     103.164 127.240  80.704  0.00  0.00    +0.000 OA
ENDROOT
BRANCH   1   5
ATOM      3  C   UNL     1     104.281 123.316  83.248  0.00  0.00    +0.000 A 
ATOM      4  C   UNL     1     103.772 124.609  83.099  0.00  0.00    +0.000 A 
ATOM      5  C   UNL     1     103.715 125.212  81.831  0.00  0.00    +0.000 A 
ATOM      6  C   UNL     1     104.172 124.505  80.713  0.00  0.00    +0.000 A 
ATOM      7  C   UNL     1     104.676 123.218  80.878  0.00  0.00    +0.000 A 
ATOM      8  C   UNL     1     104.735 122.619  82.130  0.00  0.00    +0.000 A 
ATOM      9  F   UNL     1     105.114 122.545  79.806  0.00  0.00    +0.000 F 
ENDBRANCH   1   5
BRANCH   1  10
ATOM     10  O   UNL     1     102.680 126.985  82.972  0.00  0.00    +0.000 OA
BRANCH  10  11
ATOM     11  C   UNL     1     101.361 127.449  82.935  0.00  0.00    +0.000 A 
ATOM     12  C   UNL     1     101.041 128.695  83.473  0.00  0.00    +0.000 A 
ATOM     13  C   UNL     1      99.711 129.104  83.465  0.00  0.00    +0.000 A 
ATOM     14  C   UNL     1      98.714 128.276  82.943  0.00  0.00    +0.000 A 
ATOM     15  C   UNL     1      99.049 127.022  82.425  0.00  0.00    +0.000 A 
ATOM     16  C   UNL     1     100.379 126.602  82.427  0.00  0.00    +0.000 A 
ATOM     17 CL   UNL     1      99.287 130.641  84.115  0.00  0.00    +0.000 Cl
ENDBRANCH  10  11
ENDBRANCH   1  10
TORSDOF 3
ENDMDL
