MODEL 1
REMARK VINA RESULT:      -4.4      0.000      0.000
REMARK  Name = *****
REMARK  4 active torsions:
REMARK  status: ('A' for Active; 'I' for Inactive)
REMARK    1  A    between atoms: C_4  and  C_7
REMARK    2  A    between atoms: C_7  and  O_8
REMARK    3  A    between atoms: O_8  and  C_9
REMARK    4  A    between atoms: C_9  and  C_10
REMARK                            x       y       z     vdW  Elec       q    Type
REMARK                         _______ _______ _______ _____ _____    ______ ____
ROOT
ATOM      1  O   UNL     1     103.427 125.178  80.059  0.00  0.00    +0.000 OA
ENDROOT
BRANCH   1   2
ATOM      2  C   UNL     1     103.577 126.573  80.314  0.00  0.00    +0.000 C 
BRANCH   2   6
ATOM      3  C   UNL     1     101.417 127.634  83.899  0.00  0.00    +0.000 A 
ATOM      4  C   UNL     1     102.431 128.467  83.429  0.00  0.00    +0.000 A 
ATOM      5  C   UNL     1     103.125 128.135  82.265  0.00  0.00    +0.000 A 
ATOM      6  C   UNL     1     102.807 126.971  81.550  0.00  0.00    +0.000 A 
ATOM      7  C   UNL     1     101.794 126.134  82.042  0.00  0.00    +0.000 A 
ATOM      8  C   UNL     1     101.100 126.467  83.207  0.00  0.00    +0.000 A 
ENDBRANCH   2   6
ENDBRANCH   1   2
BRANCH   1   9
ATOM      9  C   UNL     1     104.684 124.505  80.068  0.00  0.00    +0.000 C 
BRANCH   9  10
ATOM     10  C   UNL     1     104.653 123.369  81.061  0.00  0.00    +0.000 A 
ATOM     11  C   UNL     1     104.482 123.633  82.429  0.00  0.00    +0.000 A 
ATOM     12  C   UNL     1     104.417 122.586  83.352  0.00  0.00    +0.000 A 
ATOM     13  C   UNL     1     104.511 121.267  82.913  0.00  0.00    +0.000 A 
ATOM     14  C   UNL     1     104.667 120.986  81.559  0.00  0.00    +0.000 A 
ATOM     15  C   UNL     1     104.733 122.032  80.636  0.00  0.00    +0.000 A 
ATOM     16 CL   UNL     1     104.430 119.979  84.051  0.00  0.00    +0.000 Cl
ENDBRANCH   9  10
ENDBRANCH   1   9
TORSDOF 4
ENDMDL
