MODEL 1
REMARK VINA RESULT:      -4.9      0.000      0.000
REMARK  Name = *****
REMARK  4 active torsions:
REMARK  status: ('A' for Active; 'I' for Inactive)
REMARK    1  A    between atoms: C_1  and  O_2
REMARK    2  A    between atoms: O_2  and  C_3
REMARK    3  A    between atoms: C_6  and  C_9
REMARK    4  A    between atoms: C_10  and  C_11
REMARK                            x       y       z     vdW  Elec       q    Type
REMARK                         _______ _______ _______ _____ _____    ______ ____
ROOT
ATOM      1  C   UNL     1     102.759 125.519  82.113  0.00  0.00    +0.000 C 
ATOM      2  C   UNL     1     101.917 126.318  82.422  0.00  0.00    +0.000 C 
ENDROOT
BRANCH   2   3
ATOM      3  C   UNL     1     100.937 127.295  82.784  0.00  0.00    +0.000 A 
ATOM      4  C   UNL     1     101.324 128.452  83.466  0.00  0.00    +0.000 A 
ATOM      5  C   UNL     1     100.365 129.399  83.838  0.00  0.00    +0.000 A 
ATOM      6  C   UNL     1      99.018 129.194  83.529  0.00  0.00    +0.000 A 
ATOM      7  C   UNL     1      98.630 128.042  82.846  0.00  0.00    +0.000 A 
ATOM      8  C   UNL     1      99.589 127.101  82.479  0.00  0.00    +0.000 A 
ATOM      9  F   UNL     1      99.190 126.000  81.825  0.00  0.00    +0.000 F 
ENDBRANCH   2   3
BRANCH   1  13
ATOM     10  C   UNL     1     105.746 122.731  81.003  0.00  0.00    +0.000 A 
ATOM     11  C   UNL     1     105.284 122.780  82.320  0.00  0.00    +0.000 A 
ATOM     12  C   UNL     1     104.305 123.710  82.687  0.00  0.00    +0.000 A 
ATOM     13  C   UNL     1     103.786 124.597  81.741  0.00  0.00    +0.000 A 
ATOM     14  C   UNL     1     104.258 124.563  80.430  0.00  0.00    +0.000 A 
ATOM     15  C   UNL     1     105.237 123.635  80.066  0.00  0.00    +0.000 A 
BRANCH  10  17
ATOM     16  C   UNL     1     106.967 120.719  81.309  0.00  0.00    +0.000 C 
ATOM     17  O   UNL     1     106.684 121.865  80.514  0.00  0.00    +0.000 OA
ENDBRANCH  10  17
ENDBRANCH   1  13
TORSDOF 3
ENDMDL
