MODEL 1
REMARK VINA RESULT:      -4.6      0.000      0.000
REMARK  Name = *****
REMARK  3 active torsions:
REMARK  status: ('A' for Active; 'I' for Inactive)
REMARK    1  A    between atoms: C_1  and  C_2
REMARK    2  A    between atoms: C_2  and  C_10
REMARK    3  A    between atoms: N_3  and  C_4
REMARK                            x       y       z     vdW  Elec       q    Type
REMARK                         _______ _______ _______ _____ _____    ______ ____
ROOT
ATOM      1  C   UNL     1     103.391 126.869  80.580  0.00  0.00    +0.000 C 
ATOM      2  C   UNL     1     103.003 125.829  81.608  0.00  0.00    +0.000 C 
ATOM      3  N   UNL     1     101.999 125.939  82.412  0.00  0.00    +0.000 NA
ENDROOT
BRANCH   3   4
ATOM      4  C   UNL     1     101.119 127.105  82.380  0.00  0.00    +0.000 C 
ATOM      5  C   UNL     1     101.453 127.974  83.599  0.00  0.00    +0.000 C 
ATOM      6  C   UNL     1     100.487 129.149  83.733  0.00  0.00    +0.000 C 
ATOM      7  C   UNL     1      99.035 128.681  83.772  0.00  0.00    +0.000 C 
ATOM      8  C   UNL     1      98.694 127.801  82.572  0.00  0.00    +0.000 C 
ATOM      9  C   UNL     1      99.663 126.629  82.440  0.00  0.00    +0.000 C 
ENDBRANCH   3   4
BRANCH   2  10
ATOM     10  C   UNL     1     103.860 124.604  81.688  0.00  0.00    +0.000 C 
ATOM     11  C   UNL     1     103.970 123.986  82.877  0.00  0.00    +0.000 C 
ATOM     12  C   UNL     1     104.769 122.731  83.076  0.00  0.00    +0.000 C 
ATOM     13  C   UNL     1     105.661 122.382  81.881  0.00  0.00    +0.000 C 
ATOM     14  C   UNL     1     104.941 122.628  80.557  0.00  0.00    +0.000 C 
ATOM     15  C   UNL     1     104.502 124.090  80.432  0.00  0.00    +0.000 C 
ENDBRANCH   2  10
TORSDOF 2
ENDMDL
