REMARK  Name = *****
REMARK  3 active torsions:
REMARK  status: ('A' for Active; 'I' for Inactive)
REMARK    1  A    between atoms: C_4  and  C_7
REMARK    2  A    between atoms: C_7  and  C_8
REMARK    3  A    between atoms: C_8  and  C_12
REMARK                            x       y       z     vdW  Elec       q    Type
REMARK                         _______ _______ _______ _____ _____    ______ ____
ROOT
ATOM      1  C   UNL     1      -3.602  -1.230  -0.441  0.00  0.00    +0.000 C 
ATOM      2  C   UNL     1      -3.481  -2.545  -0.680  0.00  0.00    +0.000 C 
ATOM      3  F   UNL     1      -4.569  -3.341  -0.762  0.00  0.00    +0.000 F 
ATOM      4  F   UNL     1      -2.257  -3.091  -0.844  0.00  0.00    +0.000 F 
ENDROOT
BRANCH   1   5
ATOM      5  C   UNL     1      -4.937  -0.624  -0.279  0.00  0.00    +0.000 A 
ATOM      6  C   UNL     1      -5.758  -0.992   0.797  0.00  0.00    +0.000 A 
ATOM      7  C   UNL     1      -7.015  -0.406   0.962  0.00  0.00    +0.000 A 
ATOM      8  C   UNL     1      -7.464   0.551   0.055  0.00  0.00    +0.000 A 
ATOM      9  C   UNL     1      -6.657   0.924  -1.018  0.00  0.00    +0.000 A 
ATOM     10  C   UNL     1      -5.399   0.340  -1.185  0.00  0.00    +0.000 A 
ENDBRANCH   1   5
BRANCH   1  11
ATOM     11  C   UNL     1      -2.405  -0.315  -0.380  0.00  0.00    +0.000 C 
BRANCH  11  15
ATOM     12  C   UNL     1      -1.459   0.868   3.664  0.00  0.00    +0.000 A 
ATOM     13  C   UNL     1      -0.937  -0.314   3.142  0.00  0.00    +0.000 A 
ATOM     14  C   UNL     1      -1.238  -0.694   1.833  0.00  0.00    +0.000 A 
ATOM     15  C   UNL     1      -2.060   0.111   1.031  0.00  0.00    +0.000 A 
ATOM     16  C   UNL     1      -2.586   1.294   1.569  0.00  0.00    +0.000 A 
ATOM     17  C   UNL     1      -2.284   1.671   2.878  0.00  0.00    +0.000 A 
ENDBRANCH  11  15
ENDBRANCH   1  11
TORSDOF 3
