MODEL 1
REMARK VINA RESULT:      -5.0      0.000      0.000
REMARK  Name = *****
REMARK  4 active torsions:
REMARK  status: ('A' for Active; 'I' for Inactive)
REMARK    1  A    between atoms: C_1  and  C_2
REMARK    2  A    between atoms: C_4  and  C_18
REMARK    3  A    between atoms: C_6  and  C_8
REMARK    4  A    between atoms: C_8  and  N_9
REMARK                            x       y       z     vdW  Elec       q    Type
REMARK                         _______ _______ _______ _____ _____    ______ ____
ROOT
ATOM      1  C   UNL     1      89.036  70.133  86.797  0.00  0.00    +0.000 C 
ENDROOT
BRANCH   1   2
ATOM      2  N   UNL     1      87.900  70.678  86.077  0.00  0.00    +0.000 N 
ATOM      3  C   UNL     1      86.756  71.232  86.592  0.00  0.00    +0.000 A 
ATOM      4  C   UNL     1      86.258  71.412  87.886  0.00  0.00    +0.000 A 
ATOM      5  C   UNL     1      85.010  72.036  87.999  0.00  0.00    +0.000 A 
ATOM      6  C   UNL     1      84.301  72.455  86.869  0.00  0.00    +0.000 A 
ATOM      7  C   UNL     1      84.820  72.261  85.584  0.00  0.00    +0.000 A 
ATOM      8  C   UNL     1      86.070  71.638  85.453  0.00  0.00    +0.000 A 
ATOM      9  N   UNL     1      86.802  71.335  84.338  0.00  0.00    +0.000 NA
ATOM     10  N   UNL     1      87.930  70.756  84.729  0.00  0.00    +0.000 NA
ENDBRANCH   1   2
BRANCH   1  16
ATOM     11  C   UNL     1      91.172  65.780  85.426  0.00  0.00    +0.000 C 
ATOM     12  C   UNL     1      90.069  66.515  86.127  0.00  0.00    +0.000 A 
ATOM     13  C   UNL     1      89.035  65.819  86.766  0.00  0.00    +0.000 A 
ATOM     14  C   UNL     1      88.003  66.506  87.415  0.00  0.00    +0.000 A 
ATOM     15  C   UNL     1      88.013  67.907  87.423  0.00  0.00    +0.000 A 
ATOM     16  C   UNL     1      89.041  68.624  86.795  0.00  0.00    +0.000 A 
ATOM     17  C   UNL     1      90.062  67.917  86.143  0.00  0.00    +0.000 A 
ATOM     18  C   UNL     1      86.895  65.764  88.103  0.00  0.00    +0.000 C 
ENDBRANCH   1  16
TORSDOF 2
ENDMDL
