MODEL 1
REMARK VINA RESULT:      -4.0      0.000      0.000
REMARK  Name = *****
REMARK  4 active torsions:
REMARK  status: ('A' for Active; 'I' for Inactive)
REMARK    1  A    between atoms: C_4  and  C_6
REMARK    2  A    between atoms: C_6  and  C_7
REMARK    3  A    between atoms: C_7  and  O_9
REMARK    4  A    between atoms: O_9  and  C_10
REMARK                            x       y       z     vdW  Elec       q    Type
REMARK                         _______ _______ _______ _____ _____    ______ ____
ROOT
ATOM      1  O   UNL     1     103.475 127.417  82.681  0.00  0.00    +0.000 OA
ENDROOT
BRANCH   1   2
ATOM      2  C   UNL     1     102.085 127.481  82.766  0.00  0.00    +0.000 A 
ATOM      3  C   UNL     1     101.506 128.596  83.369  0.00  0.00    +0.000 A 
ATOM      4  C   UNL     1     100.117 128.656  83.501  0.00  0.00    +0.000 A 
ATOM      5  C   UNL     1      99.323 127.595  83.042  0.00  0.00    +0.000 A 
ATOM      6  C   UNL     1      99.923 126.473  82.457  0.00  0.00    +0.000 A 
ATOM      7  C   UNL     1     101.311 126.410  82.325  0.00  0.00    +0.000 A 
ATOM      8 CL   UNL     1      97.600 127.603  83.176  0.00  0.00    +0.000 Cl
ATOM      9 CL   UNL     1      99.441 130.061  84.247  0.00  0.00    +0.000 Cl
ENDBRANCH   1   2
BRANCH   1  10
ATOM     10  C   UNL     1     104.000 128.232  81.680  0.00  0.00    +0.000 C 
ATOM     11  O   UNL     1     104.587 129.297  81.844  0.00  0.00    +0.000 OA
BRANCH  10  12
ATOM     12  C   UNL     1     103.756 127.594  80.334  0.00  0.00    +0.000 C 
BRANCH  12  16
ATOM     13  C   UNL     1     105.003 124.026  80.147  0.00  0.00    +0.000 A 
ATOM     14  C   UNL     1     106.260 124.582  80.093  0.00  0.00    +0.000 A 
ATOM     15  S   UNL     1     106.210 126.289  80.155  0.00  0.00    +0.000 S 
ATOM     16  C   UNL     1     104.500 126.299  80.252  0.00  0.00    +0.000 A 
ATOM     17  C   UNL     1     103.984 125.017  80.239  0.00  0.00    +0.000 A 
ENDBRANCH  12  16
ENDBRANCH  10  12
ENDBRANCH   1  10
TORSDOF 4
ENDMDL
