MODEL 1
REMARK VINA RESULT:      -4.8      0.000      0.000
REMARK  Name = *****
REMARK  4 active torsions:
REMARK  status: ('A' for Active; 'I' for Inactive)
REMARK    1  A    between atoms: C_1  and  C_2
REMARK    2  A    between atoms: C_5  and  C_8
REMARK    3  A    between atoms: C_8  and  N_9
REMARK    4  A    between atoms: N_9  and  C_10
REMARK                            x       y       z     vdW  Elec       q    Type
REMARK                         _______ _______ _______ _____ _____    ______ ____
ROOT
ATOM      1  N   UNL     1      88.799  70.101  86.656  0.00  0.00    +0.000 N 
ATOM      2  O   UNL     1      89.666  70.783  87.291  0.00  0.00    +0.000 OA
ENDROOT
BRANCH   1   3
ATOM      3  C   UNL     1      88.852  68.647  86.736  0.00  0.00    +0.000 A 
ATOM      4  C   UNL     1      89.943  67.942  86.212  0.00  0.00    +0.000 A 
ATOM      5  C   UNL     1      89.974  66.549  86.318  0.00  0.00    +0.000 A 
ATOM      6  C   UNL     1      88.928  65.876  86.952  0.00  0.00    +0.000 A 
ATOM      7  C   UNL     1      87.851  66.582  87.489  0.00  0.00    +0.000 A 
ATOM      8  C   UNL     1      87.813  67.973  87.388  0.00  0.00    +0.000 A 
ATOM      9 CL   UNL     1      88.972  64.161  87.079  0.00  0.00    +0.000 Cl
ENDBRANCH   1   3
BRANCH   1  10
ATOM     10  C   UNL     1      87.812  70.629  85.967  0.00  0.00    +0.000 C 
BRANCH  10  15
ATOM     11  C   UNL     1      82.976  73.165  87.867  0.00  0.00    +0.000 C 
ATOM     12  C   UNL     1      84.226  72.478  87.403  0.00  0.00    +0.000 A 
ATOM     13  C   UNL     1      85.150  71.975  88.325  0.00  0.00    +0.000 A 
ATOM     14  C   UNL     1      86.327  71.357  87.890  0.00  0.00    +0.000 A 
ATOM     15  C   UNL     1      86.592  71.234  86.526  0.00  0.00    +0.000 A 
ATOM     16  C   UNL     1      85.683  71.760  85.601  0.00  0.00    +0.000 A 
ATOM     17  C   UNL     1      84.508  72.378  86.037  0.00  0.00    +0.000 A 
ENDBRANCH  10  15
ENDBRANCH   1  10
TORSDOF 3
ENDMDL
