MODEL 1
REMARK VINA RESULT:      -5.2      0.000      0.000
REMARK  Name = *****
REMARK  5 active torsions:
REMARK  status: ('A' for Active; 'I' for Inactive)
REMARK    1  A    between atoms: C_1  and  C_2
REMARK    2  A    between atoms: C_5  and  C_8
REMARK    3  A    between atoms: C_8  and  C_9
REMARK    4  A    between atoms: C_9  and  C_10
REMARK    5  A    between atoms: C_10  and  C_12
REMARK                            x       y       z     vdW  Elec       q    Type
REMARK                         _______ _______ _______ _____ _____    ______ ____
ROOT
ATOM      1  C   UNL     1     101.661 127.109  82.165  0.00  0.00    +0.000 C 
ATOM      2  F   UNL     1     102.267 128.185  82.758  0.00  0.00    +0.000 F 
ENDROOT
BRANCH   1   7
ATOM      3  C   UNL     1     105.470 122.845  81.009  0.00  0.00    +0.000 C 
ATOM      4  C   UNL     1     104.512 123.959  81.315  0.00  0.00    +0.000 A 
ATOM      5  C   UNL     1     104.007 124.127  82.609  0.00  0.00    +0.000 A 
ATOM      6  C   UNL     1     103.087 125.141  82.884  0.00  0.00    +0.000 A 
ATOM      7  C   UNL     1     102.650 126.004  81.868  0.00  0.00    +0.000 A 
ATOM      8  C   UNL     1     103.145 125.820  80.570  0.00  0.00    +0.000 A 
ATOM      9  C   UNL     1     104.062 124.804  80.295  0.00  0.00    +0.000 A 
ENDBRANCH   1   7
BRANCH   1  10
ATOM     10  C   UNL     1     100.564 126.632  83.106  0.00  0.00    +0.000 C 
BRANCH  10  11
ATOM     11  C   UNL     1      99.338 127.489  82.905  0.00  0.00    +0.000 C 
ATOM     12  O   UNL     1      98.525 127.205  82.025  0.00  0.00    +0.000 OA
BRANCH  11  13
ATOM     13  C   UNL     1      99.098 128.678  83.776  0.00  0.00    +0.000 A 
ATOM     14  C   UNL     1      99.535 129.965  83.439  0.00  0.00    +0.000 A 
ATOM     15  C   UNL     1      99.285 131.040  84.298  0.00  0.00    +0.000 A 
ATOM     16  C   UNL     1      98.594 130.838  85.492  0.00  0.00    +0.000 A 
ATOM     17  C   UNL     1      98.145 129.563  85.828  0.00  0.00    +0.000 A 
ATOM     18  C   UNL     1      98.394 128.487  84.974  0.00  0.00    +0.000 A 
ENDBRANCH  11  13
ENDBRANCH  10  11
ENDBRANCH   1  10
TORSDOF 4
ENDMDL
