MODEL 1
REMARK VINA RESULT:      -4.7      0.000      0.000
REMARK  Name = *****
REMARK  2 active torsions:
REMARK  status: ('A' for Active; 'I' for Inactive)
REMARK    1  A    between atoms: C_4  and  C_7
REMARK    2  A    between atoms: N_8  and  C_9
REMARK                            x       y       z     vdW  Elec       q    Type
REMARK                         _______ _______ _______ _____ _____    ______ ____
ROOT
ATOM      1  C   UNL     1     102.744 126.298  81.700  0.00  0.00    +0.000 C 
ATOM      2  N   UNL     1     101.610 125.978  82.239  0.00  0.00    +0.000 NA
ENDROOT
BRANCH   2   3
ATOM      3  C   UNL     1     100.784 127.026  82.687  0.00  0.00    +0.000 A 
ATOM      4  C   UNL     1     101.390 128.118  83.317  0.00  0.00    +0.000 A 
ATOM      5  C   UNL     1     100.629 129.205  83.758  0.00  0.00    +0.000 A 
ATOM      6  C   UNL     1      99.248 129.218  83.566  0.00  0.00    +0.000 A 
ATOM      7  C   UNL     1      98.629 128.146  82.926  0.00  0.00    +0.000 A 
ATOM      8  C   UNL     1      99.395 127.066  82.489  0.00  0.00    +0.000 A 
ATOM      9  F   UNL     1      98.770 126.050  81.873  0.00  0.00    +0.000 F 
ENDBRANCH   2   3
BRANCH   1  13
ATOM     10  C   UNL     1     105.482 123.375  80.238  0.00  0.00    +0.000 A 
ATOM     11  C   UNL     1     104.823 123.158  81.448  0.00  0.00    +0.000 A 
ATOM     12  C   UNL     1     103.926 124.108  81.935  0.00  0.00    +0.000 A 
ATOM     13  C   UNL     1     103.690 125.278  81.208  0.00  0.00    +0.000 A 
ATOM     14  C   UNL     1     104.350 125.499  79.996  0.00  0.00    +0.000 A 
ATOM     15  C   UNL     1     105.247 124.544  79.512  0.00  0.00    +0.000 A 
ENDBRANCH   1  13
TORSDOF 2
ENDMDL
