MODEL 1
REMARK VINA RESULT:      -4.5      0.000      0.000
REMARK  Name = *****
REMARK  5 active torsions:
REMARK  status: ('A' for Active; 'I' for Inactive)
REMARK    1  A    between atoms: C_4  and  C_7
REMARK    2  A    between atoms: C_7  and  C_8
REMARK    3  A    between atoms: C_8  and  C_9
REMARK    4  A    between atoms: C_8  and  C_12
REMARK    5  A    between atoms: C_9  and  C_10
REMARK                            x       y       z     vdW  Elec       q    Type
REMARK                         _______ _______ _______ _____ _____    ______ ____
ROOT
ATOM      1  C   UNL     1      87.754  70.930  85.200  0.00  0.00    +0.000 C 
ENDROOT
BRANCH   1   2
ATOM      2  C   UNL     1      86.706  71.331  86.241  0.00  0.00    +0.000 A 
ATOM      3  C   UNL     1      85.503  71.946  85.846  0.00  0.00    +0.000 A 
ATOM      4  C   UNL     1      84.539  72.331  86.782  0.00  0.00    +0.000 A 
ATOM      5  C   UNL     1      84.755  72.115  88.137  0.00  0.00    +0.000 A 
ATOM      6  C   UNL     1      85.942  71.522  88.558  0.00  0.00    +0.000 A 
ATOM      7  C   UNL     1      86.911  71.138  87.623  0.00  0.00    +0.000 A 
ATOM      8 CL   UNL     1      88.363  70.438  88.257  0.00  0.00    +0.000 Cl
ENDBRANCH   1   2
BRANCH   1   9
ATOM      9  C   UNL     1      87.521  69.528  84.576  0.00  0.00    +0.000 C 
BRANCH   9  13
ATOM     10  C   UNL     1      89.405  66.343  86.798  0.00  0.00    +0.000 A 
ATOM     11  C   UNL     1      88.023  66.517  86.867  0.00  0.00    +0.000 A 
ATOM     12  C   UNL     1      87.410  67.543  86.145  0.00  0.00    +0.000 A 
ATOM     13  C   UNL     1      88.175  68.404  85.348  0.00  0.00    +0.000 A 
ATOM     14  C   UNL     1      89.564  68.219  85.284  0.00  0.00    +0.000 A 
ATOM     15  C   UNL     1      90.174  67.193  86.006  0.00  0.00    +0.000 A 
ENDBRANCH   9  13
ENDBRANCH   1   9
BRANCH   1  16
ATOM     16  C   UNL     1      87.993  72.061  84.182  0.00  0.00    +0.000 C 
BRANCH  16  17
ATOM     17  C   UNL     1      89.403  72.593  84.065  0.00  0.00    +0.000 C 
ATOM     18  O   UNL     1      89.712  73.752  83.809  0.00  0.00    +0.000 OA
ENDBRANCH  16  17
ENDBRANCH   1  16
TORSDOF 5
ENDMDL
