MODEL 1
REMARK VINA RESULT:      -4.7      0.000      0.000
REMARK  Name = *****
REMARK  5 active torsions:
REMARK  status: ('A' for Active; 'I' for Inactive)
REMARK    1  A    between atoms: C_1  and  C_2
REMARK    2  A    between atoms: C_4  and  C_17
REMARK    3  A    between atoms: C_5  and  C_8
REMARK    4  A    between atoms: C_8  and  N_10
REMARK    5  A    between atoms: N_10  and  C_11
REMARK                            x       y       z     vdW  Elec       q    Type
REMARK                         _______ _______ _______ _____ _____    ______ ____
ROOT
ATOM      1  C   UNL     1      88.756  64.373  86.657  0.00  0.00    +0.000 C 
ATOM      2  S   UNL     1      88.105  63.630  85.303  0.00  0.00    +0.000 S 
ENDROOT
BRANCH   1   7
ATOM      3  C   UNL     1      89.191  70.140  86.899  0.00  0.00    +0.000 C 
ATOM      4  C   UNL     1      89.078  68.646  86.814  0.00  0.00    +0.000 A 
ATOM      5  C   UNL     1      90.092  67.893  86.203  0.00  0.00    +0.000 A 
ATOM      6  C   UNL     1      90.029  66.490  86.153  0.00  0.00    +0.000 A 
ATOM      7  C   UNL     1      88.915  65.850  86.726  0.00  0.00    +0.000 A 
ATOM      8  C   UNL     1      87.903  66.595  87.346  0.00  0.00    +0.000 A 
ATOM      9  C   UNL     1      87.991  67.986  87.398  0.00  0.00    +0.000 A 
ATOM     10  C   UNL     1      91.132  65.726  85.477  0.00  0.00    +0.000 C 
ENDBRANCH   1   7
BRANCH   1  11
ATOM     11  N   UNL     1      89.214  63.730  87.797  0.00  0.00    +0.000 N 
ATOM     12  H   UNL     1      90.178  63.538  87.836  0.00  0.00    +0.000 HD
BRANCH  11  13
ATOM     13  C   UNL     1      88.414  63.309  88.951  0.00  0.00    +0.000 C 
ATOM     14  C   UNL     1      86.938  63.160  88.556  0.00  0.00    +0.000 C 
ATOM     15  C   UNL     1      86.068  62.795  89.756  0.00  0.00    +0.000 C 
ATOM     16  C   UNL     1      86.235  63.795  90.896  0.00  0.00    +0.000 C 
ATOM     17  C   UNL     1      87.699  63.956  91.292  0.00  0.00    +0.000 C 
ATOM     18  C   UNL     1      88.569  64.321  90.093  0.00  0.00    +0.000 C 
ENDBRANCH  11  13
ENDBRANCH   1  11
TORSDOF 3
ENDMDL
