MODEL 1
REMARK VINA RESULT:      -4.4      0.000      0.000
REMARK  Name = *****
REMARK  7 active torsions:
REMARK  status: ('A' for Active; 'I' for Inactive)
REMARK    1  A    between atoms: C_1  and  C_2
REMARK    2  A    between atoms: C_4  and  O_18
REMARK    3  A    between atoms: C_6  and  S_10
REMARK    4  A    between atoms: C_7  and  C_8
REMARK    5  A    between atoms: S_10  and  C_11
REMARK    6  A    between atoms: C_11  and  C_12
REMARK    7  A    between atoms: O_18  and  C_19
REMARK                            x       y       z     vdW  Elec       q    Type
REMARK                         _______ _______ _______ _____ _____    ______ ____
ROOT
ATOM      1  C   UNL     1      87.055  65.015  87.673  0.00  0.00    +0.000 C 
ATOM      2  C   UNL     1      88.071  66.045  87.258  0.00  0.00    +0.000 A 
ATOM      3  C   UNL     1      89.210  65.645  86.555  0.00  0.00    +0.000 A 
ATOM      4  C   UNL     1      90.135  66.602  86.183  0.00  0.00    +0.000 A 
ATOM      5  N   UNL     1      90.003  67.914  86.456  0.00  0.00    +0.000 NA
ATOM      6  C   UNL     1      88.899  68.311  87.137  0.00  0.00    +0.000 A 
ATOM      7  C   UNL     1      87.912  67.413  87.561  0.00  0.00    +0.000 A 
ENDROOT
BRANCH   7   8
ATOM      8  C   UNL     1      86.755  67.861  88.282  0.00  0.00    +0.000 C 
ATOM      9  N   UNL     1      85.850  68.250  88.897  0.00  0.00    +0.000 NA
ENDBRANCH   7   8
BRANCH   4  10
ATOM     10  O   UNL     1      91.239  66.148  85.492  0.00  0.00    +0.000 OA
ATOM     11  C   UNL     1      91.237  64.737  85.290  0.00  0.00    +0.000 C 
ENDBRANCH   4  10
BRANCH   6  12
ATOM     12  S   UNL     1      88.785  70.067  87.484  0.00  0.00    +0.000 S 
BRANCH  12  13
ATOM     13  C   UNL     1      88.018  70.672  85.946  0.00  0.00    +0.000 C 
BRANCH  13  14
ATOM     14  C   UNL     1      86.683  71.322  86.220  0.00  0.00    +0.000 A 
ATOM     15  C   UNL     1      86.231  71.494  87.537  0.00  0.00    +0.000 A 
ATOM     16  C   UNL     1      84.992  72.086  87.789  0.00  0.00    +0.000 A 
ATOM     17  C   UNL     1      84.191  72.508  86.729  0.00  0.00    +0.000 A 
ATOM     18  C   UNL     1      84.625  72.334  85.416  0.00  0.00    +0.000 A 
ATOM     19  C   UNL     1      85.864  71.743  85.162  0.00  0.00    +0.000 A 
ENDBRANCH  13  14
ENDBRANCH  12  13
ENDBRANCH   6  12
TORSDOF 5
ENDMDL
