MODEL 1
REMARK VINA RESULT:      -4.8      0.000      0.000
REMARK  Name = *****
REMARK  1 active torsions:
REMARK  status: ('A' for Active; 'I' for Inactive)
REMARK    1  A    between atoms: C_8  and  C_10
REMARK                            x       y       z     vdW  Elec       q    Type
REMARK                         _______ _______ _______ _____ _____    ______ ____
ROOT
ATOM      1  C   UNL     1      99.521 129.304  83.842  0.00  0.00    +0.000 A 
ATOM      2  C   UNL     1      98.603 128.455  83.210  0.00  0.00    +0.000 A 
ATOM      3  C   UNL     1      99.016 127.283  82.566  0.00  0.00    +0.000 A 
ATOM      4  C   UNL     1     100.381 127.028  82.600  0.00  0.00    +0.000 A 
ATOM      5  C   UNL     1     101.322 127.839  83.211  0.00  0.00    +0.000 A 
ATOM      6  C   UNL     1     100.894 129.009  83.851  0.00  0.00    +0.000 A 
ATOM      7  N   UNL     1     102.572 127.298  83.059  0.00  0.00    +0.000 NA
ATOM      8  C   UNL     1     102.355 126.191  82.370  0.00  0.00    +0.000 A 
ATOM      9  O   UNL     1     101.038 125.964  82.054  0.00  0.00    +0.000 OA
ENDROOT
BRANCH   8  10
ATOM     10  C   UNL     1     103.321 125.195  81.909  0.00  0.00    +0.000 A 
ATOM     11  C   UNL     1     103.731 125.200  80.564  0.00  0.00    +0.000 A 
ATOM     12  C   UNL     1     104.654 124.261  80.094  0.00  0.00    +0.000 A 
ATOM     13  C   UNL     1     105.171 123.313  80.967  0.00  0.00    +0.000 A 
ATOM     14  C   UNL     1     104.782 123.286  82.301  0.00  0.00    +0.000 A 
ATOM     15  C   UNL     1     103.859 124.224  82.771  0.00  0.00    +0.000 A 
ATOM     16  F   UNL     1     106.055 122.414  80.518  0.00  0.00    +0.000 F 
ENDBRANCH   8  10
TORSDOF 1
ENDMDL
