REMARK  Name = *****
REMARK  4 active torsions:
REMARK  status: ('A' for Active; 'I' for Inactive)
REMARK    1  A    between atoms: C_1  and  C_2
REMARK    2  A    between atoms: C_5  and  C_8
REMARK    3  A    between atoms: C_8  and  N_10
REMARK    4  A    between atoms: N_10  and  C_11
REMARK                            x       y       z     vdW  Elec       q    Type
REMARK                         _______ _______ _______ _____ _____    ______ ____
ROOT
ATOM      1  C   UNL     1      -3.256  -0.446   0.678  0.00  0.00    +0.000 C 
ATOM      2  S   UNL     1      -3.762  -1.982   1.120  0.00  0.00    +0.000 S 
ENDROOT
BRANCH   1   7
ATOM      3  C   UNL     1       2.357   0.692  -0.191  0.00  0.00    +0.000 C 
ATOM      4  C   UNL     1       0.911   0.368   0.049  0.00  0.00    +0.000 A 
ATOM      5  C   UNL     1       0.237  -0.532  -0.787  0.00  0.00    +0.000 A 
ATOM      6  C   UNL     1      -1.115  -0.815  -0.581  0.00  0.00    +0.000 A 
ATOM      7  C   UNL     1      -1.801  -0.189   0.464  0.00  0.00    +0.000 A 
ATOM      8  C   UNL     1      -1.143   0.727   1.293  0.00  0.00    +0.000 A 
ATOM      9  C   UNL     1       0.208   1.004   1.082  0.00  0.00    +0.000 A 
ENDBRANCH   1   7
BRANCH   1  10
ATOM     10  N   UNL     1      -4.011   0.693   0.422  0.00  0.00    +0.000 N 
ATOM     11  H   UNL     1      -3.485   1.441   0.057  0.00  0.00    +0.000 HD
BRANCH  10  12
ATOM     12  C   UNL     1      -5.384   0.991   0.580  0.00  0.00    +0.000 A 
ATOM     13  C   UNL     1      -6.309   0.215   1.279  0.00  0.00    +0.000 A 
ATOM     14  C   UNL     1      -7.648   0.617   1.385  0.00  0.00    +0.000 A 
ATOM     15  C   UNL     1      -8.069   1.805   0.798  0.00  0.00    +0.000 A 
ATOM     16  C   UNL     1      -7.161   2.601   0.110  0.00  0.00    +0.000 A 
ATOM     17  C   UNL     1      -5.825   2.196   0.008  0.00  0.00    +0.000 A 
ATOM     18 CL   UNL     1      -9.711   2.296   0.932  0.00  0.00    +0.000 Cl
ENDBRANCH  10  12
ENDBRANCH   1  10
TORSDOF 3
