MODEL 1
REMARK VINA RESULT:      -4.6      0.000      0.000
REMARK  Name = *****
REMARK  5 active torsions:
REMARK  status: ('A' for Active; 'I' for Inactive)
REMARK    1  A    between atoms: C_1  and  C_2
REMARK    2  A    between atoms: C_5  and  C_8
REMARK    3  A    between atoms: C_8  and  C_10
REMARK    4  A    between atoms: C_10  and  S_12
REMARK    5  A    between atoms: S_12  and  C_13
REMARK                            x       y       z     vdW  Elec       q    Type
REMARK                         _______ _______ _______ _____ _____    ______ ____
ROOT
ATOM      1  C   UNL     1      88.350  67.457  86.243  0.00  0.00    +0.000 C 
ATOM      2  O   UNL     1      87.541  67.367  85.327  0.00  0.00    +0.000 OA
ENDROOT
BRANCH   1   7
ATOM      3  C   UNL     1      88.127  71.787  90.096  0.00  0.00    +0.000 C 
ATOM      4  C   UNL     1      88.174  70.686  89.077  0.00  0.00    +0.000 A 
ATOM      5  C   UNL     1      87.236  69.650  89.105  0.00  0.00    +0.000 A 
ATOM      6  C   UNL     1      87.301  68.612  88.172  0.00  0.00    +0.000 A 
ATOM      7  C   UNL     1      88.315  68.589  87.208  0.00  0.00    +0.000 A 
ATOM      8  C   UNL     1      89.264  69.619  87.183  0.00  0.00    +0.000 A 
ATOM      9  C   UNL     1      89.194  70.657  88.118  0.00  0.00    +0.000 A 
ENDBRANCH   1   7
BRANCH   1  10
ATOM     10  C   UNL     1      89.438  66.414  86.375  0.00  0.00    +0.000 C 
ATOM     11  O   UNL     1      90.629  66.641  86.389  0.00  0.00    +0.000 OA
BRANCH  10  12
ATOM     12  S   UNL     1      88.593  64.923  86.631  0.00  0.00    +0.000 S 
BRANCH  12  13
ATOM     13  C   UNL     1      88.231  64.956  88.419  0.00  0.00    +0.000 C 
ATOM     14  C   UNL     1      88.869  63.784  89.174  0.00  0.00    +0.000 C 
ATOM     15  C   UNL     1      88.600  63.886  90.676  0.00  0.00    +0.000 C 
ATOM     16  C   UNL     1      87.108  64.019  90.975  0.00  0.00    +0.000 C 
ATOM     17  C   UNL     1      86.490  65.199  90.231  0.00  0.00    +0.000 C 
ATOM     18  C   UNL     1      86.736  65.111  88.724  0.00  0.00    +0.000 C 
ENDBRANCH  12  13
ENDBRANCH  10  12
ENDBRANCH   1  10
TORSDOF 4
ENDMDL
