MODEL 1
REMARK VINA RESULT:      -4.7      0.000      0.000
REMARK  Name = *****
REMARK  4 active torsions:
REMARK  status: ('A' for Active; 'I' for Inactive)
REMARK    1  A    between atoms: C_2  and  C_3
REMARK    2  A    between atoms: C_2  and  O_9
REMARK    3  A    between atoms: O_9  and  C_10
REMARK    4  A    between atoms: C_10  and  C_12
REMARK                            x       y       z     vdW  Elec       q    Type
REMARK                         _______ _______ _______ _____ _____    ______ ____
ROOT
ATOM      1  O   UNL     1     103.283 125.334  80.233  0.00  0.00    +0.000 OA
ENDROOT
BRANCH   1   3
ATOM      2  C   UNL     1     103.837 127.675  79.877  0.00  0.00    +0.000 C 
ATOM      3  C   UNL     1     103.301 126.692  80.618  0.00  0.00    +0.000 C 
BRANCH   3   4
ATOM      4  C   UNL     1     102.556 126.973  81.859  0.00  0.00    +0.000 A 
ATOM      5  C   UNL     1     102.862 128.107  82.625  0.00  0.00    +0.000 A 
ATOM      6  C   UNL     1     102.154 128.388  83.796  0.00  0.00    +0.000 A 
ATOM      7  C   UNL     1     101.126 127.543  84.211  0.00  0.00    +0.000 A 
ATOM      8  C   UNL     1     100.804 126.418  83.454  0.00  0.00    +0.000 A 
ATOM      9  C   UNL     1     101.514 126.136  82.283  0.00  0.00    +0.000 A 
ENDBRANCH   3   4
ENDBRANCH   1   3
BRANCH   1  10
ATOM     10  C   UNL     1     104.458 124.652  80.117  0.00  0.00    +0.000 C 
ATOM     11  O   UNL     1     105.377 124.871  79.342  0.00  0.00    +0.000 OA
BRANCH  10  12
ATOM     12  C   UNL     1     104.500 123.549  81.119  0.00  0.00    +0.000 A 
ATOM     13  C   UNL     1     104.369 123.772  82.500  0.00  0.00    +0.000 A 
ATOM     14  C   UNL     1     104.415 122.697  83.392  0.00  0.00    +0.000 A 
ATOM     15  C   UNL     1     104.592 121.406  82.906  0.00  0.00    +0.000 A 
ATOM     16  C   UNL     1     104.725 121.167  81.544  0.00  0.00    +0.000 A 
ATOM     17  C   UNL     1     104.681 122.238  80.649  0.00  0.00    +0.000 A 
ATOM     18  F   UNL     1     104.634 120.379  83.764  0.00  0.00    +0.000 F 
ENDBRANCH  10  12
ENDBRANCH   1  10
TORSDOF 4
ENDMDL
