MODEL 1
REMARK VINA RESULT:      -4.7      0.000      0.000
REMARK  Name = *****
REMARK  1 active torsions:
REMARK  status: ('A' for Active; 'I' for Inactive)
REMARK    1  A    between atoms: C_8  and  C_10
REMARK                            x       y       z     vdW  Elec       q    Type
REMARK                         _______ _______ _______ _____ _____    ______ ____
ROOT
ATOM      1  C   UNL     1     105.462 122.660  81.881  0.00  0.00    +0.000 C 
ATOM      2  C   UNL     1     105.253 122.957  80.390  0.00  0.00    +0.000 C 
ATOM      3  C   UNL     1     104.930 124.432  80.117  0.00  0.00    +0.000 C 
ATOM      4  C   UNL     1     103.760 124.861  80.989  0.00  0.00    +0.000 C 
ATOM      5  C   UNL     1     104.095 124.673  82.467  0.00  0.00    +0.000 C 
ATOM      6  C   UNL     1     104.322 123.193  82.759  0.00  0.00    +0.000 C 
ATOM      7  C   UNL     1     102.938 125.319  83.221  0.00  0.00    +0.000 C 
ATOM      8  C   UNL     1     102.815 126.742  82.650  0.00  0.00    +0.000 C 
ATOM      9  S   UNL     1     103.289 126.607  80.881  0.00  0.00    +0.000 S 
ENDROOT
BRANCH   8  10
ATOM     10  C   UNL     1     101.457 127.371  82.856  0.00  0.00    +0.000 A 
ATOM     11  C   UNL     1     100.306 126.704  82.407  0.00  0.00    +0.000 A 
ATOM     12  C   UNL     1      99.040 127.270  82.572  0.00  0.00    +0.000 A 
ATOM     13  C   UNL     1      98.906 128.512  83.188  0.00  0.00    +0.000 A 
ATOM     14  C   UNL     1     100.036 129.186  83.642  0.00  0.00    +0.000 A 
ATOM     15  C   UNL     1     101.302 128.622  83.477  0.00  0.00    +0.000 A 
ENDBRANCH   8  10
TORSDOF 1
ENDMDL
