MODEL 1
REMARK VINA RESULT:      -4.9      0.000      0.000
REMARK  Name = *****
REMARK  2 active torsions:
REMARK  status: ('A' for Active; 'I' for Inactive)
REMARK    1  A    between atoms: C_4  and  C_7
REMARK    2  A    between atoms: C_8  and  C_10
REMARK                            x       y       z     vdW  Elec       q    Type
REMARK                         _______ _______ _______ _____ _____    ______ ____
ROOT
ATOM      1  C   UNL     1     102.972 125.357  81.708  0.00  0.00    +0.000 C 
ATOM      2  C   UNL     1     102.022 126.107  82.261  0.00  0.00    +0.000 C 
ATOM      3  O   UNL     1     102.711 126.593  81.183  0.00  0.00    +0.000 OA
ENDROOT
BRANCH   1   7
ATOM      4  C   UNL     1     106.152 123.743  79.379  0.00  0.00    +0.000 A 
ATOM      5  C   UNL     1     105.724 125.058  79.206  0.00  0.00    +0.000 A 
ATOM      6  C   UNL     1     104.675 125.559  79.983  0.00  0.00    +0.000 A 
ATOM      7  C   UNL     1     104.030 124.750  80.929  0.00  0.00    +0.000 A 
ATOM      8  C   UNL     1     104.480 123.432  81.097  0.00  0.00    +0.000 A 
ATOM      9  C   UNL     1     105.533 122.931  80.325  0.00  0.00    +0.000 A 
ENDBRANCH   1   7
BRANCH   2  10
ATOM     10  C   UNL     1     101.063 127.107  82.672  0.00  0.00    +0.000 A 
ATOM     11  C   UNL     1      99.712 126.856  82.392  0.00  0.00    +0.000 A 
ATOM     12  C   UNL     1      98.718 127.761  82.777  0.00  0.00    +0.000 A 
ATOM     13  C   UNL     1      99.061 128.924  83.463  0.00  0.00    +0.000 A 
ATOM     14  C   UNL     1     100.396 129.181  83.766  0.00  0.00    +0.000 A 
ATOM     15  C   UNL     1     101.390 128.278  83.374  0.00  0.00    +0.000 A 
ENDBRANCH   2  10
TORSDOF 2
ENDMDL
