MODEL 1
REMARK VINA RESULT:      -4.8      0.000      0.000
REMARK  Name = *****
REMARK  3 active torsions:
REMARK  status: ('A' for Active; 'I' for Inactive)
REMARK    1  A    between atoms: C_4  and  C_7
REMARK    2  A    between atoms: C_8  and  C_9
REMARK    3  A    between atoms: C_10  and  C_16
REMARK                            x       y       z     vdW  Elec       q    Type
REMARK                         _______ _______ _______ _____ _____    ______ ____
ROOT
ATOM      1  C   UNL     1     101.098 128.706  83.546  0.00  0.00    +0.000 A 
ATOM      2  C   UNL     1      99.707 128.801  83.398  0.00  0.00    +0.000 A 
ATOM      3  C   UNL     1      99.026 129.916  83.914  0.00  0.00    +0.000 A 
ATOM      4  C   UNL     1      99.722 130.931  84.574  0.00  0.00    +0.000 A 
ATOM      5  C   UNL     1     101.103 130.837  84.720  0.00  0.00    +0.000 A 
ATOM      6  C   UNL     1     101.780 129.731  84.208  0.00  0.00    +0.000 A 
ATOM      7  F   UNL     1     103.111 129.669  84.366  0.00  0.00    +0.000 F 
ENDROOT
BRANCH   1   9
ATOM      8  C   UNL     1     102.466 126.655  82.618  0.00  0.00    +0.000 C 
ATOM      9  C   UNL     1     101.835 127.586  83.036  0.00  0.00    +0.000 C 
BRANCH   8  13
ATOM     10  C   UNL     1     104.724 123.393  81.171  0.00  0.00    +0.000 A 
ATOM     11  C   UNL     1     104.403 123.473  82.526  0.00  0.00    +0.000 A 
ATOM     12  C   UNL     1     103.655 124.551  83.005  0.00  0.00    +0.000 A 
ATOM     13  C   UNL     1     103.229 125.550  82.127  0.00  0.00    +0.000 A 
ATOM     14  C   UNL     1     103.552 125.469  80.770  0.00  0.00    +0.000 A 
ATOM     15  C   UNL     1     104.300 124.390  80.293  0.00  0.00    +0.000 A 
ENDBRANCH   8  13
ENDBRANCH   1   9
BRANCH   2  16
ATOM     16  C   UNL     1      98.953 127.780  82.727  0.00  0.00    +0.000 C 
ATOM     17  N   UNL     1      98.322 126.966  82.192  0.00  0.00    +0.000 NA
ENDBRANCH   2  16
TORSDOF 3
ENDMDL
