MODEL 1
REMARK VINA RESULT:      -4.8      0.000      0.000
REMARK  Name = *****
REMARK  4 active torsions:
REMARK  status: ('A' for Active; 'I' for Inactive)
REMARK    1  A    between atoms: C_4  and  C_7
REMARK    2  A    between atoms: C_7  and  C_8
REMARK    3  A    between atoms: C_8  and  C_10
REMARK    4  A    between atoms: C_14  and  C_16
REMARK                            x       y       z     vdW  Elec       q    Type
REMARK                         _______ _______ _______ _____ _____    ______ ____
ROOT
ATOM      1  C   UNL     1      88.855  70.101  86.647  0.00  0.00    +0.000 C 
ATOM      2  O   UNL     1      89.684  70.752  87.284  0.00  0.00    +0.000 OA
ENDROOT
BRANCH   1   3
ATOM      3  C   UNL     1      88.877  68.610  86.739  0.00  0.00    +0.000 A 
ATOM      4  C   UNL     1      87.905  67.880  87.432  0.00  0.00    +0.000 A 
ATOM      5  C   UNL     1      87.976  66.486  87.477  0.00  0.00    +0.000 A 
ATOM      6  C   UNL     1      89.016  65.812  86.835  0.00  0.00    +0.000 A 
ATOM      7  C   UNL     1      90.007  66.525  86.149  0.00  0.00    +0.000 A 
ATOM      8  C   UNL     1      89.925  67.925  86.103  0.00  0.00    +0.000 A 
BRANCH   7   9
ATOM      9  C   UNL     1      91.122  65.802  85.444  0.00  0.00    +0.000 C 
ATOM     10 CL   UNL     1      90.906  64.047  85.584  0.00  0.00    +0.000 Cl
ENDBRANCH   7   9
ENDBRANCH   1   3
BRANCH   1  11
ATOM     11  C   UNL     1      87.827  70.789  85.768  0.00  0.00    +0.000 C 
BRANCH  11  15
ATOM     12  C   UNL     1      84.387  72.343  87.863  0.00  0.00    +0.000 A 
ATOM     13  C   UNL     1      85.441  71.784  88.581  0.00  0.00    +0.000 A 
ATOM     14  C   UNL     1      86.554  71.276  87.908  0.00  0.00    +0.000 A 
ATOM     15  C   UNL     1      86.618  71.308  86.509  0.00  0.00    +0.000 A 
ATOM     16  C   UNL     1      85.559  71.893  85.799  0.00  0.00    +0.000 A 
ATOM     17  C   UNL     1      84.447  72.402  86.473  0.00  0.00    +0.000 A 
ENDBRANCH  11  15
ENDBRANCH   1  11
TORSDOF 4
ENDMDL
