MODEL 1
REMARK VINA RESULT:      -5.1      0.000      0.000
REMARK  Name = *****
REMARK  2 active torsions:
REMARK  status: ('A' for Active; 'I' for Inactive)
REMARK    1  A    between atoms: C_4  and  C_7
REMARK    2  A    between atoms: C_8  and  C_9
REMARK                            x       y       z     vdW  Elec       q    Type
REMARK                         _______ _______ _______ _____ _____    ______ ____
ROOT
ATOM      1  C   UNL     1     101.159 127.122  82.687  0.00  0.00    +0.000 A 
ATOM      2  C   UNL     1     101.536 128.291  83.354  0.00  0.00    +0.000 A 
ATOM      3  C   UNL     1     100.556 129.192  83.758  0.00  0.00    +0.000 A 
ATOM      4  N   UNL     1      99.234 129.027  83.546  0.00  0.00    +0.000 NA
ATOM      5  C   UNL     1      98.887 127.903  82.887  0.00  0.00    +0.000 A 
ATOM      6  C   UNL     1      99.794 126.947  82.444  0.00  0.00    +0.000 A 
ATOM      7  F   UNL     1      99.350 125.863  81.788  0.00  0.00    +0.000 F 
ATOM      8  F   UNL     1      97.581 127.713  82.647  0.00  0.00    +0.000 F 
ATOM      9  F   UNL     1     100.936 130.307  84.400  0.00  0.00    +0.000 F 
ATOM     10  F   UNL     1     102.824 128.572  83.598  0.00  0.00    +0.000 F 
ENDROOT
BRANCH   1  12
ATOM     11  C   UNL     1     102.991 126.294  81.195  0.00  0.00    +0.000 C 
ATOM     12  C   UNL     1     102.108 126.109  82.189  0.00  0.00    +0.000 C 
BRANCH  11  16
ATOM     13  C   UNL     1     105.769 123.266  79.997  0.00  0.00    +0.000 A 
ATOM     14  C   UNL     1     105.735 124.476  79.307  0.00  0.00    +0.000 A 
ATOM     15  C   UNL     1     104.829 125.471  79.683  0.00  0.00    +0.000 A 
ATOM     16  C   UNL     1     103.940 125.263  80.746  0.00  0.00    +0.000 A 
ATOM     17  C   UNL     1     103.997 124.049  81.442  0.00  0.00    +0.000 A 
ATOM     18  C   UNL     1     104.902 123.053  81.067  0.00  0.00    +0.000 A 
ENDBRANCH  11  16
ENDBRANCH   1  12
TORSDOF 2
ENDMDL
