REMARK  Name = *****
REMARK  6 active torsions:
REMARK  status: ('A' for Active; 'I' for Inactive)
REMARK    1  A    between atoms: C_1  and  C_2
REMARK    2  A    between atoms: C_5  and  O_8
REMARK    3  A    between atoms: O_8  and  C_9
REMARK    4  A    between atoms: C_9  and  O_11
REMARK    5  A    between atoms: O_11  and  N_12
REMARK    6  A    between atoms: C_13  and  C_18
REMARK                            x       y       z     vdW  Elec       q    Type
REMARK                         _______ _______ _______ _____ _____    ______ ____
ROOT
ATOM      1  C   UNL     1      -4.035   0.619   0.798  0.00  0.00    +0.000 C 
ATOM      2  O   UNL     1      -3.674   1.751   1.091  0.00  0.00    +0.000 OA
ENDROOT
BRANCH   1   3
ATOM      3  O   UNL     1      -3.255  -0.394   0.263  0.00  0.00    +0.000 OA
BRANCH   3   8
ATOM      4  C   UNL     1       2.271   0.734  -0.433  0.00  0.00    +0.000 C 
ATOM      5  C   UNL     1       0.806   0.474  -0.242  0.00  0.00    +0.000 A 
ATOM      6  C   UNL     1       0.271   0.361   1.049  0.00  0.00    +0.000 A 
ATOM      7  C   UNL     1      -1.085   0.087   1.232  0.00  0.00    +0.000 A 
ATOM      8  C   UNL     1      -1.905  -0.065   0.116  0.00  0.00    +0.000 A 
ATOM      9  C   UNL     1      -1.387   0.006  -1.174  0.00  0.00    +0.000 A 
ATOM     10  C   UNL     1      -0.030   0.278  -1.351  0.00  0.00    +0.000 A 
ENDBRANCH   3   8
ENDBRANCH   1   3
BRANCH   1  11
ATOM     11  O   UNL     1      -5.312   0.137   0.927  0.00  0.00    +0.000 OA
BRANCH  11  12
ATOM     12  N   UNL     1      -6.179   1.058   1.541  0.00  0.00    +0.000 N 
ATOM     13  C   UNL     1      -7.083   1.735   0.754  0.00  0.00    +0.000 A 
ATOM     14  C   UNL     1      -7.994   2.396   1.482  0.00  0.00    +0.000 A 
ATOM     15  S   UNL     1      -7.768   2.144   3.192  0.00  0.00    +0.000 S 
ATOM     16  C   UNL     1      -6.397   1.050   2.899  0.00  0.00    +0.000 A 
ATOM     17  S   UNL     1      -5.601   0.187   4.077  0.00  0.00    +0.000 S 
ATOM     18  C   UNL     1      -6.999   1.705  -0.733  0.00  0.00    +0.000 C 
ENDBRANCH  11  12
ENDBRANCH   1  11
TORSDOF 4
