REMARK  Name = *****
REMARK  5 active torsions:
REMARK  status: ('A' for Active; 'I' for Inactive)
REMARK    1  A    between atoms: C_1  and  N_2
REMARK    2  A    between atoms: N_2  and  C_3
REMARK    3  A    between atoms: C_6  and  S_11
REMARK    4  A    between atoms: S_11  and  C_12
REMARK    5  A    between atoms: C_12  and  C_13
REMARK                            x       y       z     vdW  Elec       q    Type
REMARK                         _______ _______ _______ _____ _____    ______ ____
ROOT
ATOM      1  C   UNL     1       3.131   0.038   1.098  0.00  0.00    +0.000 C 
ATOM      2  N   UNL     1       2.357  -0.005  -0.133  0.00  0.00    +0.000 N 
ATOM      3  C   UNL     1       1.571   1.177  -0.457  0.00  0.00    +0.000 C 
ATOM      4  C   UNL     1       2.997  -0.604  -1.218  0.00  0.00    +0.000 C 
ATOM      5  N   UNL     1       2.557  -0.346  -2.446  0.00  0.00    +0.000 NA
ATOM      6  C   UNL     1       3.167  -0.965  -3.455  0.00  0.00    +0.000 C 
ATOM      7  N   UNL     1       4.177  -1.807  -3.331  0.00  0.00    +0.000 NA
ATOM      8  C   UNL     1       4.529  -1.985  -2.071  0.00  0.00    +0.000 C 
ATOM      9  N   UNL     1       4.004  -1.435  -0.987  0.00  0.00    +0.000 NA
ATOM     10 CL   UNL     1       5.833  -3.059  -1.807  0.00  0.00    +0.000 Cl
ENDROOT
BRANCH   6  11
ATOM     11  S   UNL     1       2.573  -0.574  -5.082  0.00  0.00    +0.000 S 
BRANCH  11  12
ATOM     12  C   UNL     1       3.120  -2.060  -5.975  0.00  0.00    +0.000 C 
BRANCH  12  13
ATOM     13  C   UNL     1       2.629  -2.055  -7.402  0.00  0.00    +0.000 A 
ATOM     14  C   UNL     1       3.416  -1.506  -8.425  0.00  0.00    +0.000 A 
ATOM     15  C   UNL     1       2.956  -1.493  -9.743  0.00  0.00    +0.000 A 
ATOM     16  C   UNL     1       1.705  -2.024 -10.051  0.00  0.00    +0.000 A 
ATOM     17  C   UNL     1       0.910  -2.564  -9.042  0.00  0.00    +0.000 A 
ATOM     18  C   UNL     1       1.368  -2.579  -7.724  0.00  0.00    +0.000 A 
ENDBRANCH  12  13
ENDBRANCH  11  12
ENDBRANCH   6  11
TORSDOF 3
