MODEL 1
REMARK VINA RESULT:      -4.8      0.000      0.000
REMARK  Name = *****
REMARK  4 active torsions:
REMARK  status: ('A' for Active; 'I' for Inactive)
REMARK    1  A    between atoms: C_1  and  C_2
REMARK    2  A    between atoms: C_2  and  C_12
REMARK    3  A    between atoms: C_3  and  C_4
REMARK    4  A    between atoms: C_9  and  N_10
REMARK                            x       y       z     vdW  Elec       q    Type
REMARK                         _______ _______ _______ _____ _____    ______ ____
ROOT
ATOM      1  C   UNL     1     103.142 127.089  80.767  0.00  0.00    +0.000 C 
ATOM      2  C   UNL     1     102.863 125.984  81.747  0.00  0.00    +0.000 C 
ATOM      3  C   UNL     1     101.914 125.974  82.701  0.00  0.00    +0.000 C 
ENDROOT
BRANCH   3   4
ATOM      4  C   UNL     1     100.975 127.072  82.947  0.00  0.00    +0.000 A 
ATOM      5  C   UNL     1      99.665 126.972  82.462  0.00  0.00    +0.000 A 
ATOM      6  C   UNL     1      98.749 128.006  82.675  0.00  0.00    +0.000 A 
ATOM      7  C   UNL     1      99.131 129.152  83.375  0.00  0.00    +0.000 A 
ATOM      8  C   UNL     1     100.431 129.267  83.863  0.00  0.00    +0.000 A 
ATOM      9  C   UNL     1     101.340 128.230  83.646  0.00  0.00    +0.000 A 
BRANCH   9  10
ATOM     10  N   UNL     1     102.630 128.375  84.146  0.00  0.00    +0.000 NA
ATOM     11  C   UNL     1     103.718 128.520  84.561  0.00  0.00    +0.000 C 
ENDBRANCH   9  10
ENDBRANCH   3   4
BRANCH   2  12
ATOM     12  C   UNL     1     103.740 124.806  81.634  0.00  0.00    +0.000 A 
ATOM     13  C   UNL     1     104.289 124.450  80.397  0.00  0.00    +0.000 A 
ATOM     14  C   UNL     1     105.112 123.326  80.291  0.00  0.00    +0.000 A 
ATOM     15  C   UNL     1     105.391 122.556  81.418  0.00  0.00    +0.000 A 
ATOM     16  C   UNL     1     104.846 122.904  82.653  0.00  0.00    +0.000 A 
ATOM     17  C   UNL     1     104.020 124.024  82.762  0.00  0.00    +0.000 A 
ENDBRANCH   2  12
TORSDOF 3
ENDMDL
