MODEL 1
REMARK VINA RESULT:      -3.8      0.000      0.000
REMARK  Name = *****
REMARK  4 active torsions:
REMARK  status: ('A' for Active; 'I' for Inactive)
REMARK    1  A    between atoms: C_4  and  C_6
REMARK    2  A    between atoms: C_6  and  N_7
REMARK    3  A    between atoms: N_7  and  C_8
REMARK    4  A    between atoms: N_7  and  C_9
REMARK                            x       y       z     vdW  Elec       q    Type
REMARK                         _______ _______ _______ _____ _____    ______ ____
ROOT
ATOM      1  N   UNL     1     102.538 127.607  82.865  0.00  0.00    +0.000 N 
ATOM      2  C   UNL     1     103.358 128.482  83.701  0.00  0.00    +0.000 C 
ENDROOT
BRANCH   1   3
ATOM      3  C   UNL     1     101.144 127.728  82.933  0.00  0.00    +0.000 A 
ATOM      4  C   UNL     1     100.317 126.713  82.419  0.00  0.00    +0.000 A 
ATOM      5  C   UNL     1      98.921 126.799  82.470  0.00  0.00    +0.000 A 
ATOM      6  C   UNL     1      98.312 127.907  83.048  0.00  0.00    +0.000 A 
ATOM      7  C   UNL     1      99.103 128.919  83.580  0.00  0.00    +0.000 A 
ATOM      8  C   UNL     1     100.499 128.824  83.528  0.00  0.00    +0.000 A 
ENDBRANCH   1   3
BRANCH   1   9
ATOM      9  C   UNL     1     103.118 127.294  81.542  0.00  0.00    +0.000 C 
BRANCH   9  13
ATOM     10  C   UNL     1     104.415 123.578  81.766  0.00  0.00    +0.000 A 
ATOM     11  C   UNL     1     104.574 123.956  80.452  0.00  0.00    +0.000 A 
ATOM     12  C   UNL     1     104.140 125.293  80.227  0.00  0.00    +0.000 A 
ATOM     13  C   UNL     1     103.666 125.897  81.377  0.00  0.00    +0.000 A 
ATOM     14  S   UNL     1     103.747 124.832  82.718  0.00  0.00    +0.000 S 
ENDBRANCH   9  13
ENDBRANCH   1   9
TORSDOF 3
ENDMDL
