MODEL 1
REMARK VINA RESULT:      -4.1      0.000      0.000
REMARK  Name = *****
REMARK  5 active torsions:
REMARK  status: ('A' for Active; 'I' for Inactive)
REMARK    1  A    between atoms: C_1  and  C_2
REMARK    2  A    between atoms: C_2  and  C_3
REMARK    3  A    between atoms: C_2  and  O_10
REMARK    4  A    between atoms: C_3  and  C_4
REMARK    5  A    between atoms: O_10  and  C_11
REMARK                            x       y       z     vdW  Elec       q    Type
REMARK                         _______ _______ _______ _____ _____    ______ ____
ROOT
ATOM      1  C   UNL     1      85.568  63.130  86.351  0.00  0.00    +0.000 C 
ATOM      2  C   UNL     1      86.875  63.412  87.093  0.00  0.00    +0.000 C 
ENDROOT
BRANCH   2   3
ATOM      3  C   UNL     1      87.024  62.425  88.269  0.00  0.00    +0.000 C 
BRANCH   3   4
ATOM      4  C   UNL     1      87.447  63.107  89.552  0.00  0.00    +0.000 A 
ATOM      5  C   UNL     1      86.497  63.437  90.528  0.00  0.00    +0.000 A 
ATOM      6  C   UNL     1      86.886  64.074  91.708  0.00  0.00    +0.000 A 
ATOM      7  C   UNL     1      88.226  64.391  91.922  0.00  0.00    +0.000 A 
ATOM      8  C   UNL     1      89.179  64.069  90.957  0.00  0.00    +0.000 A 
ATOM      9  C   UNL     1      88.792  63.430  89.778  0.00  0.00    +0.000 A 
ENDBRANCH   3   4
ENDBRANCH   2   3
BRANCH   2  10
ATOM     10  O   UNL     1      87.970  63.186  86.192  0.00  0.00    +0.000 OA
BRANCH  10  11
ATOM     11  C   UNL     1      88.923  64.152  86.033  0.00  0.00    +0.000 A 
ATOM     12  C   UNL     1      90.151  64.011  85.389  0.00  0.00    +0.000 A 
ATOM     13  C   UNL     1      91.033  65.094  85.311  0.00  0.00    +0.000 A 
ATOM     14  C   UNL     1      90.694  66.320  85.879  0.00  0.00    +0.000 A 
ATOM     15  C   UNL     1      89.472  66.466  86.530  0.00  0.00    +0.000 A 
ATOM     16  C   UNL     1      88.593  65.384  86.605  0.00  0.00    +0.000 A 
ENDBRANCH  10  11
ENDBRANCH   2  10
TORSDOF 4
ENDMDL
