MODEL 1
REMARK VINA RESULT:      -4.5      0.000      0.000
REMARK  Name = *****
REMARK  4 active torsions:
REMARK  status: ('A' for Active; 'I' for Inactive)
REMARK    1  A    between atoms: C_1  and  C_2
REMARK    2  A    between atoms: C_7  and  C_8
REMARK    3  A    between atoms: C_8  and  O_10
REMARK    4  A    between atoms: O_10  and  C_11
REMARK                            x       y       z     vdW  Elec       q    Type
REMARK                         _______ _______ _______ _____ _____    ______ ____
ROOT
ATOM      1  C   UNL     1     101.966 125.943  82.775  0.00  0.00    +0.000 C 
ATOM      2  O   UNL     1     102.394 125.259  83.693  0.00  0.00    +0.000 OA
ENDROOT
BRANCH   1   9
ATOM      3  C   UNL     1     102.598 128.613  84.170  0.00  0.00    +0.000 C 
ATOM      4  C   UNL     1     101.255 128.269  83.590  0.00  0.00    +0.000 A 
ATOM      5  C   UNL     1     100.228 129.226  83.675  0.00  0.00    +0.000 A 
ATOM      6  C   UNL     1      98.948 128.956  83.188  0.00  0.00    +0.000 A 
ATOM      7  C   UNL     1      98.668 127.724  82.608  0.00  0.00    +0.000 A 
ATOM      8  C   UNL     1      99.677 126.766  82.500  0.00  0.00    +0.000 A 
ATOM      9  C   UNL     1     100.975 127.035  82.969  0.00  0.00    +0.000 A 
ENDBRANCH   1   9
BRANCH   1  10
ATOM     10  O   UNL     1     102.186 125.754  81.424  0.00  0.00    +0.000 OA
BRANCH  10  11
ATOM     11  C   UNL     1     103.446 126.218  81.024  0.00  0.00    +0.000 A 
ATOM     12  C   UNL     1     104.545 125.354  80.930  0.00  0.00    +0.000 A 
ATOM     13  C   UNL     1     105.784 125.887  80.553  0.00  0.00    +0.000 A 
ATOM     14  C   UNL     1     105.913 127.258  80.292  0.00  0.00    +0.000 A 
ATOM     15  C   UNL     1     104.811 128.107  80.411  0.00  0.00    +0.000 A 
ATOM     16  C   UNL     1     103.574 127.589  80.785  0.00  0.00    +0.000 A 
ATOM     17 CL   UNL     1     107.206 124.914  80.399  0.00  0.00    +0.000 Cl
ATOM     18 CL   UNL     1     104.357 123.673  81.297  0.00  0.00    +0.000 Cl
ENDBRANCH  10  11
ENDBRANCH   1  10
TORSDOF 3
ENDMDL
