MODEL 1
REMARK VINA RESULT:      -4.7      0.000      0.000
REMARK  Name = *****
REMARK  2 active torsions:
REMARK  status: ('A' for Active; 'I' for Inactive)
REMARK    1  A    between atoms: C_5  and  C_7
REMARK    2  A    between atoms: C_8  and  C_9
REMARK                            x       y       z     vdW  Elec       q    Type
REMARK                         _______ _______ _______ _____ _____    ______ ____
ROOT
ATOM      1  C   UNL     1     102.161 126.059  82.223  0.00  0.00    +0.000 C 
ATOM      2  C   UNL     1     102.930 126.157  81.124  0.00  0.00    +0.000 C 
ENDROOT
BRANCH   1   7
ATOM      3  C   UNL     1      98.712 127.822  82.571  0.00  0.00    +0.000 C 
ATOM      4  C   UNL     1      99.018 128.611  83.832  0.00  0.00    +0.000 C 
ATOM      5  C   UNL     1     100.432 129.182  83.768  0.00  0.00    +0.000 C 
ATOM      6  C   UNL     1     101.468 128.195  83.276  0.00  0.00    +0.000 C 
ATOM      7  C   UNL     1     101.153 127.026  82.670  0.00  0.00    +0.000 C 
ATOM      8  C   UNL     1      99.698 126.666  82.405  0.00  0.00    +0.000 C 
ATOM      9 BR   UNL     1     103.219 128.789  83.644  0.00  0.00    +0.000 Br
ENDBRANCH   1   7
BRANCH   2  10
ATOM     10  C   UNL     1     103.928 125.149  80.737  0.00  0.00    +0.000 A 
ATOM     11  C   UNL     1     104.798 125.336  79.653  0.00  0.00    +0.000 A 
ATOM     12  C   UNL     1     105.754 124.368  79.335  0.00  0.00    +0.000 A 
ATOM     13  C   UNL     1     105.857 123.209  80.102  0.00  0.00    +0.000 A 
ATOM     14  C   UNL     1     105.009 123.019  81.190  0.00  0.00    +0.000 A 
ATOM     15  C   UNL     1     104.054 123.987  81.510  0.00  0.00    +0.000 A 
ENDBRANCH   2  10
TORSDOF 2
ENDMDL
