MODEL 1
REMARK VINA RESULT:      -4.6      0.000      0.000
REMARK  Name = *****
REMARK  4 active torsions:
REMARK  status: ('A' for Active; 'I' for Inactive)
REMARK    1  A    between atoms: C_4  and  C_7
REMARK    2  A    between atoms: C_7  and  C_8
REMARK    3  A    between atoms: C_8  and  O_10
REMARK    4  A    between atoms: O_10  and  C_11
REMARK                            x       y       z     vdW  Elec       q    Type
REMARK                         _______ _______ _______ _____ _____    ______ ____
ROOT
ATOM      1  C   UNL     1     103.601 128.171  82.192  0.00  0.00    +0.000 C 
ATOM      2  O   UNL     1     104.288 129.130  82.517  0.00  0.00    +0.000 OA
ENDROOT
BRANCH   1   3
ATOM      3  C   UNL     1     103.452 127.595  80.799  0.00  0.00    +0.000 C 
BRANCH   3   7
ATOM      4  C   UNL     1     105.866 124.100  80.040  0.00  0.00    +0.000 A 
ATOM      5  C   UNL     1     106.422 125.371  79.917  0.00  0.00    +0.000 A 
ATOM      6  C   UNL     1     105.642 126.502  80.162  0.00  0.00    +0.000 A 
ATOM      7  C   UNL     1     104.296 126.371  80.536  0.00  0.00    +0.000 A 
ATOM      8  C   UNL     1     103.746 125.087  80.650  0.00  0.00    +0.000 A 
ATOM      9  C   UNL     1     104.529 123.957  80.406  0.00  0.00    +0.000 A 
ENDBRANCH   3   7
ENDBRANCH   1   3
BRANCH   1  10
ATOM     10  O   UNL     1     102.845 127.379  83.062  0.00  0.00    +0.000 OA
BRANCH  10  11
ATOM     11  C   UNL     1     101.476 127.651  83.005  0.00  0.00    +0.000 A 
ATOM     12  C   UNL     1     100.599 126.690  82.506  0.00  0.00    +0.000 A 
ATOM     13  C   UNL     1      99.236 126.970  82.503  0.00  0.00    +0.000 A 
ATOM     14  C   UNL     1      98.746 128.172  82.999  0.00  0.00    +0.000 A 
ATOM     15  C   UNL     1      99.642 129.105  83.509  0.00  0.00    +0.000 A 
ATOM     16  C   UNL     1     101.010 128.856  83.526  0.00  0.00    +0.000 A 
ATOM     17  F   UNL     1      99.180 130.261  84.001  0.00  0.00    +0.000 F 
ATOM     18  F   UNL     1      98.380 126.060  82.022  0.00  0.00    +0.000 F 
ENDBRANCH  10  11
ENDBRANCH   1  10
TORSDOF 4
ENDMDL
