MODEL 1
REMARK VINA RESULT:      -4.3      0.000      0.000
REMARK  Name = *****
REMARK  4 active torsions:
REMARK  status: ('A' for Active; 'I' for Inactive)
REMARK    1  A    between atoms: C_1  and  C_2
REMARK    2  A    between atoms: C_5  and  S_8
REMARK    3  A    between atoms: S_8  and  O_10
REMARK    4  A    between atoms: O_10  and  C_11
REMARK                            x       y       z     vdW  Elec       q    Type
REMARK                         _______ _______ _______ _____ _____    ______ ____
ROOT
ATOM      1  S   UNL     1      88.798  69.367  87.088  0.00  0.00    +0.000 S 
ATOM      2  O   UNL     1      90.035  68.577  86.773  0.00  0.00    +0.000 OA
ENDROOT
BRANCH   1   7
ATOM      3  C   UNL     1      88.352  73.564  82.656  0.00  0.00    +0.000 C 
ATOM      4  C   UNL     1      88.456  72.551  83.758  0.00  0.00    +0.000 A 
ATOM      5  C   UNL     1      89.710  72.094  84.184  0.00  0.00    +0.000 A 
ATOM      6  C   UNL     1      89.807  71.128  85.189  0.00  0.00    +0.000 A 
ATOM      7  C   UNL     1      88.651  70.602  85.776  0.00  0.00    +0.000 A 
ATOM      8  C   UNL     1      87.398  71.048  85.343  0.00  0.00    +0.000 A 
ATOM      9  C   UNL     1      87.302  72.009  84.335  0.00  0.00    +0.000 A 
ENDBRANCH   1   7
BRANCH   1  10
ATOM     10  O   UNL     1      89.202  70.477  88.188  0.00  0.00    +0.000 OA
BRANCH  10  11
ATOM     11  C   UNL     1      88.408  70.497  89.376  0.00  0.00    +0.000 C 
ATOM     12  C   UNL     1      88.595  71.875  90.033  0.00  0.00    +0.000 C 
ATOM     13  C   UNL     1      87.398  72.273  90.903  0.00  0.00    +0.000 C 
ATOM     14  C   UNL     1      86.099  71.756  90.275  0.00  0.00    +0.000 C 
ATOM     15  C   UNL     1      86.042  70.202  90.276  0.00  0.00    +0.000 C 
ATOM     16  C   UNL     1      86.930  70.301  89.001  0.00  0.00    +0.000 C 
ATOM     17  C   UNL     1      86.137  71.618  88.718  0.00  0.00    +0.000 C 
ENDBRANCH  10  11
ENDBRANCH   1  10
TORSDOF 3
ENDMDL
