MODEL 1
REMARK VINA RESULT:      -4.4      0.000      0.000
REMARK  Name = *****
REMARK  4 active torsions:
REMARK  status: ('A' for Active; 'I' for Inactive)
REMARK    1  A    between atoms: C_1  and  O_2
REMARK    2  A    between atoms: O_2  and  C_3
REMARK    3  A    between atoms: C_6  and  C_9
REMARK    4  A    between atoms: C_10  and  C_11
REMARK                            x       y       z     vdW  Elec       q    Type
REMARK                         _______ _______ _______ _____ _____    ______ ____
ROOT
ATOM      1  C   UNL     1      95.971 114.466  77.545  0.00  0.00    +0.000 A 
ATOM      2  C   UNL     1      95.821 114.455  78.933  0.00  0.00    +0.000 A 
ATOM      3  C   UNL     1      96.353 115.495  79.706  0.00  0.00    +0.000 A 
ATOM      4  C   UNL     1      97.037 116.547  79.094  0.00  0.00    +0.000 A 
ATOM      5  C   UNL     1      97.190 116.560  77.709  0.00  0.00    +0.000 A 
ATOM      6  C   UNL     1      96.658 115.522  76.940  0.00  0.00    +0.000 A 
ENDROOT
BRANCH   1   8
ATOM      7  C   UNL     1      96.049 113.518  75.366  0.00  0.00    +0.000 C 
ATOM      8  O   UNL     1      95.500 113.519  76.678  0.00  0.00    +0.000 OA
ENDBRANCH   1   8
BRANCH   4   9
ATOM      9  C   UNL     1      97.577 117.608  79.887  0.00  0.00    +0.000 C 
ATOM     10  C   UNL     1      98.029 118.501  80.553  0.00  0.00    +0.000 C 
BRANCH  10  11
ATOM     11  C   UNL     1      98.585 119.597  81.372  0.00  0.00    +0.000 C 
ATOM     12  C   UNL     1      98.876 119.122  82.803  0.00  0.00    +0.000 C 
ATOM     13  C   UNL     1      97.609 118.919  83.635  0.00  0.00    +0.000 C 
ATOM     14  C   UNL     1      96.725 120.162  83.627  0.00  0.00    +0.000 C 
ATOM     15  C   UNL     1      96.391 120.606  82.206  0.00  0.00    +0.000 C 
ATOM     16  C   UNL     1      97.653 120.816  81.369  0.00  0.00    +0.000 C 
ENDBRANCH  10  11
ENDBRANCH   4   9
TORSDOF 3
ENDMDL
