REMARK  Name = *****
REMARK  2 active torsions:
REMARK  status: ('A' for Active; 'I' for Inactive)
REMARK    1  A    between atoms: C_4  and  C_6
REMARK    2  A    between atoms: C_7  and  C_8
REMARK                            x       y       z     vdW  Elec       q    Type
REMARK                         _______ _______ _______ _____ _____    ______ ____
ROOT
ATOM      1  C   UNL     1      -0.124  -2.683  -0.091  0.00  0.00    +0.000 C 
ATOM      2  C   UNL     1       0.789  -3.666  -0.035  0.00  0.00    +0.000 C 
ENDROOT
BRANCH   2   3
ATOM      3  C   UNL     1       0.434  -5.049  -0.092  0.00  0.00    +0.000 A 
ATOM      4  C   UNL     1      -0.799  -5.678  -0.204  0.00  0.00    +0.000 A 
ATOM      5  C   UNL     1      -0.709  -7.103  -0.227  0.00  0.00    +0.000 A 
ATOM      6  C   UNL     1       0.593  -7.515  -0.131  0.00  0.00    +0.000 A 
ATOM      7  S   UNL     1       1.691  -6.237  -0.015  0.00  0.00    +0.000 S 
ATOM      8 BR   UNL     1       1.111  -9.315  -0.128  0.00  0.00    +0.000 Br
ENDBRANCH   2   3
BRANCH   1  12
ATOM      9  C   UNL     1       1.368   0.753   0.090  0.00  0.00    +0.000 A 
ATOM     10  C   UNL     1       0.066   1.182  -0.005  0.00  0.00    +0.000 A 
ATOM     11  S   UNL     1      -1.029  -0.121  -0.115  0.00  0.00    +0.000 S 
ATOM     12  C   UNL     1       0.234  -1.301  -0.037  0.00  0.00    +0.000 A 
ATOM     13  C   UNL     1       1.463  -0.670   0.072  0.00  0.00    +0.000 A 
ENDBRANCH   1  12
TORSDOF 2
