MODEL 1
REMARK VINA RESULT:      -4.4      0.000      0.000
REMARK  Name = *****
REMARK  5 active torsions:
REMARK  status: ('A' for Active; 'I' for Inactive)
REMARK    1  A    between atoms: C_1  and  C_2
REMARK    2  A    between atoms: C_2  and  C_4
REMARK    3  A    between atoms: C_4  and  C_5
REMARK    4  A    between atoms: C_4  and  C_12
REMARK    5  A    between atoms: C_5  and  C_6
REMARK                            x       y       z     vdW  Elec       q    Type
REMARK                         _______ _______ _______ _____ _____    ______ ____
ROOT
ATOM      1  C   UNL     1      87.386  64.312  87.826  0.00  0.00    +0.000 C 
ATOM      2 CL   UNL     1      86.193  65.618  87.316  0.00  0.00    +0.000 Cl
ENDROOT
BRANCH   1   3
ATOM      3  C   UNL     1      87.649  64.396  89.339  0.00  0.00    +0.000 A 
ATOM      4  C   UNL     1      88.832  63.858  89.886  0.00  0.00    +0.000 A 
ATOM      5  C   UNL     1      89.076  63.889  91.261  0.00  0.00    +0.000 A 
ATOM      6  C   UNL     1      88.136  64.444  92.123  0.00  0.00    +0.000 A 
ATOM      7  C   UNL     1      86.948  64.954  91.612  0.00  0.00    +0.000 A 
ATOM      8  C   UNL     1      86.701  64.921  90.237  0.00  0.00    +0.000 A 
ENDBRANCH   1   3
BRANCH   1  10
ATOM      9  C   UNL     1      89.052  66.110  86.860  0.00  0.00    +0.000 C 
ATOM     10  C   UNL     1      88.629  64.658  86.964  0.00  0.00    +0.000 C 
ATOM     11  O   UNL     1      89.235  63.818  86.291  0.00  0.00    +0.000 OA
ENDBRANCH   1  10
BRANCH   1  12
ATOM     12  C   UNL     1      86.737  62.958  87.422  0.00  0.00    +0.000 C 
BRANCH  12  13
ATOM     13  C   UNL     1      85.735  62.352  88.387  0.00  0.00    +0.000 A 
ATOM     14  C   UNL     1      84.400  62.780  88.388  0.00  0.00    +0.000 A 
ATOM     15  C   UNL     1      83.476  62.232  89.280  0.00  0.00    +0.000 A 
ATOM     16  C   UNL     1      83.874  61.242  90.175  0.00  0.00    +0.000 A 
ATOM     17  C   UNL     1      85.193  60.799  90.177  0.00  0.00    +0.000 A 
ATOM     18  C   UNL     1      86.118  61.348  89.286  0.00  0.00    +0.000 A 
ENDBRANCH  12  13
ENDBRANCH   1  12
TORSDOF 4
ENDMDL
