REMARK  Name = *****
REMARK  1 active torsions:
REMARK  status: ('A' for Active; 'I' for Inactive)
REMARK    1  A    between atoms: C_6  and  C_7
REMARK                            x       y       z     vdW  Elec       q    Type
REMARK                         _______ _______ _______ _____ _____    ______ ____
ROOT
ATOM      1  C   UNL     1      -2.551  -0.742   0.262  0.00  0.00    +0.000 C 
ATOM      2  C   UNL     1      -1.303  -1.501  -0.181  0.00  0.00    +0.000 C 
ATOM      3  C   UNL     1       0.008  -0.744  -0.003  0.00  0.00    +0.000 C 
ATOM      4  C   UNL     1       0.018   0.590   0.224  0.00  0.00    +0.000 C 
ATOM      5  C   UNL     1      -1.268   1.408   0.275  0.00  0.00    +0.000 C 
ATOM      6  C   UNL     1      -2.508   0.685  -0.280  0.00  0.00    +0.000 C 
ATOM      7  S   UNL     1       1.447   1.560   0.509  0.00  0.00    +0.000 S 
ATOM      8  C   UNL     1       2.695   0.639  -0.410  0.00  0.00    +0.000 C 
ATOM      9  C   UNL     1       2.836  -0.748   0.177  0.00  0.00    +0.000 C 
ATOM     10  S   UNL     1       1.404  -1.796  -0.150  0.00  0.00    +0.000 S 
ENDROOT
BRANCH   6  11
ATOM     11  C   UNL     1      -3.802   1.429  -0.002  0.00  0.00    +0.000 A 
ATOM     12  C   UNL     1      -4.644   1.782  -1.068  0.00  0.00    +0.000 A 
ATOM     13  C   UNL     1      -5.845   2.457  -0.837  0.00  0.00    +0.000 A 
ATOM     14  C   UNL     1      -6.221   2.787   0.463  0.00  0.00    +0.000 A 
ATOM     15  C   UNL     1      -5.399   2.439   1.532  0.00  0.00    +0.000 A 
ATOM     16  C   UNL     1      -4.201   1.760   1.302  0.00  0.00    +0.000 A 
ENDBRANCH   6  11
TORSDOF 1
