REMARK  Name = *****
REMARK  2 active torsions:
REMARK  status: ('A' for Active; 'I' for Inactive)
REMARK    1  A    between atoms: C_7  and  C_8
REMARK    2  A    between atoms: C_8  and  C_9
REMARK                            x       y       z     vdW  Elec       q    Type
REMARK                         _______ _______ _______ _____ _____    ______ ____
ROOT
ATOM      1  C   UNL     1       1.138  -2.054  -1.504  0.00  0.00    +0.000 C 
ENDROOT
BRANCH   1   8
ATOM      2  C   UNL     1      -1.618   1.073   0.480  0.00  0.00    +0.000 C 
ATOM      3  C   UNL     1      -0.460   1.802  -0.199  0.00  0.00    +0.000 C 
ATOM      4  C   UNL     1       0.883   1.188   0.198  0.00  0.00    +0.000 C 
ATOM      5  C   UNL     1       0.907  -0.307   0.128  0.00  0.00    +0.000 C 
ATOM      6  C   UNL     1      -0.385  -1.086   0.083  0.00  0.00    +0.000 C 
ATOM      7  C   UNL     1      -1.707  -0.380   0.015  0.00  0.00    +0.000 C 
ATOM      8  C   UNL     1       0.503  -1.009  -1.070  0.00  0.00    +0.000 C 
ENDBRANCH   1   8
BRANCH   1   9
ATOM      9  C   UNL     1       1.765  -3.102  -1.940  0.00  0.00    +0.000 C 
ATOM     10  C   UNL     1       2.572  -3.060  -3.142  0.00  0.00    +0.000 C 
ATOM     11  C   UNL     1       1.287  -3.841  -3.089  0.00  0.00    +0.000 C 
ATOM     12  C   UNL     1       1.422  -5.331  -3.156  0.00  0.00    +0.000 C 
ATOM     13  C   UNL     1       2.360  -5.725  -4.300  0.00  0.00    +0.000 C 
ATOM     14  C   UNL     1       3.680  -4.932  -4.347  0.00  0.00    +0.000 C 
ATOM     15  C   UNL     1       3.827  -3.871  -3.252  0.00  0.00    +0.000 C 
ENDBRANCH   1   9
TORSDOF 2
