REMARK  Name = *****
REMARK  4 active torsions:
REMARK  status: ('A' for Active; 'I' for Inactive)
REMARK    1  A    between atoms: C_1  and  C_2
REMARK    2  A    between atoms: C_2  and  C_4
REMARK    3  A    between atoms: C_7  and  C_10
REMARK    4  A    between atoms: C_11  and  C_12
REMARK                            x       y       z     vdW  Elec       q    Type
REMARK                         _______ _______ _______ _____ _____    ______ ____
ROOT
ATOM      1  C   UNL     1       3.211  -0.542   1.252  0.00  0.00    +0.000 A 
ATOM      2  C   UNL     1       2.719  -1.626   1.989  0.00  0.00    +0.000 A 
ATOM      3  C   UNL     1       3.367  -2.030   3.163  0.00  0.00    +0.000 A 
ATOM      4  C   UNL     1       4.507  -1.355   3.605  0.00  0.00    +0.000 A 
ATOM      5  C   UNL     1       5.006  -0.279   2.870  0.00  0.00    +0.000 A 
ATOM      6  C   UNL     1       4.360   0.126   1.698  0.00  0.00    +0.000 A 
ENDROOT
BRANCH   1   8
ATOM      7  C   UNL     1       1.271  -0.719  -0.446  0.00  0.00    +0.000 C 
ATOM      8  C   UNL     1       2.551  -0.063   0.001  0.00  0.00    +0.000 C 
ATOM      9  O   UNL     1       3.055   0.853  -0.646  0.00  0.00    +0.000 OA
ENDBRANCH   1   8
BRANCH   4  10
ATOM     10  C   UNL     1       5.154  -1.756   4.816  0.00  0.00    +0.000 C 
ATOM     11  C   UNL     1       5.691  -2.074   5.842  0.00  0.00    +0.000 C 
BRANCH  11  12
ATOM     12  C   UNL     1       6.322  -2.433   7.074  0.00  0.00    +0.000 A 
ATOM     13  C   UNL     1       6.948  -1.453   7.846  0.00  0.00    +0.000 A 
ATOM     14  C   UNL     1       7.551  -1.813   9.046  0.00  0.00    +0.000 A 
ATOM     15  C   UNL     1       7.541  -3.131   9.490  0.00  0.00    +0.000 A 
ATOM     16  C   UNL     1       6.918  -4.111   8.719  0.00  0.00    +0.000 A 
ATOM     17  C   UNL     1       6.308  -3.762   7.511  0.00  0.00    +0.000 A 
ATOM     18  F   UNL     1       8.150  -0.873   9.789  0.00  0.00    +0.000 F 
ENDBRANCH  11  12
ENDBRANCH   4  10
TORSDOF 3
