MODEL 1
REMARK VINA RESULT:      -4.9      0.000      0.000
REMARK  Name = *****
REMARK  6 active torsions:
REMARK  status: ('A' for Active; 'I' for Inactive)
REMARK    1  A    between atoms: C_1  and  O_2
REMARK    2  A    between atoms: O_2  and  C_3
REMARK    3  A    between atoms: C_5  and  C_11
REMARK    4  A    between atoms: C_6  and  O_9
REMARK    5  A    between atoms: O_9  and  C_10
REMARK    6  A    between atoms: C_12  and  C_13
REMARK                            x       y       z     vdW  Elec       q    Type
REMARK                         _______ _______ _______ _____ _____    ______ ____
ROOT
ATOM      1  C   UNL     1      99.194 127.204  82.679  0.00  0.00    +0.000 A 
ATOM      2  C   UNL     1     100.377 126.550  82.321  0.00  0.00    +0.000 A 
ATOM      3  C   UNL     1     101.632 127.117  82.608  0.00  0.00    +0.000 A 
ATOM      4  C   UNL     1     101.673 128.338  83.302  0.00  0.00    +0.000 A 
ATOM      5  C   UNL     1     100.496 129.008  83.639  0.00  0.00    +0.000 A 
ATOM      6  C   UNL     1      99.262 128.436  83.332  0.00  0.00    +0.000 A 
ENDROOT
BRANCH   1   8
ATOM      7  C   UNL     1      97.005 126.824  83.528  0.00  0.00    +0.000 C 
ATOM      8  O   UNL     1      97.923 126.754  82.445  0.00  0.00    +0.000 OA
ENDBRANCH   1   8
BRANCH   4   9
ATOM      9  O   UNL     1     102.861 128.945  83.623  0.00  0.00    +0.000 OA
ATOM     10  C   UNL     1     102.622 130.076  84.460  0.00  0.00    +0.000 C 
ENDBRANCH   4   9
BRANCH   3  11
ATOM     11  C   UNL     1     102.829 126.364  82.201  0.00  0.00    +0.000 C 
ATOM     12  C   UNL     1     102.922 125.703  81.036  0.00  0.00    +0.000 C 
BRANCH  12  13
ATOM     13  C   UNL     1     104.115 124.956  80.614  0.00  0.00    +0.000 A 
ATOM     14  C   UNL     1     104.349 123.633  81.017  0.00  0.00    +0.000 A 
ATOM     15  C   UNL     1     105.483 122.948  80.572  0.00  0.00    +0.000 A 
ATOM     16  C   UNL     1     106.376 123.583  79.717  0.00  0.00    +0.000 A 
ATOM     17  C   UNL     1     106.155 124.889  79.294  0.00  0.00    +0.000 A 
ATOM     18  C   UNL     1     105.021 125.573  79.738  0.00  0.00    +0.000 A 
ATOM     19  F   UNL     1     107.461 122.926  79.291  0.00  0.00    +0.000 F 
ENDBRANCH  12  13
ENDBRANCH   3  11
TORSDOF 4
ENDMDL
