REMARK  Name = *****
REMARK  5 active torsions:
REMARK  status: ('A' for Active; 'I' for Inactive)
REMARK    1  A    between atoms: C_1  and  C_2
REMARK    2  A    between atoms: C_2  and  O_4
REMARK    3  A    between atoms: O_4  and  C_5
REMARK    4  A    between atoms: C_9  and  C_11
REMARK    5  A    between atoms: C_12  and  C_13
REMARK                            x       y       z     vdW  Elec       q    Type
REMARK                         _______ _______ _______ _____ _____    ______ ____
ROOT
ATOM      1  C   UNL     1       4.662  -1.192  -0.026  0.00  0.00    +0.000 A 
ATOM      2  C   UNL     1       5.347  -0.613   1.043  0.00  0.00    +0.000 A 
ATOM      3  C   UNL     1       6.739  -0.679   1.081  0.00  0.00    +0.000 A 
ATOM      4  C   UNL     1       7.435  -1.338   0.065  0.00  0.00    +0.000 A 
ATOM      5  C   UNL     1       6.741  -1.937  -0.991  0.00  0.00    +0.000 A 
ATOM      6  C   UNL     1       5.348  -1.869  -1.036  0.00  0.00    +0.000 A 
ENDROOT
BRANCH   5   7
ATOM      7  C   UNL     1       7.467  -2.627  -2.012  0.00  0.00    +0.000 C 
ATOM      8  C   UNL     1       8.110  -3.202  -2.848  0.00  0.00    +0.000 C 
BRANCH   8   9
ATOM      9  C   UNL     1       8.912  -3.880  -3.820  0.00  0.00    +0.000 A 
ATOM     10  C   UNL     1      10.301  -3.911  -3.674  0.00  0.00    +0.000 A 
ATOM     11  C   UNL     1      11.090  -4.571  -4.619  0.00  0.00    +0.000 A 
ATOM     12  C   UNL     1      10.491  -5.200  -5.710  0.00  0.00    +0.000 A 
ATOM     13  C   UNL     1       9.104  -5.171  -5.857  0.00  0.00    +0.000 A 
ATOM     14  C   UNL     1       8.314  -4.511  -4.913  0.00  0.00    +0.000 A 
ENDBRANCH   8   9
ENDBRANCH   5   7
BRANCH   1  15
ATOM     15  O   UNL     1       3.258  -1.213  -0.094  0.00  0.00    +0.000 OA
BRANCH  15  17
ATOM     16  C   UNL     1       1.086  -0.325   0.063  0.00  0.00    +0.000 C 
ATOM     17  C   UNL     1       2.555  -0.036   0.154  0.00  0.00    +0.000 C 
ATOM     18  O   UNL     1       3.026   1.070   0.380  0.00  0.00    +0.000 OA
ENDBRANCH  15  17
ENDBRANCH   1  15
TORSDOF 4
