MODEL 1
REMARK VINA RESULT:      -5.1      0.000      0.000
REMARK  Name = *****
REMARK  2 active torsions:
REMARK  status: ('A' for Active; 'I' for Inactive)
REMARK    1  A    between atoms: C_3  and  C_10
REMARK    2  A    between atoms: C_10  and  C_11
REMARK                            x       y       z     vdW  Elec       q    Type
REMARK                         _______ _______ _______ _____ _____    ______ ____
ROOT
ATOM      1  C   UNL     1      88.518  70.598  88.838  0.00  0.00    +0.000 C 
ATOM      2  C   UNL     1      88.904  70.261  87.420  0.00  0.00    +0.000 C 
ATOM      3  C   UNL     1      87.941  70.559  86.527  0.00  0.00    +0.000 C 
ATOM      4  C   UNL     1      86.826  71.151  87.269  0.00  0.00    +0.000 A 
ATOM      5  C   UNL     1      85.611  71.649  86.830  0.00  0.00    +0.000 A 
ATOM      6  C   UNL     1      84.720  72.166  87.776  0.00  0.00    +0.000 A 
ATOM      7  C   UNL     1      85.051  72.184  89.141  0.00  0.00    +0.000 A 
ATOM      8  C   UNL     1      86.279  71.686  89.580  0.00  0.00    +0.000 A 
ATOM      9  C   UNL     1      87.153  71.175  88.633  0.00  0.00    +0.000 A 
ENDROOT
BRANCH   3  10
ATOM     10  C   UNL     1      87.976  70.385  85.044  0.00  0.00    +0.000 C 
BRANCH  10  11
ATOM     11  C   UNL     1      88.364  71.634  84.288  0.00  0.00    +0.000 A 
ATOM     12  C   UNL     1      87.394  72.415  83.640  0.00  0.00    +0.000 A 
ATOM     13  C   UNL     1      87.760  73.564  82.935  0.00  0.00    +0.000 A 
ATOM     14  C   UNL     1      89.099  73.946  82.865  0.00  0.00    +0.000 A 
ATOM     15  C   UNL     1      90.072  73.177  83.499  0.00  0.00    +0.000 A 
ATOM     16  C   UNL     1      89.701  72.034  84.201  0.00  0.00    +0.000 A 
ATOM     17  F   UNL     1      90.658  71.311  84.800  0.00  0.00    +0.000 F 
ENDBRANCH  10  11
ENDBRANCH   3  10
TORSDOF 2
ENDMDL
