MODEL 1
REMARK VINA RESULT:      -4.9      0.000      0.000
REMARK  Name = *****
REMARK  2 active torsions:
REMARK  status: ('A' for Active; 'I' for Inactive)
REMARK    1  A    between atoms: C_3  and  C_8
REMARK    2  A    between atoms: N_10  and  C_11
REMARK                            x       y       z     vdW  Elec       q    Type
REMARK                         _______ _______ _______ _____ _____    ______ ____
ROOT
ATOM      1  C   UNL     1     102.856 125.257  82.530  0.00  0.00    +0.000 C 
ATOM      2  O   UNL     1     102.809 124.961  83.717  0.00  0.00    +0.000 OA
ATOM      3  N   UNL     1     102.057 126.176  81.873  0.00  0.00    +0.000 N 
ATOM      4  H   UNL     1     102.181 126.245  80.899  0.00  0.00    +0.000 HD
ENDROOT
BRANCH   1   7
ATOM      5  C   UNL     1     105.280 122.616  81.338  0.00  0.00    +0.000 A 
ATOM      6  C   UNL     1     104.358 123.320  82.118  0.00  0.00    +0.000 A 
ATOM      7  C   UNL     1     103.834 124.540  81.665  0.00  0.00    +0.000 A 
ATOM      8  C   UNL     1     104.259 125.069  80.443  0.00  0.00    +0.000 A 
ATOM      9  C   UNL     1     105.178 124.358  79.680  0.00  0.00    +0.000 A 
ATOM     10  C   UNL     1     105.688 123.137  80.112  0.00  0.00    +0.000 A 
ATOM     11  F   UNL     1     105.583 124.861  78.507  0.00  0.00    +0.000 F 
ENDBRANCH   1   7
BRANCH   3  12
ATOM     12  C   UNL     1     101.084 127.025  82.443  0.00  0.00    +0.000 A 
ATOM     13  C   UNL     1     101.382 128.202  83.133  0.00  0.00    +0.000 A 
ATOM     14  C   UNL     1     100.351 128.985  83.658  0.00  0.00    +0.000 A 
ATOM     15  C   UNL     1      99.019 128.608  83.501  0.00  0.00    +0.000 A 
ATOM     16  C   UNL     1      98.713 127.437  82.811  0.00  0.00    +0.000 A 
ATOM     17  C   UNL     1      99.742 126.652  82.285  0.00  0.00    +0.000 A 
ATOM     18 CL   UNL     1     100.724 130.437  84.506  0.00  0.00    +0.000 Cl
ENDBRANCH   3  12
TORSDOF 2
ENDMDL
