REMARK  Name = *****
REMARK  2 active torsions:
REMARK  status: ('A' for Active; 'I' for Inactive)
REMARK    1  A    between atoms: C_4  and  C_7
REMARK    2  A    between atoms: C_8  and  C_10
REMARK                            x       y       z     vdW  Elec       q    Type
REMARK                         _______ _______ _______ _____ _____    ______ ____
ROOT
ATOM      1  C   UNL     1      -2.822   0.530  -0.162  0.00  0.00    +0.000 C 
ATOM      2  C   UNL     1      -3.809   0.001   0.867  0.00  0.00    +0.000 C 
ATOM      3  S   UNL     1      -3.843  -0.768  -0.684  0.00  0.00    +0.000 S 
ENDROOT
BRANCH   1   7
ATOM      4  C   UNL     1       1.433  -0.232   0.274  0.00  0.00    +0.000 A 
ATOM      5  C   UNL     1       0.801  -0.493  -0.937  0.00  0.00    +0.000 A 
ATOM      6  C   UNL     1      -0.569  -0.254  -1.076  0.00  0.00    +0.000 A 
ATOM      7  C   UNL     1      -1.345   0.238  -0.010  0.00  0.00    +0.000 A 
ATOM      8  C   UNL     1      -0.674   0.505   1.197  0.00  0.00    +0.000 A 
ATOM      9  C   UNL     1       0.697   0.269   1.342  0.00  0.00    +0.000 A 
ENDBRANCH   1   7
BRANCH   2  10
ATOM     10  C   UNL     1      -5.005   0.838   1.262  0.00  0.00    +0.000 A 
ATOM     11  C   UNL     1      -6.308   0.307   1.295  0.00  0.00    +0.000 A 
ATOM     12  C   UNL     1      -7.405   1.079   1.689  0.00  0.00    +0.000 A 
ATOM     13  C   UNL     1      -7.222   2.403   2.075  0.00  0.00    +0.000 A 
ATOM     14  C   UNL     1      -5.944   2.952   2.069  0.00  0.00    +0.000 A 
ATOM     15  C   UNL     1      -4.851   2.176   1.672  0.00  0.00    +0.000 A 
ENDBRANCH   2  10
TORSDOF 2
