REMARK  Name = *****
REMARK  3 active torsions:
REMARK  status: ('A' for Active; 'I' for Inactive)
REMARK    1  A    between atoms: C_1  and  C_2
REMARK    2  A    between atoms: C_4  and  C_8
REMARK    3  A    between atoms: C_9  and  C_10
REMARK                            x       y       z     vdW  Elec       q    Type
REMARK                         _______ _______ _______ _____ _____    ______ ____
ROOT
ATOM      1  C   UNL     1      -1.821   2.153   0.692  0.00  0.00    +0.000 C 
ATOM      2  C   UNL     1      -2.550   2.709  -0.290  0.00  0.00    +0.000 C 
ATOM      3 CL   UNL     1      -1.735   2.790   2.293  0.00  0.00    +0.000 Cl
ENDROOT
BRANCH   1   7
ATOM      4  C   UNL     1       2.639  -0.091   0.241  0.00  0.00    +0.000 C 
ATOM      5  C   UNL     1       1.141  -0.148   0.189  0.00  0.00    +0.000 A 
ATOM      6  C   UNL     1       0.375   0.996   0.451  0.00  0.00    +0.000 A 
ATOM      7  C   UNL     1      -1.027   0.942   0.438  0.00  0.00    +0.000 A 
ATOM      8  C   UNL     1      -1.660  -0.279   0.169  0.00  0.00    +0.000 A 
ATOM      9  C   UNL     1      -0.905  -1.425  -0.077  0.00  0.00    +0.000 A 
ATOM     10  C   UNL     1       0.489  -1.361  -0.063  0.00  0.00    +0.000 A 
ENDBRANCH   1   7
BRANCH   2  11
ATOM     11  C   UNL     1      -3.410   3.933  -0.196  0.00  0.00    +0.000 C 
ATOM     12  S   UNL     1      -2.758   5.283  -1.216  0.00  0.00    +0.000 S 
ATOM     13  C   UNL     1      -3.074   4.649  -2.885  0.00  0.00    +0.000 C 
ATOM     14  C   UNL     1      -4.543   4.354  -3.143  0.00  0.00    +0.000 C 
ATOM     15  C   UNL     1      -5.087   3.197  -2.320  0.00  0.00    +0.000 C 
ATOM     16  S   UNL     1      -5.148   3.549  -0.542  0.00  0.00    +0.000 S 
ENDBRANCH   2  11
TORSDOF 2
