MODEL 1
REMARK VINA RESULT:      -4.6      0.000      0.000
REMARK  Name = *****
REMARK  3 active torsions:
REMARK  status: ('A' for Active; 'I' for Inactive)
REMARK    1  A    between atoms: C_3  and  C_4
REMARK    2  A    between atoms: C_9  and  N_10
REMARK    3  A    between atoms: C_11  and  C_12
REMARK                            x       y       z     vdW  Elec       q    Type
REMARK                         _______ _______ _______ _____ _____    ______ ____
ROOT
ATOM      1  C   UNL     1     101.301 128.192  83.573  0.00  0.00    +0.000 A 
ATOM      2  C   UNL     1     100.264 129.144  83.627  0.00  0.00    +0.000 A 
ATOM      3  C   UNL     1      98.993 128.877  83.115  0.00  0.00    +0.000 A 
ATOM      4  C   UNL     1      98.726 127.644  82.531  0.00  0.00    +0.000 A 
ATOM      5  C   UNL     1      99.736 126.688  82.451  0.00  0.00    +0.000 A 
ATOM      6  C   UNL     1     101.020 126.955  82.947  0.00  0.00    +0.000 A 
ENDROOT
BRANCH   1   9
ATOM      7  C   UNL     1     103.100 129.962  84.291  0.00  0.00    +0.000 C 
ATOM      8  C   UNL     1     103.745 129.103  83.249  0.00  0.00    +0.000 C 
ATOM      9  C   UNL     1     102.669 128.521  84.138  0.00  0.00    +0.000 C 
ENDBRANCH   1   9
BRANCH   6  10
ATOM     10  N   UNL     1     101.997 125.949  82.832  0.00  0.00    +0.000 NA
ATOM     11  C   UNL     1     102.592 125.872  81.683  0.00  0.00    +0.000 C 
BRANCH  11  12
ATOM     12  C   UNL     1     103.652 124.881  81.417  0.00  0.00    +0.000 A 
ATOM     13  C   UNL     1     104.041 123.968  82.400  0.00  0.00    +0.000 A 
ATOM     14  C   UNL     1     105.047 123.041  82.126  0.00  0.00    +0.000 A 
ATOM     15  C   UNL     1     105.662 123.029  80.873  0.00  0.00    +0.000 A 
ATOM     16  C   UNL     1     105.272 123.941  79.892  0.00  0.00    +0.000 A 
ATOM     17  C   UNL     1     104.267 124.871  80.162  0.00  0.00    +0.000 A 
ENDBRANCH  11  12
ENDBRANCH   6  10
TORSDOF 3
ENDMDL
