MODEL 1
REMARK VINA RESULT:      -4.4      0.000      0.000
REMARK  Name = *****
REMARK  2 active torsions:
REMARK  status: ('A' for Active; 'I' for Inactive)
REMARK    1  A    between atoms: C_4  and  C_7
REMARK    2  A    between atoms: C_8  and  C_9
REMARK                            x       y       z     vdW  Elec       q    Type
REMARK                         _______ _______ _______ _____ _____    ______ ____
ROOT
ATOM      1  C   UNL     1     101.743 125.967  82.340  0.00  0.00    +0.000 C 
ATOM      2  C   UNL     1     102.788 126.115  81.511  0.00  0.00    +0.000 C 
ENDROOT
BRANCH   1   6
ATOM      3  C   UNL     1      99.085 129.133  83.439  0.00  0.00    +0.000 A 
ATOM      4  C   UNL     1      98.576 127.997  82.815  0.00  0.00    +0.000 A 
ATOM      5  C   UNL     1      99.433 126.957  82.445  0.00  0.00    +0.000 A 
ATOM      6  C   UNL     1     100.810 127.049  82.685  0.00  0.00    +0.000 A 
ATOM      7  C   UNL     1     101.308 128.190  83.328  0.00  0.00    +0.000 A 
ATOM      8  C   UNL     1     100.451 129.230  83.698  0.00  0.00    +0.000 A 
ENDBRANCH   1   6
BRANCH   2   9
ATOM      9  C   UNL     1     103.661 125.027  81.229  0.00  0.00    +0.000 A 
ATOM     10  C   UNL     1     104.399 124.788  80.074  0.00  0.00    +0.000 A 
ATOM     11  C   UNL     1     105.118 123.583  80.256  0.00  0.00    +0.000 A 
ATOM     12  C   UNL     1     104.790 123.138  81.509  0.00  0.00    +0.000 A 
ATOM     13  O   UNL     1     103.921 123.992  82.101  0.00  0.00    +0.000 OA
ENDBRANCH   2   9
TORSDOF 2
ENDMDL
