MODEL 1
REMARK VINA RESULT:      -4.5      0.000      0.000
REMARK  Name = *****
REMARK  5 active torsions:
REMARK  status: ('A' for Active; 'I' for Inactive)
REMARK    1  A    between atoms: C_1  and  C_2
REMARK    2  A    between atoms: C_2  and  C_3
REMARK    3  A    between atoms: C_2  and  O_8
REMARK    4  A    between atoms: O_8  and  C_9
REMARK    5  A    between atoms: C_9  and  C_11
REMARK                            x       y       z     vdW  Elec       q    Type
REMARK                         _______ _______ _______ _____ _____    ______ ____
ROOT
ATOM      1  O   UNL     1     100.341 126.733  83.238  0.00  0.00    +0.000 OA
ENDROOT
BRANCH   1   3
ATOM      2  C   UNL     1     102.467 127.663  83.763  0.00  0.00    +0.000 C 
ATOM      3  C   UNL     1     101.582 127.152  82.630  0.00  0.00    +0.000 C 
BRANCH   3   4
ATOM      4  C   UNL     1     102.205 125.946  81.914  0.00  0.00    +0.000 C 
ATOM      5  C   UNL     1     103.136 125.107  82.788  0.00  0.00    +0.000 C 
ATOM      6  C   UNL     1     104.029 124.347  81.809  0.00  0.00    +0.000 C 
ATOM      7  C   UNL     1     103.886 125.052  80.461  0.00  0.00    +0.000 C 
ATOM      8  C   UNL     1     103.116 126.332  80.747  0.00  0.00    +0.000 C 
ENDBRANCH   3   4
ENDBRANCH   1   3
BRANCH   1   9
ATOM      9  C   UNL     1      99.224 127.426  82.904  0.00  0.00    +0.000 C 
ATOM     10  O   UNL     1      98.433 127.135  82.021  0.00  0.00    +0.000 OA
BRANCH   9  11
ATOM     11  C   UNL     1      99.075 128.622  83.776  0.00  0.00    +0.000 A 
ATOM     12  C   UNL     1      98.534 128.443  85.057  0.00  0.00    +0.000 A 
ATOM     13  C   UNL     1      98.372 129.535  85.913  0.00  0.00    +0.000 A 
ATOM     14  C   UNL     1      98.751 130.810  85.495  0.00  0.00    +0.000 A 
ATOM     15  C   UNL     1      99.292 130.997  84.224  0.00  0.00    +0.000 A 
ATOM     16  C   UNL     1      99.454 129.908  83.364  0.00  0.00    +0.000 A 
ENDBRANCH   9  11
ENDBRANCH   1   9
TORSDOF 4
ENDMDL
