MODEL 1
REMARK VINA RESULT:      -4.7      0.000      0.000
REMARK  Name = *****
REMARK  5 active torsions:
REMARK  status: ('A' for Active; 'I' for Inactive)
REMARK    1  A    between atoms: C_3  and  C_8
REMARK    2  A    between atoms: C_8  and  N_9
REMARK    3  A    between atoms: N_9  and  C_10
REMARK    4  A    between atoms: N_9  and  O_18
REMARK    5  A    between atoms: C_10  and  C_11
REMARK                            x       y       z     vdW  Elec       q    Type
REMARK                         _______ _______ _______ _____ _____    ______ ____
ROOT
ATOM      1  N   UNL     1     100.134 126.978  82.679  0.00  0.00    +0.000 NA
ENDROOT
BRANCH   1   2
ATOM      2  O   UNL     1      99.539 125.997  81.772  0.00  0.00    +0.000 OA
ATOM      3  H   UNL     1      98.906 126.440  81.186  0.00  0.00    +0.000 HD
ENDBRANCH   1   2
BRANCH   1   4
ATOM      4  C   UNL     1      99.176 127.122  83.786  0.00  0.00    +0.000 C 
BRANCH   4   7
ATOM      5  C   UNL     1      99.445 130.931  83.902  0.00  0.00    +0.000 A 
ATOM      6  C   UNL     1      99.522 129.610  83.457  0.00  0.00    +0.000 A 
ATOM      7  C   UNL     1      99.097 128.553  84.277  0.00  0.00    +0.000 A 
ATOM      8  C   UNL     1      98.583 128.845  85.548  0.00  0.00    +0.000 A 
ATOM      9  C   UNL     1      98.509 130.167  85.988  0.00  0.00    +0.000 A 
ATOM     10  C   UNL     1      98.939 131.210  85.172  0.00  0.00    +0.000 A 
ATOM     11 CL   UNL     1      97.878 130.511  87.552  0.00  0.00    +0.000 Cl
ENDBRANCH   4   7
ENDBRANCH   1   4
BRANCH   1  12
ATOM     12  C   UNL     1     101.384 126.365  83.157  0.00  0.00    +0.000 C 
BRANCH  12  13
ATOM     13  C   UNL     1     102.434 126.306  82.067  0.00  0.00    +0.000 A 
ATOM     14  C   UNL     1     103.056 125.089  81.747  0.00  0.00    +0.000 A 
ATOM     15  C   UNL     1     104.026 125.038  80.747  0.00  0.00    +0.000 A 
ATOM     16  C   UNL     1     104.389 126.191  80.054  0.00  0.00    +0.000 A 
ATOM     17  C   UNL     1     103.781 127.406  80.368  0.00  0.00    +0.000 A 
ATOM     18  C   UNL     1     102.811 127.464  81.371  0.00  0.00    +0.000 A 
ATOM     19 CL   UNL     1     104.782 123.539  80.366  0.00  0.00    +0.000 Cl
ENDBRANCH  12  13
ENDBRANCH   1  12
TORSDOF 5
ENDMDL
