REMARK  Name = *****
REMARK  6 active torsions:
REMARK  status: ('A' for Active; 'I' for Inactive)
REMARK    1  A    between atoms: C_1  and  C_2
REMARK    2  A    between atoms: C_4  and  C_17
REMARK    3  A    between atoms: C_6  and  C_16
REMARK    4  A    between atoms: C_7  and  O_8
REMARK    5  A    between atoms: O_8  and  C_9
REMARK    6  A    between atoms: C_9  and  C_10
REMARK                            x       y       z     vdW  Elec       q    Type
REMARK                         _______ _______ _______ _____ _____    ______ ____
ROOT
ATOM      1  C   UNL     1       2.662   1.027   0.388  0.00  0.00    +0.000 C 
ATOM      2  C   UNL     1       1.350   0.318   0.205  0.00  0.00    +0.000 A 
ATOM      3  C   UNL     1       1.311  -1.084   0.251  0.00  0.00    +0.000 A 
ATOM      4  C   UNL     1       0.103  -1.782   0.093  0.00  0.00    +0.000 A 
ATOM      5  C   UNL     1      -1.082  -1.060  -0.105  0.00  0.00    +0.000 A 
ATOM      6  C   UNL     1      -1.068   0.344  -0.156  0.00  0.00    +0.000 A 
ATOM      7  C   UNL     1       0.160   1.016  -0.049  0.00  0.00    +0.000 A 
ATOM      8  C   UNL     1      -2.356   1.091  -0.362  0.00  0.00    +0.000 C 
ENDROOT
BRANCH   4   9
ATOM      9  C   UNL     1       0.121  -3.282   0.151  0.00  0.00    +0.000 C 
ATOM     10  O   UNL     1       1.213  -3.828   0.306  0.00  0.00    +0.000 OA
ATOM     11 CL   UNL     1      -1.374  -4.182  -0.004  0.00  0.00    +0.000 Cl
ENDBRANCH   4   9
BRANCH   7  12
ATOM     12  O   UNL     1       0.182   2.387  -0.110  0.00  0.00    +0.000 OA
BRANCH  12  13
ATOM     13  C   UNL     1       0.392   2.827  -1.460  0.00  0.00    +0.000 C 
BRANCH  13  14
ATOM     14  C   UNL     1       0.268   4.332  -1.542  0.00  0.00    +0.000 A 
ATOM     15  C   UNL     1      -0.673   5.029  -0.768  0.00  0.00    +0.000 A 
ATOM     16  C   UNL     1      -0.806   6.413  -0.887  0.00  0.00    +0.000 A 
ATOM     17  C   UNL     1      -0.010   7.117  -1.788  0.00  0.00    +0.000 A 
ATOM     18  C   UNL     1       0.918   6.436  -2.573  0.00  0.00    +0.000 A 
ATOM     19  C   UNL     1       1.053   5.051  -2.455  0.00  0.00    +0.000 A 
ENDBRANCH  13  14
ENDBRANCH  12  13
ENDBRANCH   7  12
TORSDOF 4
