REMARK  Name = *****
REMARK  2 active torsions:
REMARK  status: ('A' for Active; 'I' for Inactive)
REMARK    1  A    between atoms: C_8  and  C_9
REMARK    2  A    between atoms: C_10  and  C_11
REMARK                            x       y       z     vdW  Elec       q    Type
REMARK                         _______ _______ _______ _____ _____    ______ ____
ROOT
ATOM      1  C   UNL     1       1.444   0.858  -0.540  0.00  0.00    +0.000 C 
ATOM      2  C   UNL     1       1.461  -0.686  -0.670  0.00  0.00    +0.000 C 
ATOM      3  C   UNL     1       0.318  -1.120   0.277  0.00  0.00    +0.000 C 
ATOM      4  C   UNL     1       0.498  -0.095   1.408  0.00  0.00    +0.000 C 
ATOM      5  C   UNL     1       0.295   1.102   0.466  0.00  0.00    +0.000 C 
ATOM      6  C   UNL     1      -1.011   0.783  -0.257  0.00  0.00    +0.000 C 
ATOM      7  C   UNL     1      -0.996  -0.710  -0.386  0.00  0.00    +0.000 C 
ATOM      8  C   UNL     1      -2.143  -0.032   0.332  0.00  0.00    +0.000 C 
ENDROOT
BRANCH   8   9
ATOM      9  C   UNL     1      -3.450   0.014  -0.338  0.00  0.00    +0.000 C 
ATOM     10  C   UNL     1      -4.307   1.047  -0.280  0.00  0.00    +0.000 C 
BRANCH  10  11
ATOM     11  C   UNL     1      -5.613   1.095  -0.951  0.00  0.00    +0.000 A 
ATOM     12  C   UNL     1      -6.423  -0.039  -1.103  0.00  0.00    +0.000 A 
ATOM     13  C   UNL     1      -7.673   0.057  -1.721  0.00  0.00    +0.000 A 
ATOM     14  C   UNL     1      -8.132   1.289  -2.184  0.00  0.00    +0.000 A 
ATOM     15  C   UNL     1      -7.344   2.426  -2.024  0.00  0.00    +0.000 A 
ATOM     16  C   UNL     1      -6.094   2.330  -1.406  0.00  0.00    +0.000 A 
ENDBRANCH  10  11
ENDBRANCH   8   9
TORSDOF 2
