MODEL 1
REMARK VINA RESULT:      -4.0      0.000      0.000
REMARK  Name = *****
REMARK  4 active torsions:
REMARK  status: ('A' for Active; 'I' for Inactive)
REMARK    1  A    between atoms: N_4  and  C_6
REMARK    2  A    between atoms: C_6  and  S_8
REMARK    3  A    between atoms: S_8  and  C_9
REMARK    4  A    between atoms: C_9  and  C_10
REMARK                            x       y       z     vdW  Elec       q    Type
REMARK                         _______ _______ _______ _____ _____    ______ ____
ROOT
ATOM      1  S   UNL     1     103.122 125.359  83.373  0.00  0.00    +0.000 S 
ENDROOT
BRANCH   1   2
ATOM      2  C   UNL     1     103.758 124.724  81.855  0.00  0.00    +0.000 C 
ATOM      3  S   UNL     1     103.631 125.635  80.448  0.00  0.00    +0.000 S 
BRANCH   2   7
ATOM      4  C   UNL     1     104.962 121.271  81.272  0.00  0.00    +0.000 C 
ATOM      5  C   UNL     1     105.360 121.482  82.723  0.00  0.00    +0.000 C 
ATOM      6  C   UNL     1     104.487 122.656  83.145  0.00  0.00    +0.000 C 
ATOM      7  N   UNL     1     104.312 123.452  81.928  0.00  0.00    +0.000 N 
ATOM      8  C   UNL     1     104.772 122.693  80.764  0.00  0.00    +0.000 C 
ENDBRANCH   2   7
ENDBRANCH   1   2
BRANCH   1   9
ATOM      9  C   UNL     1     102.926 127.099  82.884  0.00  0.00    +0.000 C 
BRANCH   9  10
ATOM     10  C   UNL     1     101.481 127.531  82.949  0.00  0.00    +0.000 A 
ATOM     11  C   UNL     1     100.496 126.686  82.402  0.00  0.00    +0.000 A 
ATOM     12  C   UNL     1      99.144 127.031  82.449  0.00  0.00    +0.000 A 
ATOM     13  C   UNL     1      98.752 128.224  83.046  0.00  0.00    +0.000 A 
ATOM     14  C   UNL     1      99.711 129.069  83.603  0.00  0.00    +0.000 A 
ATOM     15  C   UNL     1     101.066 128.726  83.560  0.00  0.00    +0.000 A 
ATOM     16 CL   UNL     1     102.188 129.826  84.279  0.00  0.00    +0.000 Cl
ENDBRANCH   9  10
ENDBRANCH   1   9
TORSDOF 4
ENDMDL
