MODEL 1
REMARK VINA RESULT:      -4.5      0.000      0.000
REMARK  Name = *****
REMARK  4 active torsions:
REMARK  status: ('A' for Active; 'I' for Inactive)
REMARK    1  A    between atoms: C_1  and  C_2
REMARK    2  A    between atoms: C_2  and  C_4
REMARK    3  A    between atoms: C_4  and  C_9
REMARK    4  A    between atoms: C_10  and  C_11
REMARK                            x       y       z     vdW  Elec       q    Type
REMARK                         _______ _______ _______ _____ _____    ______ ____
ROOT
ATOM      1  C   UNL     1     104.191 124.805  82.190  0.00  0.00    +0.000 C 
ATOM      2  C   UNL     1     104.117 124.273  80.748  0.00  0.00    +0.000 C 
ATOM      3  C   UNL     1     104.776 125.341  79.879  0.00  0.00    +0.000 C 
ATOM      4  C   UNL     1     105.683 126.142  80.810  0.00  0.00    +0.000 C 
ATOM      5  C   UNL     1     105.586 125.460  82.171  0.00  0.00    +0.000 C 
ENDROOT
BRANCH   1   7
ATOM      6  C   UNL     1     104.772 122.344  82.841  0.00  0.00    +0.000 C 
ATOM      7  C   UNL     1     104.134 123.660  83.218  0.00  0.00    +0.000 C 
ATOM      8  O   UNL     1     103.540 123.777  84.292  0.00  0.00    +0.000 OA
ENDBRANCH   1   7
BRANCH   1   9
ATOM      9  C   UNL     1     103.145 125.823  82.616  0.00  0.00    +0.000 C 
ATOM     10  C   UNL     1     101.903 125.974  82.126  0.00  0.00    +0.000 C 
BRANCH  10  11
ATOM     11  C   UNL     1     100.950 126.986  82.610  0.00  0.00    +0.000 A 
ATOM     12  C   UNL     1     101.367 128.151  83.267  0.00  0.00    +0.000 A 
ATOM     13  C   UNL     1     100.433 129.104  83.684  0.00  0.00    +0.000 A 
ATOM     14  C   UNL     1      99.076 128.907  83.439  0.00  0.00    +0.000 A 
ATOM     15  C   UNL     1      98.652 127.760  82.772  0.00  0.00    +0.000 A 
ATOM     16  C   UNL     1      99.585 126.807  82.355  0.00  0.00    +0.000 A 
ENDBRANCH  10  11
ENDBRANCH   1   9
TORSDOF 3
ENDMDL
