MODEL 1
REMARK VINA RESULT:      -4.6      0.000      0.000
REMARK  Name = *****
REMARK  3 active torsions:
REMARK  status: ('A' for Active; 'I' for Inactive)
REMARK    1  A    between atoms: C_4  and  C_7
REMARK    2  A    between atoms: C_7  and  C_8
REMARK    3  A    between atoms: C_9  and  C_10
REMARK                            x       y       z     vdW  Elec       q    Type
REMARK                         _______ _______ _______ _____ _____    ______ ____
ROOT
ATOM      1  C   UNL     1      88.892  65.898  86.530  0.00  0.00    +0.000 C 
ATOM      2  C   UNL     1      89.930  66.743  86.401  0.00  0.00    +0.000 C 
ATOM      3 CL   UNL     1      87.243  66.430  86.410  0.00  0.00    +0.000 Cl
ENDROOT
BRANCH   2   4
ATOM      4  C   UNL     1      89.827  68.170  86.096  0.00  0.00    +0.000 A 
ATOM      5  C   UNL     1      89.595  69.100  87.115  0.00  0.00    +0.000 A 
ATOM      6  C   UNL     1      89.498  70.460  86.813  0.00  0.00    +0.000 A 
ATOM      7  C   UNL     1      89.631  70.895  85.495  0.00  0.00    +0.000 A 
ATOM      8  C   UNL     1      89.859  69.972  84.475  0.00  0.00    +0.000 A 
ATOM      9  C   UNL     1      89.958  68.611  84.774  0.00  0.00    +0.000 A 
ENDBRANCH   2   4
BRANCH   1  10
ATOM     10  C   UNL     1      89.065  64.430  86.831  0.00  0.00    +0.000 C 
BRANCH  10  14
ATOM     11  C   UNL     1      86.620  62.732  89.980  0.00  0.00    +0.000 A 
ATOM     12  C   UNL     1      87.580  63.687  90.306  0.00  0.00    +0.000 A 
ATOM     13  C   UNL     1      88.383  64.246  89.308  0.00  0.00    +0.000 A 
ATOM     14  C   UNL     1      88.233  63.864  87.967  0.00  0.00    +0.000 A 
ATOM     15  C   UNL     1      87.263  62.894  87.657  0.00  0.00    +0.000 A 
ATOM     16  C   UNL     1      86.463  62.334  88.655  0.00  0.00    +0.000 A 
ENDBRANCH  10  14
ENDBRANCH   1  10
TORSDOF 3
ENDMDL
