MODEL 1
REMARK VINA RESULT:      -4.6      0.000      0.000
REMARK  Name = *****
REMARK  4 active torsions:
REMARK  status: ('A' for Active; 'I' for Inactive)
REMARK    1  A    between atoms: C_4  and  C_7
REMARK    2  A    between atoms: C_8  and  C_9
REMARK    3  A    between atoms: C_14  and  C_15
REMARK    4  A    between atoms: C_15  and  S_16
REMARK                            x       y       z     vdW  Elec       q    Type
REMARK                         _______ _______ _______ _____ _____    ______ ____
ROOT
ATOM      1  C   UNL     1     101.145 126.933  82.735  0.00  0.00    +0.000 A 
ATOM      2  C   UNL     1      99.824 126.667  82.339  0.00  0.00    +0.000 A 
ATOM      3  C   UNL     1      98.807 127.587  82.591  0.00  0.00    +0.000 A 
ATOM      4  C   UNL     1      99.099 128.781  83.240  0.00  0.00    +0.000 A 
ATOM      5  C   UNL     1     100.407 129.056  83.642  0.00  0.00    +0.000 A 
ATOM      6  C   UNL     1     101.446 128.136  83.404  0.00  0.00    +0.000 A 
ENDROOT
BRANCH   1   8
ATOM      7  C   UNL     1     102.830 125.930  81.270  0.00  0.00    +0.000 C 
ATOM      8  C   UNL     1     102.165 125.924  82.436  0.00  0.00    +0.000 C 
BRANCH   7  12
ATOM      9  C   UNL     1     105.881 123.081  80.334  0.00  0.00    +0.000 A 
ATOM     10  C   UNL     1     105.674 124.167  79.485  0.00  0.00    +0.000 A 
ATOM     11  C   UNL     1     104.676 125.102  79.775  0.00  0.00    +0.000 A 
ATOM     12  C   UNL     1     103.868 124.953  80.910  0.00  0.00    +0.000 A 
ATOM     13  C   UNL     1     104.098 123.866  81.764  0.00  0.00    +0.000 A 
ATOM     14  C   UNL     1     105.096 122.932  81.474  0.00  0.00    +0.000 A 
ENDBRANCH   7  12
ENDBRANCH   1   8
BRANCH   6  15
ATOM     15  C   UNL     1     102.845 128.492  83.847  0.00  0.00    +0.000 C 
BRANCH  15  16
ATOM     16  S   UNL     1     102.923 130.141  84.600  0.00  0.00    +0.000 S 
ATOM     17  H   UNL     1     101.717 130.757  84.470  0.00  0.00    +0.000 HD
ENDBRANCH  15  16
ENDBRANCH   6  15
TORSDOF 4
ENDMDL
