REMARK  Name = *****
REMARK  3 active torsions:
REMARK  status: ('A' for Active; 'I' for Inactive)
REMARK    1  A    between atoms: C_4  and  C_7
REMARK    2  A    between atoms: C_7  and  C_16
REMARK    3  A    between atoms: C_8  and  C_9
REMARK                            x       y       z     vdW  Elec       q    Type
REMARK                         _______ _______ _______ _____ _____    ______ ____
ROOT
ATOM      1  C   UNL     1      -2.861   0.318  -0.456  0.00  0.00    +0.000 C 
ATOM      2  C   UNL     1      -3.432   1.490  -0.111  0.00  0.00    +0.000 C 
ENDROOT
BRANCH   2   3
ATOM      3  C   UNL     1      -4.857   1.812  -0.250  0.00  0.00    +0.000 A 
ATOM      4  C   UNL     1      -5.442   1.973  -1.511  0.00  0.00    +0.000 A 
ATOM      5  C   UNL     1      -6.797   2.292  -1.613  0.00  0.00    +0.000 A 
ATOM      6  C   UNL     1      -7.575   2.455  -0.468  0.00  0.00    +0.000 A 
ATOM      7  C   UNL     1      -6.994   2.301   0.791  0.00  0.00    +0.000 A 
ATOM      8  C   UNL     1      -5.638   1.984   0.900  0.00  0.00    +0.000 A 
ATOM      9 CL   UNL     1      -7.512   2.494  -3.165  0.00  0.00    +0.000 Cl
ENDBRANCH   2   3
BRANCH   1  13
ATOM     10  C   UNL     1       1.349  -0.201   0.170  0.00  0.00    +0.000 A 
ATOM     11  C   UNL     1       0.441  -1.080   0.758  0.00  0.00    +0.000 A 
ATOM     12  C   UNL     1      -0.930  -0.910   0.555  0.00  0.00    +0.000 A 
ATOM     13  C   UNL     1      -1.408   0.145  -0.237  0.00  0.00    +0.000 A 
ATOM     14  C   UNL     1      -0.483   1.020  -0.828  0.00  0.00    +0.000 A 
ATOM     15  C   UNL     1       0.888   0.847  -0.624  0.00  0.00    +0.000 A 
ENDBRANCH   1  13
BRANCH   1  16
ATOM     16  C   UNL     1      -3.616  -0.779  -0.981  0.00  0.00    +0.000 C 
ATOM     17  N   UNL     1      -4.222  -1.675  -1.402  0.00  0.00    +0.000 NA
ENDBRANCH   1  16
TORSDOF 3
