MODEL 1
REMARK VINA RESULT:      -4.4      0.000      0.000
REMARK  Name = *****
REMARK  4 active torsions:
REMARK  status: ('A' for Active; 'I' for Inactive)
REMARK    1  A    between atoms: C_1  and  C_2
REMARK    2  A    between atoms: C_4  and  C_8
REMARK    3  A    between atoms: C_8  and  S_9
REMARK    4  A    between atoms: S_9  and  C_10
REMARK                            x       y       z     vdW  Elec       q    Type
REMARK                         _______ _______ _______ _____ _____    ______ ____
ROOT
ATOM      1  C   UNL     1     102.969 127.249  82.843  0.00  0.00    +0.000 C 
ENDROOT
BRANCH   1   5
ATOM      2  C   UNL     1      99.385 130.353  84.011  0.00  0.00    +0.000 C 
ATOM      3  C   UNL     1      99.782 129.018  83.457  0.00  0.00    +0.000 A 
ATOM      4  N   UNL     1     101.106 128.737  83.402  0.00  0.00    +0.000 NA
ATOM      5  C   UNL     1     101.487 127.536  82.894  0.00  0.00    +0.000 A 
ATOM      6  C   UNL     1     100.564 126.593  82.447  0.00  0.00    +0.000 A 
ATOM      7  C   UNL     1      99.208 126.894  82.514  0.00  0.00    +0.000 A 
ATOM      8  C   UNL     1      98.808 128.124  83.025  0.00  0.00    +0.000 A 
ENDBRANCH   1   5
BRANCH   1   9
ATOM      9  S   UNL     1     103.540 126.857  81.152  0.00  0.00    +0.000 S 
BRANCH   9  10
ATOM     10  C   UNL     1     104.018 125.156  81.381  0.00  0.00    +0.000 A 
ATOM     11  C   UNL     1     103.915 124.584  82.654  0.00  0.00    +0.000 A 
ATOM     12  C   UNL     1     104.274 123.250  82.861  0.00  0.00    +0.000 A 
ATOM     13  C   UNL     1     104.729 122.483  81.792  0.00  0.00    +0.000 A 
ATOM     14  C   UNL     1     104.823 123.036  80.516  0.00  0.00    +0.000 A 
ATOM     15  C   UNL     1     104.462 124.372  80.312  0.00  0.00    +0.000 A 
ATOM     16 BR   UNL     1     105.215 120.678  82.070  0.00  0.00    +0.000 Br
ENDBRANCH   9  10
ENDBRANCH   1   9
TORSDOF 3
ENDMDL
