MODEL 1
REMARK VINA RESULT:      -4.6      0.000      0.000
REMARK  Name = *****
REMARK  3 active torsions:
REMARK  status: ('A' for Active; 'I' for Inactive)
REMARK    1  A    between atoms: C_4  and  C_7
REMARK    2  A    between atoms: C_7  and  C_8
REMARK    3  A    between atoms: C_8  and  C_9
REMARK                            x       y       z     vdW  Elec       q    Type
REMARK                         _______ _______ _______ _____ _____    ______ ____
ROOT
ATOM      1  C   UNL     1      88.842  70.170  86.918  0.00  0.00    +0.000 C 
ENDROOT
BRANCH   1   2
ATOM      2  C   UNL     1      88.846  68.662  86.927  0.00  0.00    +0.000 A 
ATOM      3  C   UNL     1      89.849  67.950  86.254  0.00  0.00    +0.000 A 
ATOM      4  C   UNL     1      89.834  66.555  86.250  0.00  0.00    +0.000 A 
ATOM      5  C   UNL     1      88.825  65.854  86.908  0.00  0.00    +0.000 A 
ATOM      6  C   UNL     1      87.822  66.556  87.575  0.00  0.00    +0.000 A 
ATOM      7  C   UNL     1      87.829  67.952  87.583  0.00  0.00    +0.000 A 
ATOM      8 BR   UNL     1      91.195  65.606  85.340  0.00  0.00    +0.000 Br
ENDBRANCH   1   2
BRANCH   1   9
ATOM      9  C   UNL     1      87.868  70.726  85.874  0.00  0.00    +0.000 C 
BRANCH   9  13
ATOM     10  C   UNL     1      84.345  72.393  87.718  0.00  0.00    +0.000 A 
ATOM     11  C   UNL     1      84.475  72.400  86.331  0.00  0.00    +0.000 A 
ATOM     12  C   UNL     1      85.612  71.855  85.733  0.00  0.00    +0.000 A 
ATOM     13  C   UNL     1      86.628  71.295  86.519  0.00  0.00    +0.000 A 
ATOM     14  C   UNL     1      86.490  71.298  87.913  0.00  0.00    +0.000 A 
ATOM     15  C   UNL     1      85.352  71.843  88.510  0.00  0.00    +0.000 A 
ENDBRANCH   9  13
ENDBRANCH   1   9
TORSDOF 3
ENDMDL
