REMARK  Name = *****
REMARK  1 active torsions:
REMARK  status: ('A' for Active; 'I' for Inactive)
REMARK    1  A    between atoms: C_9  and  C_10
REMARK                            x       y       z     vdW  Elec       q    Type
REMARK                         _______ _______ _______ _____ _____    ______ ____
ROOT
ATOM      1  C   UNL     1       1.961   1.206  -0.122  0.00  0.00    +0.000 A 
ATOM      2  C   UNL     1       2.390  -0.120  -0.009  0.00  0.00    +0.000 A 
ATOM      3  C   UNL     1       1.458  -1.157   0.067  0.00  0.00    +0.000 A 
ATOM      4  C   UNL     1       0.098  -0.858   0.030  0.00  0.00    +0.000 A 
ATOM      5  C   UNL     1      -0.331   0.467  -0.082  0.00  0.00    +0.000 A 
ATOM      6  C   UNL     1       0.597   1.503  -0.158  0.00  0.00    +0.000 A 
ATOM      7  S   UNL     1      -2.088   0.733  -0.119  0.00  0.00    +0.000 S 
ATOM      8  C   UNL     1      -2.496  -0.966   0.024  0.00  0.00    +0.000 C 
ATOM      9  C   UNL     1      -3.788  -1.333   0.056  0.00  0.00    +0.000 C 
ATOM     10  S   UNL     1      -1.172  -2.099   0.122  0.00  0.00    +0.000 S 
ENDROOT
BRANCH   9  11
ATOM     11  C   UNL     1      -4.353  -2.721   0.175  0.00  0.00    +0.000 C 
ATOM     12  C   UNL     1      -5.296  -3.037  -0.960  0.00  0.00    +0.000 C 
ATOM     13  C   UNL     1      -6.525  -3.292  -0.480  0.00  0.00    +0.000 C 
ATOM     14  C   UNL     1      -6.510  -3.173   0.956  0.00  0.00    +0.000 C 
ATOM     15  C   UNL     1      -5.275  -2.845   1.363  0.00  0.00    +0.000 C 
ENDBRANCH   9  11
TORSDOF 1
