MODEL 1
REMARK VINA RESULT:      -4.9      0.000      0.000
REMARK  Name = *****
REMARK  4 active torsions:
REMARK  status: ('A' for Active; 'I' for Inactive)
REMARK    1  A    between atoms: C_1  and  C_2
REMARK    2  A    between atoms: C_7  and  O_8
REMARK    3  A    between atoms: O_8  and  C_9
REMARK    4  A    between atoms: C_9  and  C_11
REMARK                            x       y       z     vdW  Elec       q    Type
REMARK                         _______ _______ _______ _____ _____    ______ ____
ROOT
ATOM      1  C   UNL     1     102.281 125.726  82.511  0.00  0.00    +0.000 C 
ATOM      2  O   UNL     1     102.742 124.977  83.358  0.00  0.00    +0.000 OA
ENDROOT
BRANCH   1   3
ATOM      3  C   UNL     1     101.394 126.855  82.858  0.00  0.00    +0.000 A 
ATOM      4  C   UNL     1     100.042 126.867  82.513  0.00  0.00    +0.000 A 
ATOM      5  C   UNL     1      99.247 127.957  82.851  0.00  0.00    +0.000 A 
ATOM      6  C   UNL     1      99.800 129.040  83.526  0.00  0.00    +0.000 A 
ATOM      7  C   UNL     1     101.149 129.050  83.863  0.00  0.00    +0.000 A 
ATOM      8  C   UNL     1     101.952 127.958  83.526  0.00  0.00    +0.000 A 
ATOM      9  F   UNL     1      99.036 130.091  83.850  0.00  0.00    +0.000 F 
ATOM     10  F   UNL     1      97.949 127.967  82.518  0.00  0.00    +0.000 F 
ATOM     11  F   UNL     1      99.492 125.854  81.828  0.00  0.00    +0.000 F 
ENDBRANCH   1   3
BRANCH   1  12
ATOM     12  O   UNL     1     102.391 125.635  81.140  0.00  0.00    +0.000 OA
BRANCH  12  19
ATOM     13  C   UNL     1     103.975 127.937  80.359  0.00  0.00    +0.000 C 
ATOM     14  C   UNL     1     104.510 126.536  80.362  0.00  0.00    +0.000 A 
ATOM     15  C   UNL     1     105.831 126.285  79.965  0.00  0.00    +0.000 A 
ATOM     16  C   UNL     1     106.335 124.981  79.952  0.00  0.00    +0.000 A 
ATOM     17  C   UNL     1     105.527 123.909  80.332  0.00  0.00    +0.000 A 
ATOM     18  C   UNL     1     104.208 124.138  80.717  0.00  0.00    +0.000 A 
ATOM     19  C   UNL     1     103.706 125.442  80.707  0.00  0.00    +0.000 A 
ENDBRANCH  12  19
ENDBRANCH   1  12
TORSDOF 3
ENDMDL
