MODEL 1
REMARK VINA RESULT:      -4.4      0.000      0.000
REMARK  Name = *****
REMARK  2 active torsions:
REMARK  status: ('A' for Active; 'I' for Inactive)
REMARK    1  A    between atoms: C_7  and  S_8
REMARK    2  A    between atoms: S_8  and  C_9
REMARK                            x       y       z     vdW  Elec       q    Type
REMARK                         _______ _______ _______ _____ _____    ______ ____
ROOT
ATOM      1  C   UNL     1      96.605 116.727  75.920  0.00  0.00    +0.000 C 
ATOM      2  C   UNL     1      95.372 117.355  76.589  0.00  0.00    +0.000 C 
ATOM      3  C   UNL     1      95.230 116.540  77.889  0.00  0.00    +0.000 C 
ATOM      4  C   UNL     1      95.625 115.143  77.406  0.00  0.00    +0.000 C 
ATOM      5  C   UNL     1      96.989 115.602  76.893  0.00  0.00    +0.000 C 
ATOM      6  C   UNL     1      97.602 116.211  78.164  0.00  0.00    +0.000 C 
ATOM      7  C   UNL     1      96.400 116.930  78.831  0.00  0.00    +0.000 C 
ATOM      8  F   UNL     1      98.083 115.197  78.929  0.00  0.00    +0.000 F 
ENDROOT
BRANCH   7   9
ATOM      9  S   UNL     1      96.106 116.432  80.572  0.00  0.00    +0.000 S 
BRANCH   9  10
ATOM     10  C   UNL     1      97.214 117.543  81.420  0.00  0.00    +0.000 A 
ATOM     11  C   UNL     1      97.498 117.321  82.772  0.00  0.00    +0.000 A 
ATOM     12  C   UNL     1      98.365 118.172  83.460  0.00  0.00    +0.000 A 
ATOM     13  C   UNL     1      98.961 119.243  82.798  0.00  0.00    +0.000 A 
ATOM     14  C   UNL     1      98.695 119.461  81.447  0.00  0.00    +0.000 A 
ATOM     15  C   UNL     1      97.828 118.611  80.759  0.00  0.00    +0.000 A 
ENDBRANCH   9  10
ENDBRANCH   7   9
TORSDOF 2
ENDMDL
