MODEL 1
REMARK VINA RESULT:      -4.5      0.000      0.000
REMARK  Name = *****
REMARK  3 active torsions:
REMARK  status: ('A' for Active; 'I' for Inactive)
REMARK    1  A    between atoms: C_4  and  C_7
REMARK    2  A    between atoms: C_7  and  C_8
REMARK    3  A    between atoms: C_8  and  C_9
REMARK                            x       y       z     vdW  Elec       q    Type
REMARK                         _______ _______ _______ _____ _____    ______ ____
ROOT
ATOM      1  C   UNL     1      87.977  70.629  85.459  0.00  0.00    +0.000 C 
ATOM      2  I   UNL     1      89.001  72.050  84.129  0.00  0.00    +0.000 I 
ENDROOT
BRANCH   1   3
ATOM      3  C   UNL     1      86.703  71.284  85.968  0.00  0.00    +0.000 A 
ATOM      4  C   UNL     1      86.397  71.365  87.338  0.00  0.00    +0.000 A 
ATOM      5  C   UNL     1      85.211  71.963  87.770  0.00  0.00    +0.000 A 
ATOM      6  C   UNL     1      84.314  72.487  86.843  0.00  0.00    +0.000 A 
ATOM      7  C   UNL     1      84.602  72.416  85.483  0.00  0.00    +0.000 A 
ATOM      8  C   UNL     1      85.787  71.819  85.048  0.00  0.00    +0.000 A 
ENDBRANCH   1   3
BRANCH   1   9
ATOM      9  C   UNL     1      88.955  70.162  86.556  0.00  0.00    +0.000 C 
BRANCH   9  13
ATOM     10  C   UNL     1      89.011  65.864  86.954  0.00  0.00    +0.000 A 
ATOM     11  C   UNL     1      90.056  66.519  86.305  0.00  0.00    +0.000 A 
ATOM     12  C   UNL     1      90.041  67.909  86.182  0.00  0.00    +0.000 A 
ATOM     13  C   UNL     1      88.980  68.658  86.710  0.00  0.00    +0.000 A 
ATOM     14  C   UNL     1      87.932  67.988  87.357  0.00  0.00    +0.000 A 
ATOM     15  C   UNL     1      87.949  66.598  87.477  0.00  0.00    +0.000 A 
ENDBRANCH   9  13
ENDBRANCH   1   9
TORSDOF 3
ENDMDL
