MODEL 1
REMARK VINA RESULT:      -4.6      0.000      0.000
REMARK  Name = *****
REMARK  6 active torsions:
REMARK  status: ('A' for Active; 'I' for Inactive)
REMARK    1  A    between atoms: C_1  and  C_2
REMARK    2  A    between atoms: C_4  and  C_18
REMARK    3  A    between atoms: C_6  and  C_8
REMARK    4  A    between atoms: C_8  and  O_10
REMARK    5  A    between atoms: O_10  and  C_11
REMARK    6  A    between atoms: C_11  and  C_12
REMARK                            x       y       z     vdW  Elec       q    Type
REMARK                         _______ _______ _______ _____ _____    ______ ____
ROOT
ATOM      1  C   UNL     1      89.567  69.864  86.198  0.00  0.00    +0.000 C 
ATOM      2  O   UNL     1      90.136  70.476  85.308  0.00  0.00    +0.000 OA
ENDROOT
BRANCH   1   8
ATOM      3  C   UNL     1      84.966  71.870  86.753  0.00  0.00    +0.000 C 
ATOM      4  C   UNL     1      86.285  71.443  87.329  0.00  0.00    +0.000 A 
ATOM      5  C   UNL     1      86.526  71.548  88.705  0.00  0.00    +0.000 A 
ATOM      6  C   UNL     1      87.735  71.110  89.259  0.00  0.00    +0.000 A 
ATOM      7  C   UNL     1      88.719  70.576  88.417  0.00  0.00    +0.000 A 
ATOM      8  C   UNL     1      88.490  70.455  87.039  0.00  0.00    +0.000 A 
ATOM      9  C   UNL     1      87.267  70.881  86.502  0.00  0.00    +0.000 A 
ATOM     10  C   UNL     1      87.999  71.263  90.728  0.00  0.00    +0.000 C 
ENDBRANCH   1   8
BRANCH   1  11
ATOM     11  O   UNL     1      89.794  68.579  86.556  0.00  0.00    +0.000 OA
BRANCH  11  12
ATOM     12  C   UNL     1      88.932  67.602  85.962  0.00  0.00    +0.000 C 
BRANCH  12  13
ATOM     13  C   UNL     1      88.332  66.748  87.049  0.00  0.00    +0.000 A 
ATOM     14  C   UNL     1      88.837  65.468  87.313  0.00  0.00    +0.000 A 
ATOM     15  C   UNL     1      88.263  64.672  88.306  0.00  0.00    +0.000 A 
ATOM     16  C   UNL     1      87.173  65.145  89.036  0.00  0.00    +0.000 A 
ATOM     17  C   UNL     1      86.655  66.411  88.772  0.00  0.00    +0.000 A 
ATOM     18  C   UNL     1      87.228  67.208  87.780  0.00  0.00    +0.000 A 
ENDBRANCH  12  13
ENDBRANCH  11  12
ENDBRANCH   1  11
TORSDOF 4
ENDMDL
