REMARK  Name = *****
REMARK  1 active torsions:
REMARK  status: ('A' for Active; 'I' for Inactive)
REMARK    1  A    between atoms: C_8  and  C_10
REMARK                            x       y       z     vdW  Elec       q    Type
REMARK                         _______ _______ _______ _____ _____    ______ ____
ROOT
ATOM      1  C   UNL     1       2.199   0.615  -0.094  0.00  0.00    +0.000 A 
ATOM      2  C   UNL     1       2.105  -0.772   0.086  0.00  0.00    +0.000 A 
ATOM      3  C   UNL     1       0.863  -1.411   0.189  0.00  0.00    +0.000 A 
ATOM      4  C   UNL     1      -0.249  -0.583   0.102  0.00  0.00    +0.000 A 
ATOM      5  C   UNL     1      -0.200   0.789  -0.076  0.00  0.00    +0.000 A 
ATOM      6  C   UNL     1       1.049   1.415  -0.178  0.00  0.00    +0.000 A 
ATOM      7  N   UNL     1      -1.472   1.296  -0.120  0.00  0.00    +0.000 NA
ATOM      8  C   UNL     1      -2.247   0.236   0.035  0.00  0.00    +0.000 A 
ATOM      9  O   UNL     1      -1.560  -0.947   0.170  0.00  0.00    +0.000 OA
ENDROOT
BRANCH   8  10
ATOM     10  C   UNL     1      -3.699   0.151   0.055  0.00  0.00    +0.000 A 
ATOM     11  C   UNL     1      -4.479   1.165  -0.510  0.00  0.00    +0.000 A 
ATOM     12  C   UNL     1      -5.875   1.111  -0.500  0.00  0.00    +0.000 A 
ATOM     13  C   UNL     1      -6.527   0.029   0.085  0.00  0.00    +0.000 A 
ATOM     14  C   UNL     1      -5.773  -0.991   0.658  0.00  0.00    +0.000 A 
ATOM     15  C   UNL     1      -4.377  -0.924   0.640  0.00  0.00    +0.000 A 
ATOM     16  F   UNL     1      -3.706  -1.928   1.226  0.00  0.00    +0.000 F 
ATOM     17  F   UNL     1      -3.906   2.224  -1.101  0.00  0.00    +0.000 F 
ENDBRANCH   8  10
TORSDOF 1
