MODEL 1
REMARK VINA RESULT:      -4.3      0.000      0.000
REMARK  Name = *****
REMARK  2 active torsions:
REMARK  status: ('A' for Active; 'I' for Inactive)
REMARK    1  A    between atoms: C_4  and  C_7
REMARK    2  A    between atoms: C_8  and  C_9
REMARK                            x       y       z     vdW  Elec       q    Type
REMARK                         _______ _______ _______ _____ _____    ______ ____
ROOT
ATOM      1  C   UNL     1      87.419  63.051  87.837  0.00  0.00    +0.000 C 
ATOM      2  C   UNL     1      87.571  63.831  86.758  0.00  0.00    +0.000 C 
ATOM      3  F   UNL     1      87.299  63.306  85.542  0.00  0.00    +0.000 F 
ENDROOT
BRANCH   2   4
ATOM      4  C   UNL     1      88.018  65.226  86.776  0.00  0.00    +0.000 A 
ATOM      5  C   UNL     1      89.331  65.550  86.411  0.00  0.00    +0.000 A 
ATOM      6  C   UNL     1      89.760  66.879  86.433  0.00  0.00    +0.000 A 
ATOM      7  C   UNL     1      88.875  67.884  86.820  0.00  0.00    +0.000 A 
ATOM      8  C   UNL     1      87.565  67.574  87.181  0.00  0.00    +0.000 A 
ATOM      9  C   UNL     1      87.137  66.245  87.157  0.00  0.00    +0.000 A 
ATOM     10 BR   UNL     1      89.457  69.683  86.853  0.00  0.00    +0.000 Br
ENDBRANCH   2   4
BRANCH   1  14
ATOM     11  C   UNL     1      88.173  64.277  91.847  0.00  0.00    +0.000 A 
ATOM     12  C   UNL     1      86.863  64.193  91.379  0.00  0.00    +0.000 A 
ATOM     13  C   UNL     1      86.613  63.787  90.067  0.00  0.00    +0.000 A 
ATOM     14  C   UNL     1      87.677  63.465  89.217  0.00  0.00    +0.000 A 
ATOM     15  C   UNL     1      88.991  63.552  89.691  0.00  0.00    +0.000 A 
ATOM     16  C   UNL     1      89.237  63.956  91.004  0.00  0.00    +0.000 A 
ENDBRANCH   1  14
TORSDOF 2
ENDMDL
