MODEL 1
REMARK VINA RESULT:      -5.2      0.000      0.000
REMARK  Name = *****
REMARK  2 active torsions:
REMARK  status: ('A' for Active; 'I' for Inactive)
REMARK    1  A    between atoms: C_1  and  C_2
REMARK    2  A    between atoms: C_3  and  C_11
REMARK                            x       y       z     vdW  Elec       q    Type
REMARK                         _______ _______ _______ _____ _____    ______ ____
ROOT
ATOM      1  C   UNL     1     103.536 127.579  79.874  0.00  0.00    +0.000 C 
ATOM      2  C   UNL     1     103.542 126.394  80.769  0.00  0.00    +0.000 C 
ATOM      3  C   UNL     1     102.842 126.150  81.895  0.00  0.00    +0.000 C 
ATOM      4  C   UNL     1     103.150 124.803  82.511  0.00  0.00    +0.000 C 
ATOM      5  C   UNL     1     104.168 124.280  81.544  0.00  0.00    +0.000 A 
ATOM      6  C   UNL     1     104.840 123.068  81.565  0.00  0.00    +0.000 A 
ATOM      7  C   UNL     1     105.751 122.804  80.542  0.00  0.00    +0.000 A 
ATOM      8  C   UNL     1     105.976 123.744  79.522  0.00  0.00    +0.000 A 
ATOM      9  C   UNL     1     105.291 124.963  79.512  0.00  0.00    +0.000 A 
ATOM     10  C   UNL     1     104.387 125.222  80.529  0.00  0.00    +0.000 A 
ENDROOT
BRANCH   3  11
ATOM     11  C   UNL     1     101.872 127.038  82.522  0.00  0.00    +0.000 A 
ATOM     12  C   UNL     1     100.501 126.771  82.414  0.00  0.00    +0.000 A 
ATOM     13  C   UNL     1      99.572 127.628  83.004  0.00  0.00    +0.000 A 
ATOM     14  C   UNL     1     100.017 128.749  83.698  0.00  0.00    +0.000 A 
ATOM     15  C   UNL     1     101.374 129.029  83.809  0.00  0.00    +0.000 A 
ATOM     16  C   UNL     1     102.305 128.173  83.219  0.00  0.00    +0.000 A 
ATOM     17  F   UNL     1      99.125 129.571  84.263  0.00  0.00    +0.000 F 
ENDBRANCH   3  11
TORSDOF 1
ENDMDL
