MODEL 1
REMARK VINA RESULT:      -4.7      0.000      0.000
REMARK  Name = *****
REMARK  2 active torsions:
REMARK  status: ('A' for Active; 'I' for Inactive)
REMARK    1  A    between atoms: C_4  and  C_7
REMARK    2  A    between atoms: N_8  and  C_9
REMARK                            x       y       z     vdW  Elec       q    Type
REMARK                         _______ _______ _______ _____ _____    ______ ____
ROOT
ATOM      1  C   UNL     1     102.923 126.187  81.341  0.00  0.00    +0.000 C 
ATOM      2  N   UNL     1     102.060 125.900  82.264  0.00  0.00    +0.000 NA
ENDROOT
BRANCH   2   3
ATOM      3  C   UNL     1     101.153 126.905  82.652  0.00  0.00    +0.000 A 
ATOM      4  C   UNL     1      99.771 126.842  82.423  0.00  0.00    +0.000 A 
ATOM      5  C   UNL     1      98.933 127.860  82.868  0.00  0.00    +0.000 A 
ATOM      6  C   UNL     1      99.445 128.954  83.556  0.00  0.00    +0.000 A 
ATOM      7  C   UNL     1     100.815 129.026  83.806  0.00  0.00    +0.000 A 
ATOM      8  C   UNL     1     101.659 128.003  83.360  0.00  0.00    +0.000 A 
ATOM      9  F   UNL     1      97.615 127.796  82.631  0.00  0.00    +0.000 F 
ATOM     10  F   UNL     1      99.241 125.798  81.765  0.00  0.00    +0.000 F 
ENDBRANCH   2   3
BRANCH   1  14
ATOM     11  C   UNL     1     105.750 123.301  79.979  0.00  0.00    +0.000 A 
ATOM     12  C   UNL     1     105.651 124.530  79.325  0.00  0.00    +0.000 A 
ATOM     13  C   UNL     1     104.730 125.482  79.764  0.00  0.00    +0.000 A 
ATOM     14  C   UNL     1     103.907 125.199  80.858  0.00  0.00    +0.000 A 
ATOM     15  C   UNL     1     104.006 123.969  81.515  0.00  0.00    +0.000 A 
ATOM     16  C   UNL     1     104.930 123.021  81.072  0.00  0.00    +0.000 A 
ENDBRANCH   1  14
TORSDOF 2
ENDMDL
