MODEL 1
REMARK VINA RESULT:      -4.9      0.000      0.000
REMARK  Name = *****
REMARK  2 active torsions:
REMARK  status: ('A' for Active; 'I' for Inactive)
REMARK    1  A    between atoms: C_8  and  C_9
REMARK    2  A    between atoms: C_10  and  C_11
REMARK                            x       y       z     vdW  Elec       q    Type
REMARK                         _______ _______ _______ _____ _____    ______ ____
ROOT
ATOM      1  C   UNL     1      97.549 127.259  83.562  0.00  0.00    +0.000 C 
ATOM      2  C   UNL     1      98.376 127.337  84.853  0.00  0.00    +0.000 C 
ATOM      3  C   UNL     1      99.575 127.848  84.458  0.00  0.00    +0.000 C 
ATOM      4  C   UNL     1      99.232 128.867  83.364  0.00  0.00    +0.000 C 
ATOM      5  C   UNL     1      98.620 127.739  82.536  0.00  0.00    +0.000 C 
ATOM      6  C   UNL     1      99.751 126.682  82.465  0.00  0.00    +0.000 C 
ATOM      7  C   UNL     1     100.480 126.816  83.811  0.00  0.00    +0.000 C 
ATOM      8  C   UNL     1     101.223 127.016  82.510  0.00  0.00    +0.000 C 
ENDROOT
BRANCH   8   9
ATOM      9  C   UNL     1     102.184 125.979  82.100  0.00  0.00    +0.000 C 
ATOM     10  C   UNL     1     103.163 126.146  81.195  0.00  0.00    +0.000 C 
BRANCH  10  11
ATOM     11  C   UNL     1     104.115 125.100  80.797  0.00  0.00    +0.000 A 
ATOM     12  C   UNL     1     104.132 123.893  81.509  0.00  0.00    +0.000 A 
ATOM     13  C   UNL     1     105.004 122.863  81.145  0.00  0.00    +0.000 A 
ATOM     14  C   UNL     1     105.858 123.026  80.057  0.00  0.00    +0.000 A 
ATOM     15  C   UNL     1     105.839 124.214  79.329  0.00  0.00    +0.000 A 
ATOM     16  C   UNL     1     104.968 125.244  79.695  0.00  0.00    +0.000 A 
ENDBRANCH  10  11
ENDBRANCH   8   9
TORSDOF 2
ENDMDL
