MODEL 1
REMARK VINA RESULT:      -4.7      0.000      0.000
REMARK  Name = *****
REMARK  1 active torsions:
REMARK  status: ('A' for Active; 'I' for Inactive)
REMARK    1  A    between atoms: C_8  and  C_11
REMARK                            x       y       z     vdW  Elec       q    Type
REMARK                         _______ _______ _______ _____ _____    ______ ____
ROOT
ATOM      1  C   UNL     1      99.255 128.881  83.541  0.00  0.00    +0.000 C 
ATOM      2  C   UNL     1      98.879 127.417  83.338  0.00  0.00    +0.000 C 
ATOM      3  C   UNL     1      99.849 126.710  82.391  0.00  0.00    +0.000 C 
ATOM      4  C   UNL     1     101.312 126.870  82.823  0.00  0.00    +0.000 C 
ATOM      5  C   UNL     1     101.681 128.337  83.085  0.00  0.00    +0.000 C 
ATOM      6  C   UNL     1     100.694 129.028  84.026  0.00  0.00    +0.000 C 
ATOM      7  C   UNL     1     102.250 126.225  81.860  0.00  0.00    +0.000 C 
ATOM      8  C   UNL     1     102.858 125.247  82.538  0.00  0.00    +0.000 C 
ATOM      9  N   UNL     1     102.424 125.187  83.842  0.00  0.00    +0.000 NA
ATOM     10  N   UNL     1     101.552 126.074  84.061  0.00  0.00    +0.000 NA
ENDROOT
BRANCH   8  11
ATOM     11  C   UNL     1     103.891 124.334  82.018  0.00  0.00    +0.000 A 
ATOM     12  C   UNL     1     104.486 123.389  82.869  0.00  0.00    +0.000 A 
ATOM     13  C   UNL     1     105.463 122.507  82.398  0.00  0.00    +0.000 A 
ATOM     14  C   UNL     1     105.857 122.552  81.065  0.00  0.00    +0.000 A 
ATOM     15  C   UNL     1     105.274 123.475  80.201  0.00  0.00    +0.000 A 
ATOM     16  C   UNL     1     104.297 124.357  80.673  0.00  0.00    +0.000 A 
ENDBRANCH   8  11
TORSDOF 1
ENDMDL
