MODEL 1
REMARK VINA RESULT:      -4.8      0.000      0.000
REMARK  Name = *****
REMARK  2 active torsions:
REMARK  status: ('A' for Active; 'I' for Inactive)
REMARK    1  A    between atoms: C_1  and  C_2
REMARK    2  A    between atoms: C_9  and  C_11
REMARK                            x       y       z     vdW  Elec       q    Type
REMARK                         _______ _______ _______ _____ _____    ______ ____
ROOT
ATOM      1  C   UNL     1     104.414 123.112  84.643  0.00  0.00    +0.000 C 
ATOM      2  C   UNL     1     104.441 123.490  83.199  0.00  0.00    +0.000 A 
ATOM      3  C   UNL     1     103.639 124.481  82.631  0.00  0.00    +0.000 A 
ATOM      4  C   UNL     1     103.646 124.846  81.294  0.00  0.00    +0.000 A 
ATOM      5  C   UNL     1     104.517 124.191  80.414  0.00  0.00    +0.000 A 
ATOM      6  C   UNL     1     105.346 123.186  80.934  0.00  0.00    +0.000 A 
ATOM      7  C   UNL     1     105.306 122.847  82.293  0.00  0.00    +0.000 A 
ATOM      8  N   UNL     1     102.737 125.849  81.076  0.00  0.00    +0.000 NA
ATOM      9  C   UNL     1     102.209 126.062  82.269  0.00  0.00    +0.000 A 
ATOM     10  O   UNL     1     102.714 125.262  83.264  0.00  0.00    +0.000 OA
ENDROOT
BRANCH   9  11
ATOM     11  C   UNL     1     101.178 127.020  82.658  0.00  0.00    +0.000 A 
ATOM     12  C   UNL     1      99.832 126.744  82.372  0.00  0.00    +0.000 A 
ATOM     13  C   UNL     1      98.823 127.641  82.733  0.00  0.00    +0.000 A 
ATOM     14  C   UNL     1      99.148 128.828  83.385  0.00  0.00    +0.000 A 
ATOM     15  C   UNL     1     100.479 129.119  83.677  0.00  0.00    +0.000 A 
ATOM     16  C   UNL     1     101.488 128.220  83.315  0.00  0.00    +0.000 A 
ENDBRANCH   9  11
TORSDOF 1
ENDMDL
