REMARK  Name = *****
REMARK  5 active torsions:
REMARK  status: ('A' for Active; 'I' for Inactive)
REMARK    1  A    between atoms: C_4  and  C_7
REMARK    2  A    between atoms: C_7  and  C_8
REMARK    3  A    between atoms: C_8  and  C_9
REMARK    4  A    between atoms: C_12  and  O_15
REMARK    5  A    between atoms: O_15  and  O_16
REMARK                            x       y       z     vdW  Elec       q    Type
REMARK                         _______ _______ _______ _____ _____    ______ ____
ROOT
ATOM      1  C   UNL     1      -5.090  -0.519  -0.712  0.00  0.00    +0.000 A 
ATOM      2  C   UNL     1      -5.640   0.161  -1.807  0.00  0.00    +0.000 A 
ATOM      3  C   UNL     1      -7.016   0.396  -1.877  0.00  0.00    +0.000 A 
ATOM      4  C   UNL     1      -7.850  -0.035  -0.846  0.00  0.00    +0.000 A 
ATOM      5  C   UNL     1      -7.312  -0.721   0.242  0.00  0.00    +0.000 A 
ATOM      6  C   UNL     1      -5.937  -0.956   0.314  0.00  0.00    +0.000 A 
ENDROOT
BRANCH   1   7
ATOM      7  C   UNL     1      -3.602  -0.755  -0.628  0.00  0.00    +0.000 C 
BRANCH   7   8
ATOM      8  C   UNL     1      -2.882   0.415   0.049  0.00  0.00    +0.000 C 
BRANCH   8  12
ATOM      9  C   UNL     1       1.361  -0.311   0.292  0.00  0.00    +0.000 A 
ATOM     10  C   UNL     1       0.824   0.314  -0.832  0.00  0.00    +0.000 A 
ATOM     11  C   UNL     1      -0.549   0.554  -0.909  0.00  0.00    +0.000 A 
ATOM     12  C   UNL     1      -1.396   0.175   0.141  0.00  0.00    +0.000 A 
ATOM     13  C   UNL     1      -0.846  -0.457   1.264  0.00  0.00    +0.000 A 
ATOM     14  C   UNL     1       0.527  -0.697   1.340  0.00  0.00    +0.000 A 
ENDBRANCH   8  12
ENDBRANCH   7   8
ENDBRANCH   1   7
BRANCH   4  15
ATOM     15  O   UNL     1      -9.214   0.141  -0.844  0.00  0.00    +0.000 OA
BRANCH  15  16
ATOM     16  O   UNL     1      -9.526   1.318  -1.641  0.00  0.00    +0.000 OA
ATOM     17  H   UNL     1     -10.485   1.458  -1.650  0.00  0.00    +0.000 HD
ENDBRANCH  15  16
ENDBRANCH   4  15
TORSDOF 5
