MODEL 1
REMARK VINA RESULT:      -4.5      0.000      0.000
REMARK  Name = *****
REMARK  5 active torsions:
REMARK  status: ('A' for Active; 'I' for Inactive)
REMARK    1  A    between atoms: C_1  and  O_2
REMARK    2  A    between atoms: O_2  and  C_3
REMARK    3  A    between atoms: C_6  and  C_9
REMARK    4  A    between atoms: C_9  and  C_10
REMARK    5  A    between atoms: C_10  and  C_11
REMARK                            x       y       z     vdW  Elec       q    Type
REMARK                         _______ _______ _______ _____ _____    ______ ____
ROOT
ATOM      1  C   UNL     1      89.016  65.678  86.611  0.00  0.00    +0.000 A 
ATOM      2  C   UNL     1      87.941  66.298  87.247  0.00  0.00    +0.000 A 
ATOM      3  C   UNL     1      87.913  67.691  87.386  0.00  0.00    +0.000 A 
ATOM      4  C   UNL     1      88.958  68.480  86.888  0.00  0.00    +0.000 A 
ATOM      5  C   UNL     1      90.037  67.852  86.256  0.00  0.00    +0.000 A 
ATOM      6  C   UNL     1      90.061  66.463  86.118  0.00  0.00    +0.000 A 
ENDROOT
BRANCH   1   8
ATOM      7  C   UNL     1      90.338  63.915  85.722  0.00  0.00    +0.000 C 
ATOM      8  O   UNL     1      89.166  64.333  86.409  0.00  0.00    +0.000 OA
ENDBRANCH   1   8
BRANCH   4   9
ATOM      9  C   UNL     1      88.937  69.978  87.061  0.00  0.00    +0.000 C 
BRANCH   9  10
ATOM     10  C   UNL     1      87.969  70.405  88.167  0.00  0.00    +0.000 C 
BRANCH  10  11
ATOM     11  C   UNL     1      86.764  71.120  87.607  0.00  0.00    +0.000 A 
ATOM     12  C   UNL     1      85.742  71.563  88.457  0.00  0.00    +0.000 A 
ATOM     13  C   UNL     1      84.618  72.206  87.935  0.00  0.00    +0.000 A 
ATOM     14  C   UNL     1      84.505  72.411  86.562  0.00  0.00    +0.000 A 
ATOM     15  C   UNL     1      85.514  71.970  85.708  0.00  0.00    +0.000 A 
ATOM     16  C   UNL     1      86.638  71.326  86.226  0.00  0.00    +0.000 A 
ENDBRANCH  10  11
ENDBRANCH   9  10
ENDBRANCH   4   9
TORSDOF 4
ENDMDL
