MODEL 1
REMARK VINA RESULT:      -4.3      0.000      0.000
REMARK  Name = *****
REMARK  6 active torsions:
REMARK  status: ('A' for Active; 'I' for Inactive)
REMARK    1  A    between atoms: C_1  and  O_2
REMARK    2  A    between atoms: O_2  and  C_3
REMARK    3  A    between atoms: C_7  and  C_9
REMARK    4  A    between atoms: C_9  and  P_10
REMARK    5  A    between atoms: P_10  and  C_11
REMARK    6  A    between atoms: P_10  and  C_12
REMARK                            x       y       z     vdW  Elec       q    Type
REMARK                         _______ _______ _______ _____ _____    ______ ____
ROOT
ATOM      1  C   UNL     1     102.847 127.412  82.963  0.00  0.00    +0.000 C 
ENDROOT
BRANCH   1   6
ATOM      2  C   UNL     1      99.410 128.929  83.668  0.00  0.00    +0.000 A 
ATOM      3  C   UNL     1      98.567 127.993  83.072  0.00  0.00    +0.000 A 
ATOM      4  C   UNL     1      99.105 126.870  82.438  0.00  0.00    +0.000 A 
ATOM      5  C   UNL     1     100.486 126.679  82.396  0.00  0.00    +0.000 A 
ATOM      6  C   UNL     1     101.354 127.614  82.979  0.00  0.00    +0.000 A 
ATOM      7  C   UNL     1     100.794 128.733  83.623  0.00  0.00    +0.000 A 
BRANCH   2   9
ATOM      8  C   UNL     1      99.564 131.293  83.863  0.00  0.00    +0.000 C 
ATOM      9  O   UNL     1      99.017 130.065  84.323  0.00  0.00    +0.000 OA
ENDBRANCH   2   9
ENDBRANCH   1   6
BRANCH   1  10
ATOM     10  P   UNL     1     103.249 126.979  81.230  0.00  0.00    +0.000 P 
ATOM     11  C   UNL     1     104.812 127.905  80.976  0.00  0.00    +0.000 C 
BRANCH  10  12
ATOM     12  C   UNL     1     103.855 125.273  81.415  0.00  0.00    +0.000 A 
ATOM     13  C   UNL     1     103.831 124.691  82.691  0.00  0.00    +0.000 A 
ATOM     14  C   UNL     1     104.287 123.386  82.893  0.00  0.00    +0.000 A 
ATOM     15  C   UNL     1     104.774 122.644  81.821  0.00  0.00    +0.000 A 
ATOM     16  C   UNL     1     104.805 123.206  80.547  0.00  0.00    +0.000 A 
ATOM     17  C   UNL     1     104.349 124.512  80.346  0.00  0.00    +0.000 A 
ENDBRANCH  10  12
ENDBRANCH   1  10
TORSDOF 4
ENDMDL
