MODEL 1
REMARK VINA RESULT:      -5.0      0.000      0.000
REMARK  Name = *****
REMARK  3 active torsions:
REMARK  status: ('A' for Active; 'I' for Inactive)
REMARK    1  A    between atoms: C_1  and  C_2
REMARK    2  A    between atoms: C_3  and  C_11
REMARK    3  A    between atoms: C_4  and  C_5
REMARK                            x       y       z     vdW  Elec       q    Type
REMARK                         _______ _______ _______ _____ _____    ______ ____
ROOT
ATOM      1  C   UNL     1     103.766 127.526  80.197  0.00  0.00    +0.000 C 
ATOM      2  C   UNL     1     103.321 126.144  80.537  0.00  0.00    +0.000 C 
ATOM      3  C   UNL     1     102.305 125.840  81.616  0.00  0.00    +0.000 C 
ATOM      4  C   UNL     1     103.781 125.518  81.833  0.00  0.00    +0.000 C 
ENDROOT
BRANCH   4   5
ATOM      5  C   UNL     1     104.234 124.076  81.860  0.00  0.00    +0.000 A 
ATOM      6  C   UNL     1     104.254 123.339  83.055  0.00  0.00    +0.000 A 
ATOM      7  C   UNL     1     104.656 122.001  83.080  0.00  0.00    +0.000 A 
ATOM      8  C   UNL     1     105.043 121.369  81.902  0.00  0.00    +0.000 A 
ATOM      9  C   UNL     1     105.024 122.074  80.702  0.00  0.00    +0.000 A 
ATOM     10  C   UNL     1     104.620 123.412  80.684  0.00  0.00    +0.000 A 
ENDBRANCH   4   5
BRANCH   3  11
ATOM     11  C   UNL     1     101.636 126.932  82.420  0.00  0.00    +0.000 A 
ATOM     12  C   UNL     1     100.236 127.004  82.517  0.00  0.00    +0.000 A 
ATOM     13  C   UNL     1      99.605 127.996  83.274  0.00  0.00    +0.000 A 
ATOM     14  C   UNL     1     100.368 128.933  83.963  0.00  0.00    +0.000 A 
ATOM     15  C   UNL     1     101.756 128.876  83.898  0.00  0.00    +0.000 A 
ATOM     16  C   UNL     1     102.380 127.882  83.138  0.00  0.00    +0.000 A 
ENDBRANCH   3  11
TORSDOF 2
ENDMDL
