REMARK  Name = *****
REMARK  2 active torsions:
REMARK  status: ('A' for Active; 'I' for Inactive)
REMARK    1  A    between atoms: C_3  and  C_10
REMARK    2  A    between atoms: C_11  and  C_12
REMARK                            x       y       z     vdW  Elec       q    Type
REMARK                         _______ _______ _______ _____ _____    ______ ____
ROOT
ATOM      1  C   UNL     1       0.803   1.208  -0.254  0.00  0.00    +0.000 C 
ATOM      2  C   UNL     1       1.452  -0.062   0.286  0.00  0.00    +0.000 C 
ATOM      3  C   UNL     1       0.681  -1.314  -0.172  0.00  0.00    +0.000 C 
ATOM      4  C   UNL     1      -0.810  -1.268   0.237  0.00  0.00    +0.000 C 
ATOM      5  C   UNL     1      -1.421   0.066  -0.215  0.00  0.00    +0.000 C 
ATOM      6  O   UNL     1      -2.504   0.176  -0.794  0.00  0.00    +0.000 OA
ATOM      7  C   UNL     1      -0.653   1.319   0.166  0.00  0.00    +0.000 C 
ATOM      8 CL   UNL     1      -1.712  -2.624  -0.529  0.00  0.00    +0.000 Cl
ATOM      9 CL   UNL     1      -1.058  -1.368   2.017  0.00  0.00    +0.000 Cl
ENDROOT
BRANCH   3  10
ATOM     10  C   UNL     1       1.379  -2.525   0.315  0.00  0.00    +0.000 C 
ATOM     11  C   UNL     1       1.933  -3.515   0.708  0.00  0.00    +0.000 C 
BRANCH  11  12
ATOM     12  C   UNL     1       2.576  -4.704   1.177  0.00  0.00    +0.000 A 
ATOM     13  C   UNL     1       3.827  -4.629   1.793  0.00  0.00    +0.000 A 
ATOM     14  C   UNL     1       4.450  -5.791   2.251  0.00  0.00    +0.000 A 
ATOM     15  C   UNL     1       3.824  -7.027   2.095  0.00  0.00    +0.000 A 
ATOM     16  C   UNL     1       2.574  -7.104   1.480  0.00  0.00    +0.000 A 
ATOM     17  C   UNL     1       1.949  -5.942   1.021  0.00  0.00    +0.000 A 
ENDBRANCH  11  12
ENDBRANCH   3  10
TORSDOF 2
