REMARK  Name = *****
REMARK  2 active torsions:
REMARK  status: ('A' for Active; 'I' for Inactive)
REMARK    1  A    between atoms: C_4  and  C_7
REMARK    2  A    between atoms: C_7  and  N_8
REMARK                            x       y       z     vdW  Elec       q    Type
REMARK                         _______ _______ _______ _____ _____    ______ ____
ROOT
ATOM      1  N   UNL     1      -3.311   0.470  -0.816  0.00  0.00    +0.000 NA
ATOM      2  S   UNL     1      -4.775   1.266  -0.830  0.00  0.00    +0.000 S 
ATOM      3  C   UNL     1      -5.432   0.489  -2.265  0.00  0.00    +0.000 A 
ATOM      4  C   UNL     1      -4.702  -0.627  -2.640  0.00  0.00    +0.000 A 
ATOM      5  S   UNL     1      -3.335  -1.035  -1.562  0.00  0.00    +0.000 S 
ATOM      6  O   UNL     1      -2.179  -1.292  -2.483  0.00  0.00    +0.000 OA
ATOM      7  C   UNL     1      -5.050  -1.358  -3.774  0.00  0.00    +0.000 A 
ATOM      8  C   UNL     1      -6.154  -0.951  -4.525  0.00  0.00    +0.000 A 
ATOM      9  C   UNL     1      -6.884   0.172  -4.130  0.00  0.00    +0.000 A 
ATOM     10  C   UNL     1      -6.533   0.903  -3.000  0.00  0.00    +0.000 A 
ATOM     11  F   UNL     1      -7.941   0.555  -4.858  0.00  0.00    +0.000 F 
ENDROOT
BRANCH   1  12
ATOM     12  C   UNL     1      -2.049   1.205  -0.700  0.00  0.00    +0.000 C 
BRANCH  12  16
ATOM     13  C   UNL     1       0.649  -0.577   2.164  0.00  0.00    +0.000 A 
ATOM     14  C   UNL     1       0.868  -0.750   0.798  0.00  0.00    +0.000 A 
ATOM     15  C   UNL     1      -0.001  -0.173  -0.128  0.00  0.00    +0.000 A 
ATOM     16  C   UNL     1      -1.098   0.586   0.303  0.00  0.00    +0.000 A 
ATOM     17  C   UNL     1      -1.314   0.746   1.680  0.00  0.00    +0.000 A 
ATOM     18  C   UNL     1      -0.443   0.169   2.604  0.00  0.00    +0.000 A 
ENDBRANCH  12  16
ENDBRANCH   1  12
TORSDOF 2
