MODEL 1
REMARK VINA RESULT:      -3.5      0.000      0.000
REMARK  Name = *****
REMARK  5 active torsions:
REMARK  status: ('A' for Active; 'I' for Inactive)
REMARK    1  A    between atoms: C_4  and  C_6
REMARK    2  A    between atoms: C_6  and  C_7
REMARK    3  A    between atoms: C_7  and  C_8
REMARK    4  A    between atoms: C_8  and  C_9
REMARK    5  A    between atoms: C_9  and  C_10
REMARK                            x       y       z     vdW  Elec       q    Type
REMARK                         _______ _______ _______ _____ _____    ______ ____
ROOT
ATOM      1  C   UNL     1     103.365 127.905  83.160  0.00  0.00    +0.000 C 
ENDROOT
BRANCH   1   2
ATOM      2  C   UNL     1     102.184 128.725  83.688  0.00  0.00    +0.000 C 
BRANCH   2   6
ATOM      3  C   UNL     1      99.262 126.714  82.352  0.00  0.00    +0.000 A 
ATOM      4  C   UNL     1      98.479 127.748  82.811  0.00  0.00    +0.000 A 
ATOM      5  S   UNL     1      99.409 128.983  83.543  0.00  0.00    +0.000 S 
ATOM      6  C   UNL     1     100.872 128.139  83.253  0.00  0.00    +0.000 A 
ATOM      7  C   UNL     1     100.646 126.939  82.607  0.00  0.00    +0.000 A 
ENDBRANCH   2   6
ENDBRANCH   1   2
BRANCH   1   8
ATOM      8  C   UNL     1     104.069 128.558  81.967  0.00  0.00    +0.000 C 
BRANCH   8   9
ATOM      9  C   UNL     1     103.753 127.879  80.631  0.00  0.00    +0.000 C 
BRANCH   9  10
ATOM     10  C   UNL     1     104.287 126.477  80.589  0.00  0.00    +0.000 A 
ATOM     11  C   UNL     1     103.580 125.300  80.440  0.00  0.00    +0.000 A 
ATOM     12  C   UNL     1     104.427 124.154  80.447  0.00  0.00    +0.000 A 
ATOM     13  C   UNL     1     105.752 124.495  80.604  0.00  0.00    +0.000 A 
ATOM     14  S   UNL     1     105.969 126.185  80.741  0.00  0.00    +0.000 S 
ENDBRANCH   9  10
ENDBRANCH   8   9
ENDBRANCH   1   8
TORSDOF 5
ENDMDL
