MODEL 1
REMARK VINA RESULT:      -4.1      0.000      0.000
REMARK  Name = *****
REMARK  5 active torsions:
REMARK  status: ('A' for Active; 'I' for Inactive)
REMARK    1  A    between atoms: C_1  and  C_2
REMARK    2  A    between atoms: C_7  and  C_8
REMARK    3  A    between atoms: C_8  and  C_9
REMARK    4  A    between atoms: C_8  and  S_10
REMARK    5  A    between atoms: S_10  and  C_11
REMARK                            x       y       z     vdW  Elec       q    Type
REMARK                         _______ _______ _______ _____ _____    ______ ____
ROOT
ATOM      1  C   UNL     1      87.117  64.834  87.848  0.00  0.00    +0.000 C 
ATOM      2  C   UNL     1      88.035  65.655  86.942  0.00  0.00    +0.000 C 
ENDROOT
BRANCH   1   9
ATOM      3  C   UNL     1      85.321  65.707  90.321  0.00  0.00    +0.000 C 
ATOM      4  C   UNL     1      86.670  65.053  90.432  0.00  0.00    +0.000 A 
ATOM      5  C   UNL     1      87.148  64.814  91.739  0.00  0.00    +0.000 A 
ATOM      6  C   UNL     1      88.387  64.222  91.969  0.00  0.00    +0.000 A 
ATOM      7  C   UNL     1      89.179  63.853  90.895  0.00  0.00    +0.000 A 
ATOM      8  C   UNL     1      88.722  64.073  89.596  0.00  0.00    +0.000 A 
ATOM      9  C   UNL     1      87.464  64.669  89.327  0.00  0.00    +0.000 A 
ENDBRANCH   1   9
BRANCH   1  10
ATOM     10  S   UNL     1      86.634  63.245  87.034  0.00  0.00    +0.000 S 
BRANCH  10  11
ATOM     11  C   UNL     1      85.620  62.477  88.280  0.00  0.00    +0.000 A 
ATOM     12  C   UNL     1      84.271  62.819  88.408  0.00  0.00    +0.000 A 
ATOM     13  C   UNL     1      83.474  62.195  89.370  0.00  0.00    +0.000 A 
ATOM     14  C   UNL     1      84.018  61.214  90.197  0.00  0.00    +0.000 A 
ATOM     15  C   UNL     1      85.357  60.852  90.059  0.00  0.00    +0.000 A 
ATOM     16  C   UNL     1      86.154  61.477  89.099  0.00  0.00    +0.000 A 
ENDBRANCH  10  11
ENDBRANCH   1  10
TORSDOF 3
ENDMDL
