MODEL 1
REMARK VINA RESULT:      -4.7      0.000      0.000
REMARK  Name = *****
REMARK  4 active torsions:
REMARK  status: ('A' for Active; 'I' for Inactive)
REMARK    1  A    between atoms: C_1  and  C_2
REMARK    2  A    between atoms: C_5  and  C_8
REMARK    3  A    between atoms: C_8  and  C_9
REMARK    4  A    between atoms: C_9  and  C_10
REMARK                            x       y       z     vdW  Elec       q    Type
REMARK                         _______ _______ _______ _____ _____    ______ ____
ROOT
ATOM      1  C   UNL     1      89.252  70.009  87.641  0.00  0.00    +0.000 C 
ENDROOT
BRANCH   1   6
ATOM      2  C   UNL     1      84.047  72.529  86.942  0.00  0.00    +0.000 C 
ATOM      3  C   UNL     1      85.387  71.882  87.124  0.00  0.00    +0.000 A 
ATOM      4  C   UNL     1      85.894  71.648  88.408  0.00  0.00    +0.000 A 
ATOM      5  C   UNL     1      87.149  71.058  88.577  0.00  0.00    +0.000 A 
ATOM      6  C   UNL     1      87.924  70.705  87.465  0.00  0.00    +0.000 A 
ATOM      7  C   UNL     1      87.424  70.960  86.183  0.00  0.00    +0.000 A 
ATOM      8  C   UNL     1      86.170  71.550  86.013  0.00  0.00    +0.000 A 
ENDBRANCH   1   6
BRANCH   1   9
ATOM      9  C   UNL     1      89.617  69.200  86.389  0.00  0.00    +0.000 C 
BRANCH   9  10
ATOM     10  C   UNL     1      89.399  67.703  86.449  0.00  0.00    +0.000 A 
ATOM     11  C   UNL     1      88.295  67.103  87.071  0.00  0.00    +0.000 A 
ATOM     12  C   UNL     1      88.156  65.712  87.083  0.00  0.00    +0.000 A 
ATOM     13  C   UNL     1      89.114  64.918  86.467  0.00  0.00    +0.000 A 
ATOM     14  C   UNL     1      90.209  65.487  85.834  0.00  0.00    +0.000 A 
ATOM     15  C   UNL     1      90.348  66.875  85.822  0.00  0.00    +0.000 A 
ATOM     16  F   UNL     1      88.978  63.586  86.481  0.00  0.00    +0.000 F 
ENDBRANCH   9  10
ENDBRANCH   1   9
TORSDOF 3
ENDMDL
