MODEL 1
REMARK VINA RESULT:      -4.0      0.000      0.000
REMARK  Name = *****
REMARK  4 active torsions:
REMARK  status: ('A' for Active; 'I' for Inactive)
REMARK    1  A    between atoms: C_4  and  C_7
REMARK    2  A    between atoms: C_7  and  S_8
REMARK    3  A    between atoms: S_8  and  C_9
REMARK    4  A    between atoms: C_10  and  C_11
REMARK                            x       y       z     vdW  Elec       q    Type
REMARK                         _______ _______ _______ _____ _____    ______ ____
ROOT
ATOM      1  S   UNL     1      89.240  70.728  85.831  0.00  0.00    +0.000 S 
ENDROOT
BRANCH   1   2
ATOM      2  C   UNL     1      89.655  69.066  85.597  0.00  0.00    +0.000 C 
ATOM      3  C   UNL     1      89.338  68.111  86.478  0.00  0.00    +0.000 C 
ATOM      4  F   UNL     1      88.668  68.435  87.611  0.00  0.00    +0.000 F 
ATOM      5  F   UNL     1      90.320  68.716  84.472  0.00  0.00    +0.000 F 
BRANCH   3   6
ATOM      6  C   UNL     1      89.709  66.692  86.250  0.00  0.00    +0.000 C 
ATOM      7  F   UNL     1      91.048  66.537  86.085  0.00  0.00    +0.000 F 
ATOM      8  F   UNL     1      89.353  65.898  87.292  0.00  0.00    +0.000 F 
ATOM      9  F   UNL     1      89.122  66.174  85.140  0.00  0.00    +0.000 F 
ENDBRANCH   3   6
ENDBRANCH   1   2
BRANCH   1  10
ATOM     10  C   UNL     1      87.566  70.745  85.123  0.00  0.00    +0.000 C 
BRANCH  10  14
ATOM     11  C   UNL     1      84.655  72.241  87.932  0.00  0.00    +0.000 A 
ATOM     12  C   UNL     1      85.791  71.578  88.393  0.00  0.00    +0.000 A 
ATOM     13  C   UNL     1      86.735  71.094  87.485  0.00  0.00    +0.000 A 
ATOM     14  C   UNL     1      86.553  71.276  86.105  0.00  0.00    +0.000 A 
ATOM     15  C   UNL     1      85.401  71.936  85.654  0.00  0.00    +0.000 A 
ATOM     16  C   UNL     1      84.459  72.418  86.564  0.00  0.00    +0.000 A 
ENDBRANCH  10  14
ENDBRANCH   1  10
TORSDOF 4
ENDMDL
