REMARK  Name = *****
REMARK  2 active torsions:
REMARK  status: ('A' for Active; 'I' for Inactive)
REMARK    1  A    between atoms: C_6  and  C_8
REMARK    2  A    between atoms: C_8  and  C_9
REMARK                            x       y       z     vdW  Elec       q    Type
REMARK                         _______ _______ _______ _____ _____    ______ ____
ROOT
ATOM      1  C   UNL     1       1.246   0.962  -0.429  0.00  0.00    +0.000 C 
ATOM      2  C   UNL     1       0.090   1.710   0.226  0.00  0.00    +0.000 C 
ATOM      3  C   UNL     1      -1.266   1.204  -0.149  0.00  0.00    +0.000 C 
ATOM      4  C   UNL     1      -1.692  -0.062  -0.047  0.00  0.00    +0.000 C 
ATOM      5  C   UNL     1      -0.910  -1.229   0.479  0.00  0.00    +0.000 C 
ATOM      6  C   UNL     1       0.440  -1.492  -0.217  0.00  0.00    +0.000 C 
ATOM      7  C   UNL     1       1.502  -0.432   0.143  0.00  0.00    +0.000 C 
ENDROOT
BRANCH   6   8
ATOM      8  C   UNL     1       0.994  -2.884   0.184  0.00  0.00    +0.000 C 
BRANCH   8   9
ATOM      9  C   UNL     1       0.183  -4.054  -0.322  0.00  0.00    +0.000 A 
ATOM     10  C   UNL     1       0.084  -4.313  -1.696  0.00  0.00    +0.000 A 
ATOM     11  C   UNL     1      -0.664  -5.396  -2.161  0.00  0.00    +0.000 A 
ATOM     12  C   UNL     1      -1.315  -6.234  -1.258  0.00  0.00    +0.000 A 
ATOM     13  C   UNL     1      -1.218  -5.991   0.110  0.00  0.00    +0.000 A 
ATOM     14  C   UNL     1      -0.471  -4.907   0.577  0.00  0.00    +0.000 A 
ENDBRANCH   8   9
ENDBRANCH   6   8
TORSDOF 2
