MODEL 1
REMARK VINA RESULT:      -3.4      0.000      0.000
REMARK  Name = *****
REMARK  5 active torsions:
REMARK  status: ('A' for Active; 'I' for Inactive)
REMARK    1  A    between atoms: C_5  and  C_6
REMARK    2  A    between atoms: C_6  and  C_7
REMARK    3  A    between atoms: C_7  and  C_8
REMARK    4  A    between atoms: C_8  and  C_9
REMARK    5  A    between atoms: C_9  and  C_10
REMARK                            x       y       z     vdW  Elec       q    Type
REMARK                         _______ _______ _______ _____ _____    ______ ____
ROOT
ATOM      1  C   UNL     1      89.060  72.710  83.981  0.00  0.00    +0.000 C 
ENDROOT
BRANCH   1   2
ATOM      2  C   UNL     1      87.884  72.235  83.121  0.00  0.00    +0.000 C 
BRANCH   2   3
ATOM      3  C   UNL     1      86.528  72.384  83.815  0.00  0.00    +0.000 C 
BRANCH   3   8
ATOM      4  C   UNL     1      86.270  69.886  84.608  0.00  0.00    +0.000 C 
ATOM      5  C   UNL     1      86.018  69.323  85.976  0.00  0.00    +0.000 C 
ATOM      6  C   UNL     1      85.947  70.321  86.872  0.00  0.00    +0.000 C 
ATOM      7  C   UNL     1      86.133  71.581  86.199  0.00  0.00    +0.000 C 
ATOM      8  C   UNL     1      86.326  71.365  84.888  0.00  0.00    +0.000 C 
ENDBRANCH   3   8
ENDBRANCH   2   3
ENDBRANCH   1   2
BRANCH   1   9
ATOM      9  C   UNL     1      90.244  71.740  83.979  0.00  0.00    +0.000 C 
BRANCH   9  10
ATOM     10  C   UNL     1      89.997  70.560  84.888  0.00  0.00    +0.000 A 
ATOM     11  C   UNL     1      89.947  69.260  84.366  0.00  0.00    +0.000 A 
ATOM     12  C   UNL     1      89.702  68.172  85.205  0.00  0.00    +0.000 A 
ATOM     13  C   UNL     1      89.499  68.373  86.569  0.00  0.00    +0.000 A 
ATOM     14  C   UNL     1      89.540  69.663  87.096  0.00  0.00    +0.000 A 
ATOM     15  C   UNL     1      89.785  70.753  86.259  0.00  0.00    +0.000 A 
ENDBRANCH   9  10
ENDBRANCH   1   9
TORSDOF 5
ENDMDL
