REMARK  Name = *****
REMARK  3 active torsions:
REMARK  status: ('A' for Active; 'I' for Inactive)
REMARK    1  A    between atoms: C_6  and  C_7
REMARK    2  A    between atoms: C_7  and  C_8
REMARK    3  A    between atoms: C_8  and  C_9
REMARK                            x       y       z     vdW  Elec       q    Type
REMARK                         _______ _______ _______ _____ _____    ______ ____
ROOT
ATOM      1  C   UNL     1      -3.422   0.035  -0.003  0.00  0.00    +0.000 C 
ENDROOT
BRANCH   1   7
ATOM      2  C   UNL     1      -1.182   0.093  -1.173  0.00  0.00    +0.000 A 
ATOM      3  C   UNL     1       0.212   0.135  -1.146  0.00  0.00    +0.000 A 
ATOM      4  C   UNL     1       0.874   0.147   0.076  0.00  0.00    +0.000 A 
ATOM      5  C   UNL     1       0.168   0.118   1.272  0.00  0.00    +0.000 A 
ATOM      6  C   UNL     1      -1.226   0.076   1.248  0.00  0.00    +0.000 A 
ATOM      7  C   UNL     1      -1.913   0.058   0.024  0.00  0.00    +0.000 A 
ATOM      8  F   UNL     1       2.213   0.189   0.100  0.00  0.00    +0.000 F 
ENDBRANCH   1   7
BRANCH   1   9
ATOM      9  C   UNL     1      -4.008   1.449   0.013  0.00  0.00    +0.000 C 
BRANCH   9  10
ATOM     10  C   UNL     1      -5.518   1.428  -0.013  0.00  0.00    +0.000 A 
ATOM     11  C   UNL     1      -6.248   1.389   1.184  0.00  0.00    +0.000 A 
ATOM     12  C   UNL     1      -7.642   1.353   1.158  0.00  0.00    +0.000 A 
ATOM     13  C   UNL     1      -8.305   1.350  -0.063  0.00  0.00    +0.000 A 
ATOM     14  C   UNL     1      -7.600   1.382  -1.260  0.00  0.00    +0.000 A 
ATOM     15  C   UNL     1      -6.205   1.418  -1.237  0.00  0.00    +0.000 A 
ATOM     16  F   UNL     1      -9.644   1.315  -0.087  0.00  0.00    +0.000 F 
ENDBRANCH   9  10
ENDBRANCH   1   9
TORSDOF 3
