MODEL 1
REMARK VINA RESULT:      -4.4      0.000      0.000
REMARK  Name = *****
REMARK  4 active torsions:
REMARK  status: ('A' for Active; 'I' for Inactive)
REMARK    1  A    between atoms: C_1  and  C_2
REMARK    2  A    between atoms: C_4  and  C_8
REMARK    3  A    between atoms: C_8  and  S_9
REMARK    4  A    between atoms: S_9  and  C_10
REMARK                            x       y       z     vdW  Elec       q    Type
REMARK                         _______ _______ _______ _____ _____    ______ ____
ROOT
ATOM      1  C   UNL     1     102.999 127.398  82.749  0.00  0.00    +0.000 C 
ENDROOT
BRANCH   1   5
ATOM      2  C   UNL     1      99.236 130.393  84.276  0.00  0.00    +0.000 C 
ATOM      3  C   UNL     1      99.704 129.107  83.660  0.00  0.00    +0.000 A 
ATOM      4  C   UNL     1     101.073 128.850  83.512  0.00  0.00    +0.000 A 
ATOM      5  C   UNL     1     101.523 127.667  82.905  0.00  0.00    +0.000 A 
ATOM      6  C   UNL     1     100.579 126.750  82.422  0.00  0.00    +0.000 A 
ATOM      7  C   UNL     1      99.215 127.007  82.553  0.00  0.00    +0.000 A 
ATOM      8  C   UNL     1      98.779 128.181  83.166  0.00  0.00    +0.000 A 
ENDBRANCH   1   5
BRANCH   1   9
ATOM      9  S   UNL     1     103.406 126.877  81.048  0.00  0.00    +0.000 S 
BRANCH   9  10
ATOM     10  C   UNL     1     103.944 125.206  81.360  0.00  0.00    +0.000 A 
ATOM     11  C   UNL     1     104.425 124.386  80.334  0.00  0.00    +0.000 A 
ATOM     12  C   UNL     1     104.832 123.078  80.610  0.00  0.00    +0.000 A 
ATOM     13  C   UNL     1     104.751 122.581  81.909  0.00  0.00    +0.000 A 
ATOM     14  C   UNL     1     104.258 123.388  82.933  0.00  0.00    +0.000 A 
ATOM     15  C   UNL     1     103.852 124.695  82.658  0.00  0.00    +0.000 A 
ENDBRANCH   9  10
ENDBRANCH   1   9
TORSDOF 3
ENDMDL
