REMARK  Name = *****
REMARK  3 active torsions:
REMARK  status: ('A' for Active; 'I' for Inactive)
REMARK    1  A    between atoms: C_6  and  C_7
REMARK    2  A    between atoms: C_7  and  S_8
REMARK    3  A    between atoms: S_8  and  C_10
REMARK                            x       y       z     vdW  Elec       q    Type
REMARK                         _______ _______ _______ _____ _____    ______ ____
ROOT
ATOM      1  S   UNL     1      -3.598   1.950   0.239  0.00  0.00    +0.000 S 
ATOM      2  O   UNL     1      -4.655   0.902   0.447  0.00  0.00    +0.000 OA
ENDROOT
BRANCH   1   3
ATOM      3  C   UNL     1      -4.246   3.448   1.018  0.00  0.00    +0.000 A 
ATOM      4  C   UNL     1      -5.602   3.556   1.355  0.00  0.00    +0.000 A 
ATOM      5  C   UNL     1      -6.085   4.721   1.953  0.00  0.00    +0.000 A 
ATOM      6  C   UNL     1      -5.210   5.769   2.216  0.00  0.00    +0.000 A 
ATOM      7  C   UNL     1      -3.861   5.674   1.895  0.00  0.00    +0.000 A 
ATOM      8  C   UNL     1      -3.375   4.510   1.296  0.00  0.00    +0.000 A 
ATOM      9  F   UNL     1      -5.673   6.887   2.789  0.00  0.00    +0.000 F 
ENDBRANCH   1   3
BRANCH   1  10
ATOM     10  C   UNL     1      -3.734   2.530  -1.489  0.00  0.00    +0.000 C 
BRANCH  10  16
ATOM     11  C   UNL     1      -1.860   1.918  -3.076  0.00  0.00    +0.000 A 
ATOM     12  C   UNL     1      -1.254   1.034  -3.971  0.00  0.00    +0.000 A 
ATOM     13  C   UNL     1      -1.857  -0.187  -4.247  0.00  0.00    +0.000 A 
ATOM     14  C   UNL     1      -3.057  -0.543  -3.644  0.00  0.00    +0.000 A 
ATOM     15  C   UNL     1      -3.667   0.339  -2.751  0.00  0.00    +0.000 A 
ATOM     16  C   UNL     1      -3.075   1.579  -2.458  0.00  0.00    +0.000 A 
ATOM     17  F   UNL     1      -1.272  -1.032  -5.105  0.00  0.00    +0.000 F 
ENDBRANCH  10  16
ENDBRANCH   1  10
TORSDOF 3
