MODEL 1
REMARK VINA RESULT:      -5.0      0.000      0.000
REMARK  Name = *****
REMARK  1 active torsions:
REMARK  status: ('A' for Active; 'I' for Inactive)
REMARK    1  A    between atoms: C_1  and  C_2
REMARK                            x       y       z     vdW  Elec       q    Type
REMARK                         _______ _______ _______ _____ _____    ______ ____
ROOT
ATOM      1  C   UNL     1      88.648  71.558  89.979  0.00  0.00    +0.000 C 
ATOM      2  C   UNL     1      88.154  70.957  88.697  0.00  0.00    +0.000 A 
ATOM      3  C   UNL     1      88.990  70.148  87.919  0.00  0.00    +0.000 A 
ATOM      4  C   UNL     1      88.526  69.558  86.728  0.00  0.00    +0.000 A 
ATOM      5  C   UNL     1      87.193  69.748  86.329  0.00  0.00    +0.000 A 
ATOM      6  C   UNL     1      86.354  70.543  87.126  0.00  0.00    +0.000 A 
ATOM      7  C   UNL     1      86.829  71.141  88.295  0.00  0.00    +0.000 A 
ATOM      8  S   UNL     1      86.454  68.992  84.890  0.00  0.00    +0.000 S 
ATOM      9  C   UNL     1      86.744  70.203  83.642  0.00  0.00    +0.000 C 
ATOM     10  O   UNL     1      85.918  70.376  82.755  0.00  0.00    +0.000 OA
ATOM     11  C   UNL     1      87.943  71.079  83.706  0.00  0.00    +0.000 A 
ATOM     12  C   UNL     1      87.715  72.443  83.452  0.00  0.00    +0.000 A 
ATOM     13  C   UNL     1      88.763  73.362  83.499  0.00  0.00    +0.000 A 
ATOM     14  C   UNL     1      90.052  72.925  83.787  0.00  0.00    +0.000 A 
ATOM     15  C   UNL     1      90.294  71.569  84.019  0.00  0.00    +0.000 A 
ATOM     16  C   UNL     1      89.248  70.632  83.983  0.00  0.00    +0.000 A 
ATOM     17  S   UNL     1      89.693  68.922  84.237  0.00  0.00    +0.000 S 
ATOM     18  C   UNL     1      89.522  68.746  85.982  0.00  0.00    +0.000 C 
ATOM     19  O   UNL     1      90.280  68.004  86.598  0.00  0.00    +0.000 OA
ENDROOT
TORSDOF 0
ENDMDL
