MODEL 1
REMARK VINA RESULT:      -3.6      0.000      0.000
REMARK  Name = *****
REMARK  2 active torsions:
REMARK  status: ('A' for Active; 'I' for Inactive)
REMARK    1  A    between atoms: C_4  and  C_6
REMARK    2  A    between atoms: C_8  and  C_11
REMARK                            x       y       z     vdW  Elec       q    Type
REMARK                         _______ _______ _______ _____ _____    ______ ____
ROOT
ATOM      1  C   UNL     1     104.342 125.066  82.306  0.00  0.00    +0.000 C 
ATOM      2  C   UNL     1     102.981 125.412  82.942  0.00  0.00    +0.000 C 
ATOM      3  C   UNL     1     102.138 126.130  81.888  0.00  0.00    +0.000 C 
ATOM      4  S   UNL     1     103.333 127.192  81.011  0.00  0.00    +0.000 S 
ATOM      5  C   UNL     1     104.811 126.405  81.719  0.00  0.00    +0.000 C 
ENDROOT
BRANCH   1   9
ATOM      6  C   UNL     1     106.782 123.179  80.392  0.00  0.00    +0.000 C 
ATOM      7  C   UNL     1     106.118 121.891  80.825  0.00  0.00    +0.000 C 
ATOM      8  S   UNL     1     104.777 122.304  81.972  0.00  0.00    +0.000 S 
ATOM      9  C   UNL     1     104.313 123.928  81.250  0.00  0.00    +0.000 C 
ATOM     10  S   UNL     1     105.457 124.288  79.863  0.00  0.00    +0.000 S 
ENDBRANCH   1   9
BRANCH   3  11
ATOM     11  C   UNL     1     101.005 126.908  82.493  0.00  0.00    +0.000 A 
ATOM     12  C   UNL     1      99.638 126.720  82.371  0.00  0.00    +0.000 A 
ATOM     13  C   UNL     1      98.884 127.688  83.094  0.00  0.00    +0.000 A 
ATOM     14  C   UNL     1      99.694 128.592  83.741  0.00  0.00    +0.000 A 
ATOM     15  S   UNL     1     101.351 128.273  83.476  0.00  0.00    +0.000 S 
ENDBRANCH   3  11
TORSDOF 2
ENDMDL
