MODEL 1
REMARK VINA RESULT:      -3.9      0.000      0.000
REMARK  Name = *****
REMARK  4 active torsions:
REMARK  status: ('A' for Active; 'I' for Inactive)
REMARK    1  A    between atoms: C_1  and  C_2
REMARK    2  A    between atoms: C_5  and  C_8
REMARK    3  A    between atoms: C_8  and  C_9
REMARK    4  A    between atoms: C_9  and  C_15
REMARK                            x       y       z     vdW  Elec       q    Type
REMARK                         _______ _______ _______ _____ _____    ______ ____
ROOT
ATOM      1  C   UNL     1      87.684  70.530  88.105  0.00  0.00    +0.000 C 
ENDROOT
BRANCH   1   6
ATOM      2  C   UNL     1      83.046  73.219  85.808  0.00  0.00    +0.000 C 
ATOM      3  C   UNL     1      84.254  72.556  86.402  0.00  0.00    +0.000 A 
ATOM      4  C   UNL     1      84.367  72.396  87.787  0.00  0.00    +0.000 A 
ATOM      5  C   UNL     1      85.477  71.749  88.336  0.00  0.00    +0.000 A 
ATOM      6  C   UNL     1      86.491  71.246  87.510  0.00  0.00    +0.000 A 
ATOM      7  C   UNL     1      86.365  71.391  86.122  0.00  0.00    +0.000 A 
ATOM      8  C   UNL     1      85.255  72.037  85.574  0.00  0.00    +0.000 A 
ENDBRANCH   1   6
BRANCH   1   9
ATOM      9  C   UNL     1      87.612  69.021  87.951  0.00  0.00    +0.000 C 
ATOM     10  C   UNL     1      88.396  68.290  87.125  0.00  0.00    +0.000 C 
ATOM     11  S   UNL     1      88.293  66.541  87.007  0.00  0.00    +0.000 S 
ATOM     12  C   UNL     1      89.816  66.318  86.046  0.00  0.00    +0.000 C 
ATOM     13  C   UNL     1      89.937  67.502  85.107  0.00  0.00    +0.000 C 
ATOM     14  S   UNL     1      89.605  69.003  86.076  0.00  0.00    +0.000 S 
BRANCH   9  15
ATOM     15  C   UNL     1      86.658  68.379  88.807  0.00  0.00    +0.000 C 
ATOM     16  N   UNL     1      85.860  67.904  89.504  0.00  0.00    +0.000 NA
ENDBRANCH   9  15
ENDBRANCH   1   9
TORSDOF 3
ENDMDL
