MODEL 1
REMARK VINA RESULT:      -4.7      0.000      0.000
REMARK  Name = *****
REMARK  5 active torsions:
REMARK  status: ('A' for Active; 'I' for Inactive)
REMARK    1  A    between atoms: C_1  and  C_2
REMARK    2  A    between atoms: C_2  and  O_4
REMARK    3  A    between atoms: O_4  and  C_5
REMARK    4  A    between atoms: C_8  and  C_11
REMARK    5  A    between atoms: C_12  and  C_13
REMARK                            x       y       z     vdW  Elec       q    Type
REMARK                         _______ _______ _______ _____ _____    ______ ____
ROOT
ATOM      1  C   UNL     1     105.915 122.623  81.028  0.00  0.00    +0.000 A 
ATOM      2  C   UNL     1     105.441 123.505  80.058  0.00  0.00    +0.000 A 
ATOM      3  C   UNL     1     104.438 124.417  80.395  0.00  0.00    +0.000 A 
ATOM      4  C   UNL     1     103.906 124.427  81.689  0.00  0.00    +0.000 A 
ATOM      5  C   UNL     1     104.375 123.522  82.646  0.00  0.00    +0.000 A 
ATOM      6  C   UNL     1     105.379 122.611  82.314  0.00  0.00    +0.000 A 
ENDROOT
BRANCH   4   7
ATOM      7  C   UNL     1     102.876 125.359  82.030  0.00  0.00    +0.000 C 
ATOM      8  C   UNL     1     102.011 126.141  82.320  0.00  0.00    +0.000 C 
BRANCH   8   9
ATOM      9  C   UNL     1     100.981 127.070  82.667  0.00  0.00    +0.000 A 
ATOM     10  C   UNL     1     101.303 128.262  83.318  0.00  0.00    +0.000 A 
ATOM     11  C   UNL     1     100.296 129.168  83.657  0.00  0.00    +0.000 A 
ATOM     12  C   UNL     1      98.966 128.883  83.346  0.00  0.00    +0.000 A 
ATOM     13  C   UNL     1      98.642 127.692  82.696  0.00  0.00    +0.000 A 
ATOM     14  C   UNL     1      99.648 126.786  82.356  0.00  0.00    +0.000 A 
ENDBRANCH   8   9
ENDBRANCH   4   7
BRANCH   1  15
ATOM     15  O   UNL     1     106.875 121.653  80.717  0.00  0.00    +0.000 OA
BRANCH  15  17
ATOM     16  C   UNL     1     108.828 122.627  81.586  0.00  0.00    +0.000 C 
ATOM     17  C   UNL     1     108.125 122.143  80.353  0.00  0.00    +0.000 C 
ATOM     18  O   UNL     1     108.598 122.195  79.226  0.00  0.00    +0.000 OA
ENDBRANCH  15  17
ENDBRANCH   1  15
TORSDOF 4
ENDMDL
