MODEL 1
REMARK VINA RESULT:      -4.6      0.000      0.000
REMARK  Name = *****
REMARK  6 active torsions:
REMARK  status: ('A' for Active; 'I' for Inactive)
REMARK    1  A    between atoms: C_1  and  O_2
REMARK    2  A    between atoms: O_2  and  C_3
REMARK    3  A    between atoms: C_3  and  C_5
REMARK    4  A    between atoms: C_8  and  N_11
REMARK    5  A    between atoms: N_11  and  C_12
REMARK    6  A    between atoms: C_12  and  C_13
REMARK                            x       y       z     vdW  Elec       q    Type
REMARK                         _______ _______ _______ _____ _____    ______ ____
ROOT
ATOM      1  C   UNL     1      88.877  65.856  87.030  0.00  0.00    +0.000 A 
ATOM      2  C   UNL     1      87.775  66.547  87.551  0.00  0.00    +0.000 A 
ATOM      3  C   UNL     1      87.714  67.941  87.456  0.00  0.00    +0.000 A 
ATOM      4  C   UNL     1      88.737  68.655  86.831  0.00  0.00    +0.000 A 
ATOM      5  C   UNL     1      89.845  67.967  86.335  0.00  0.00    +0.000 A 
ATOM      6  C   UNL     1      89.918  66.573  86.424  0.00  0.00    +0.000 A 
ENDROOT
BRANCH   1   7
ATOM      7  C   UNL     1      88.899  64.372  87.152  0.00  0.00    +0.000 C 
ATOM      8  O   UNL     1      88.568  63.765  88.159  0.00  0.00    +0.000 OA
BRANCH   7  10
ATOM      9  C   UNL     1      88.279  63.377  85.133  0.00  0.00    +0.000 C 
ATOM     10  O   UNL     1      89.332  63.802  85.998  0.00  0.00    +0.000 OA
ENDBRANCH   7  10
ENDBRANCH   1   7
BRANCH   4  11
ATOM     11  N   UNL     1      88.691  70.052  86.757  0.00  0.00    +0.000 NA
BRANCH  11  12
ATOM     12  C   UNL     1      87.833  70.649  85.983  0.00  0.00    +0.000 C 
ATOM     13  O   UNL     1      87.843  70.782  84.745  0.00  0.00    +0.000 OA
BRANCH  12  14
ATOM     14  C   UNL     1      86.589  71.321  86.474  0.00  0.00    +0.000 A 
ATOM     15  C   UNL     1      86.320  71.382  87.847  0.00  0.00    +0.000 A 
ATOM     16  C   UNL     1      85.130  71.955  88.298  0.00  0.00    +0.000 A 
ATOM     17  C   UNL     1      84.206  72.458  87.378  0.00  0.00    +0.000 A 
ATOM     18  C   UNL     1      84.472  72.393  86.007  0.00  0.00    +0.000 A 
ATOM     19  C   UNL     1      85.661  71.822  85.553  0.00  0.00    +0.000 A 
ENDBRANCH  12  14
ENDBRANCH  11  12
ENDBRANCH   4  11
TORSDOF 5
ENDMDL
