MODEL 1
REMARK VINA RESULT:      -4.3      0.000      0.000
REMARK  Name = *****
REMARK  4 active torsions:
REMARK  status: ('A' for Active; 'I' for Inactive)
REMARK    1  A    between atoms: C_1  and  C_2
REMARK    2  A    between atoms: C_2  and  C_3
REMARK    3  A    between atoms: C_2  and  C_10
REMARK    4  A    between atoms: C_3  and  C_4
REMARK                            x       y       z     vdW  Elec       q    Type
REMARK                         _______ _______ _______ _____ _____    ______ ____
ROOT
ATOM      1  C   UNL     1     103.624 127.207  80.274  0.00  0.00    +0.000 C 
ATOM      2  C   UNL     1     103.108 125.866  80.818  0.00  0.00    +0.000 C 
ENDROOT
BRANCH   2   3
ATOM      3  C   UNL     1     104.163 124.800  80.599  0.00  0.00    +0.000 A 
ATOM      4  C   UNL     1     104.316 123.570  81.213  0.00  0.00    +0.000 A 
ATOM      5  C   UNL     1     105.453 122.857  80.733  0.00  0.00    +0.000 A 
ATOM      6  C   UNL     1     106.141 123.565  79.775  0.00  0.00    +0.000 A 
ATOM      7  S   UNL     1     105.419 125.079  79.456  0.00  0.00    +0.000 S 
ENDBRANCH   2   3
BRANCH   2   8
ATOM      8  C   UNL     1     102.696 126.038  82.299  0.00  0.00    +0.000 C 
BRANCH   8   9
ATOM      9  C   UNL     1     101.532 126.945  82.646  0.00  0.00    +0.000 A 
ATOM     10  C   UNL     1     101.662 128.160  83.330  0.00  0.00    +0.000 A 
ATOM     11  C   UNL     1     100.537 128.936  83.628  0.00  0.00    +0.000 A 
ATOM     12  C   UNL     1      99.266 128.502  83.262  0.00  0.00    +0.000 A 
ATOM     13  C   UNL     1      99.117 127.290  82.594  0.00  0.00    +0.000 A 
ATOM     14  C   UNL     1     100.241 126.520  82.290  0.00  0.00    +0.000 A 
ENDBRANCH   8   9
ENDBRANCH   2   8
TORSDOF 3
ENDMDL
