REMARK  Name = *****
REMARK  4 active torsions:
REMARK  status: ('A' for Active; 'I' for Inactive)
REMARK    1  A    between atoms: C_4  and  C_7
REMARK    2  A    between atoms: C_7  and  O_8
REMARK    3  A    between atoms: O_8  and  C_9
REMARK    4  A    between atoms: C_9  and  C_11
REMARK                            x       y       z     vdW  Elec       q    Type
REMARK                         _______ _______ _______ _____ _____    ______ ____
ROOT
ATOM      1  O   UNL     1      -0.704  -3.524  -0.370  0.00  0.00    +0.000 OA
ENDROOT
BRANCH   1   2
ATOM      2  C   UNL     1      -0.638  -4.835  -0.703  0.00  0.00    +0.000 C 
ATOM      3  O   UNL     1       0.347  -5.415  -1.132  0.00  0.00    +0.000 OA
BRANCH   2   4
ATOM      4  C   UNL     1      -1.955  -5.494  -0.487  0.00  0.00    +0.000 A 
ATOM      5  C   UNL     1      -2.094  -6.835  -0.869  0.00  0.00    +0.000 A 
ATOM      6  C   UNL     1      -3.310  -7.497  -0.687  0.00  0.00    +0.000 A 
ATOM      7  C   UNL     1      -4.392  -6.824  -0.121  0.00  0.00    +0.000 A 
ATOM      8  C   UNL     1      -4.261  -5.490   0.265  0.00  0.00    +0.000 A 
ATOM      9  C   UNL     1      -3.046  -4.824   0.083  0.00  0.00    +0.000 A 
ENDBRANCH   2   4
ENDBRANCH   1   2
BRANCH   1  10
ATOM     10  C   UNL     1       0.526  -2.816  -0.554  0.00  0.00    +0.000 C 
BRANCH  10  14
ATOM     11  C   UNL     1      -0.575   1.301   0.460  0.00  0.00    +0.000 C 
ATOM     12  C   UNL     1      -0.686   0.869  -0.997  0.00  0.00    +0.000 C 
ATOM     13  C   UNL     1      -0.730  -0.657  -1.120  0.00  0.00    +0.000 C 
ATOM     14  C   UNL     1       0.276  -1.362  -0.240  0.00  0.00    +0.000 C 
ATOM     15  C   UNL     1       0.920  -0.720   0.753  0.00  0.00    +0.000 C 
ATOM     16  C   UNL     1       0.679   0.718   1.112  0.00  0.00    +0.000 C 
ENDBRANCH  10  14
ENDBRANCH   1  10
TORSDOF 4
