MODEL 1
REMARK VINA RESULT:      -4.8      0.000      0.000
REMARK  Name = *****
REMARK  2 active torsions:
REMARK  status: ('A' for Active; 'I' for Inactive)
REMARK    1  A    between atoms: N_7  and  C_10
REMARK    2  A    between atoms: C_10  and  C_11
REMARK                            x       y       z     vdW  Elec       q    Type
REMARK                         _______ _______ _______ _____ _____    ______ ____
ROOT
ATOM      1  C   UNL     1      88.967  71.341  84.041  0.00  0.00    +0.000 A 
ATOM      2  C   UNL     1      90.309  70.981  83.905  0.00  0.00    +0.000 A 
ATOM      3  C   UNL     1      91.261  71.881  83.428  0.00  0.00    +0.000 A 
ATOM      4  C   UNL     1      90.879  73.166  83.069  0.00  0.00    +0.000 A 
ATOM      5  C   UNL     1      89.550  73.544  83.184  0.00  0.00    +0.000 A 
ATOM      6  C   UNL     1      88.606  72.636  83.663  0.00  0.00    +0.000 A 
ATOM      7  F   UNL     1      87.323  73.007  83.768  0.00  0.00    +0.000 F 
ATOM      8  F   UNL     1      89.165  74.780  82.842  0.00  0.00    +0.000 F 
ATOM      9  F   UNL     1      91.790  74.036  82.615  0.00  0.00    +0.000 F 
ATOM     10  F   UNL     1      92.539  71.500  83.323  0.00  0.00    +0.000 F 
ATOM     11  F   UNL     1      90.682  69.739  84.244  0.00  0.00    +0.000 F 
ENDROOT
BRANCH   1  12
ATOM     12  C   UNL     1      87.942  70.363  84.547  0.00  0.00    +0.000 C 
BRANCH  12  19
ATOM     13  C   UNL     1      84.564  72.312  86.762  0.00  0.00    +0.000 A 
ATOM     14  C   UNL     1      84.666  72.297  88.149  0.00  0.00    +0.000 A 
ATOM     15  C   UNL     1      85.755  71.692  88.782  0.00  0.00    +0.000 A 
ATOM     16  C   UNL     1      86.744  71.105  87.977  0.00  0.00    +0.000 A 
ATOM     17  C   UNL     1      86.663  71.120  86.585  0.00  0.00    +0.000 A 
ATOM     18  C   UNL     1      85.554  71.725  85.963  0.00  0.00    +0.000 A 
ATOM     19  N   UNL     1      87.758  70.498  85.996  0.00  0.00    +0.000 N 
ATOM     20  C   UNL     1      88.626  69.981  86.847  0.00  0.00    +0.000 C 
ATOM     21  S   UNL     1      88.178  70.284  88.465  0.00  0.00    +0.000 S 
ENDBRANCH  12  19
ENDBRANCH   1  12
TORSDOF 2
ENDMDL
