MODEL 1
REMARK VINA RESULT:      -4.9      0.000      0.000
REMARK  Name = *****
REMARK  4 active torsions:
REMARK  status: ('A' for Active; 'I' for Inactive)
REMARK    1  A    between atoms: C_1  and  C_2
REMARK    2  A    between atoms: C_3  and  C_17
REMARK    3  A    between atoms: C_5  and  N_8
REMARK    4  A    between atoms: C_9  and  C_10
REMARK                            x       y       z     vdW  Elec       q    Type
REMARK                         _______ _______ _______ _____ _____    ______ ____
ROOT
ATOM      1  N   UNL     1     102.689 126.098  81.518  0.00  0.00    +0.000 NA
ATOM      2  C   UNL     1     101.879 126.027  82.530  0.00  0.00    +0.000 C 
ENDROOT
BRANCH   1   7
ATOM      3  C   UNL     1     106.366 121.753  80.929  0.00  0.00    +0.000 C 
ATOM      4  C   UNL     1     105.390 122.883  81.107  0.00  0.00    +0.000 A 
ATOM      5  C   UNL     1     104.716 123.088  82.327  0.00  0.00    +0.000 A 
ATOM      6  C   UNL     1     103.817 124.162  82.443  0.00  0.00    +0.000 A 
ATOM      7  C   UNL     1     103.581 125.026  81.372  0.00  0.00    +0.000 A 
ATOM      8  C   UNL     1     104.270 124.833  80.177  0.00  0.00    +0.000 A 
ATOM      9  C   UNL     1     105.164 123.769  80.042  0.00  0.00    +0.000 A 
ATOM     10  C   UNL     1     104.933 122.182  83.507  0.00  0.00    +0.000 C 
ENDBRANCH   1   7
BRANCH   2  11
ATOM     11  C   UNL     1     100.884 127.088  82.805  0.00  0.00    +0.000 A 
ATOM     12  C   UNL     1      99.544 126.863  82.455  0.00  0.00    +0.000 A 
ATOM     13  C   UNL     1      98.575 127.840  82.696  0.00  0.00    +0.000 A 
ATOM     14  C   UNL     1      98.938 129.046  83.288  0.00  0.00    +0.000 A 
ATOM     15  C   UNL     1     100.269 129.277  83.641  0.00  0.00    +0.000 A 
ATOM     16  C   UNL     1     101.244 128.302  83.401  0.00  0.00    +0.000 A 
ATOM     17 CL   UNL     1     102.865 128.676  83.874  0.00  0.00    +0.000 Cl
ENDBRANCH   2  11
TORSDOF 2
ENDMDL
