REMARK  Name = *****
REMARK  4 active torsions:
REMARK  status: ('A' for Active; 'I' for Inactive)
REMARK    1  A    between atoms: C_1  and  O_2
REMARK    2  A    between atoms: O_2  and  C_3
REMARK    3  A    between atoms: C_6  and  C_9
REMARK    4  A    between atoms: C_10  and  C_11
REMARK                            x       y       z     vdW  Elec       q    Type
REMARK                         _______ _______ _______ _____ _____    ______ ____
ROOT
ATOM      1  C   UNL     1       5.230   0.946  -4.724  0.00  0.00    +0.000 C 
ATOM      2  C   UNL     1       4.880   1.849  -5.655  0.00  0.00    +0.000 C 
ENDROOT
BRANCH   2   3
ATOM      3  C   UNL     1       5.610   2.053  -6.914  0.00  0.00    +0.000 A 
ATOM      4  C   UNL     1       6.159   0.989  -7.642  0.00  0.00    +0.000 A 
ATOM      5  C   UNL     1       6.818   1.230  -8.848  0.00  0.00    +0.000 A 
ATOM      6  C   UNL     1       6.929   2.524  -9.351  0.00  0.00    +0.000 A 
ATOM      7  C   UNL     1       6.372   3.587  -8.643  0.00  0.00    +0.000 A 
ATOM      8  C   UNL     1       5.711   3.351  -7.435  0.00  0.00    +0.000 A 
ATOM      9 CL   UNL     1       7.495  -0.086  -9.728  0.00  0.00    +0.000 Cl
ENDBRANCH   2   3
BRANCH   1  13
ATOM     10  C   UNL     1       3.190   0.312  -1.003  0.00  0.00    +0.000 A 
ATOM     11  C   UNL     1       2.457   0.603  -2.153  0.00  0.00    +0.000 A 
ATOM     12  C   UNL     1       3.113   0.819  -3.372  0.00  0.00    +0.000 A 
ATOM     13  C   UNL     1       4.509   0.757  -3.457  0.00  0.00    +0.000 A 
ATOM     14  C   UNL     1       5.237   0.448  -2.304  0.00  0.00    +0.000 A 
ATOM     15  C   UNL     1       4.581   0.233  -1.087  0.00  0.00    +0.000 A 
BRANCH  10  17
ATOM     16  C   UNL     1       1.266   0.166   0.383  0.00  0.00    +0.000 C 
ATOM     17  O   UNL     1       2.678   0.082   0.243  0.00  0.00    +0.000 OA
ENDBRANCH  10  17
ENDBRANCH   1  13
TORSDOF 3
