MODEL 1
REMARK VINA RESULT:      -4.7      0.000      0.000
REMARK  Name = *****
REMARK  5 active torsions:
REMARK  status: ('A' for Active; 'I' for Inactive)
REMARK    1  A    between atoms: C_1  and  C_2
REMARK    2  A    between atoms: C_7  and  O_8
REMARK    3  A    between atoms: O_8  and  C_9
REMARK    4  A    between atoms: C_9  and  O_11
REMARK    5  A    between atoms: O_11  and  C_12
REMARK                            x       y       z     vdW  Elec       q    Type
REMARK                         _______ _______ _______ _____ _____    ______ ____
ROOT
ATOM      1  C   UNL     1     102.582 125.443  83.422  0.00  0.00    +0.000 C 
ATOM      2  O   UNL     1     102.224 125.153  84.556  0.00  0.00    +0.000 OA
ENDROOT
BRANCH   1   3
ATOM      3  O   UNL     1     103.880 125.404  82.932  0.00  0.00    +0.000 OA
BRANCH   3  10
ATOM      4  C   UNL     1     104.288 125.128  80.080  0.00  0.00    +0.000 C 
ATOM      5  C   UNL     1     104.409 123.981  81.038  0.00  0.00    +0.000 A 
ATOM      6  C   UNL     1     104.741 122.703  80.571  0.00  0.00    +0.000 A 
ATOM      7  C   UNL     1     104.866 121.630  81.459  0.00  0.00    +0.000 A 
ATOM      8  C   UNL     1     104.664 121.820  82.826  0.00  0.00    +0.000 A 
ATOM      9  C   UNL     1     104.345 123.087  83.310  0.00  0.00    +0.000 A 
ATOM     10  C   UNL     1     104.242 124.155  82.418  0.00  0.00    +0.000 A 
ENDBRANCH   3  10
ENDBRANCH   1   3
BRANCH   1  11
ATOM     11  O   UNL     1     101.766 125.879  82.386  0.00  0.00    +0.000 OA
BRANCH  11  12
ATOM     12  C   UNL     1     100.910 126.950  82.675  0.00  0.00    +0.000 A 
ATOM     13  C   UNL     1      99.555 126.774  82.401  0.00  0.00    +0.000 A 
ATOM     14  C   UNL     1      98.654 127.789  82.724  0.00  0.00    +0.000 A 
ATOM     15  C   UNL     1      99.112 128.961  83.330  0.00  0.00    +0.000 A 
ATOM     16  C   UNL     1     100.468 129.118  83.621  0.00  0.00    +0.000 A 
ATOM     17  C   UNL     1     101.373 128.105  83.303  0.00  0.00    +0.000 A 
ENDBRANCH  11  12
ENDBRANCH   1  11
TORSDOF 4
ENDMDL
