MODEL 1
REMARK VINA RESULT:      -4.8      0.000      0.000
REMARK  Name = *****
REMARK  3 active torsions:
REMARK  status: ('A' for Active; 'I' for Inactive)
REMARK    1  A    between atoms: C_1  and  C_2
REMARK    2  A    between atoms: C_5  and  C_7
REMARK    3  A    between atoms: C_8  and  C_9
REMARK                            x       y       z     vdW  Elec       q    Type
REMARK                         _______ _______ _______ _____ _____    ______ ____
ROOT
ATOM      1  C   UNL     1     103.001 126.276  81.146  0.00  0.00    +0.000 C 
ATOM      2  C   UNL     1     102.065 125.999  82.067  0.00  0.00    +0.000 C 
ENDROOT
BRANCH   2   3
ATOM      3  C   UNL     1     101.099 126.981  82.581  0.00  0.00    +0.000 A 
ATOM      4  C   UNL     1     101.497 128.150  83.242  0.00  0.00    +0.000 A 
ATOM      5  C   UNL     1     100.541 129.066  83.687  0.00  0.00    +0.000 A 
ATOM      6  C   UNL     1      99.184 128.837  83.469  0.00  0.00    +0.000 A 
ATOM      7  C   UNL     1      98.779 127.687  82.797  0.00  0.00    +0.000 A 
ATOM      8  C   UNL     1      99.732 126.767  82.350  0.00  0.00    +0.000 A 
ATOM      9 CL   UNL     1     101.044 130.493  84.507  0.00  0.00    +0.000 Cl
ENDBRANCH   2   3
BRANCH   1  14
ATOM     10  C   UNL     1     105.037 121.866  80.859  0.00  0.00    +0.000 C 
ATOM     11  C   UNL     1     104.900 123.293  80.514  0.00  0.00    +0.000 A 
ATOM     12  C   UNL     1     105.584 124.136  79.673  0.00  0.00    +0.000 A 
ATOM     13  C   UNL     1     104.955 125.399  79.794  0.00  0.00    +0.000 A 
ATOM     14  C   UNL     1     103.911 125.276  80.704  0.00  0.00    +0.000 A 
ATOM     15  O   UNL     1     103.897 123.966  81.136  0.00  0.00    +0.000 OA
ENDBRANCH   1  14
TORSDOF 2
ENDMDL
