MODEL 1
REMARK VINA RESULT:      -4.4      0.000      0.000
REMARK  Name = *****
REMARK  4 active torsions:
REMARK  status: ('A' for Active; 'I' for Inactive)
REMARK    1  A    between atoms: C_4  and  C_7
REMARK    2  A    between atoms: C_7  and  C_8
REMARK    3  A    between atoms: C_8  and  C_9
REMARK    4  A    between atoms: C_9  and  C_10
REMARK                            x       y       z     vdW  Elec       q    Type
REMARK                         _______ _______ _______ _____ _____    ______ ____
ROOT
ATOM      1  C   UNL     1      89.098  70.014  85.826  0.00  0.00    +0.000 C 
ENDROOT
BRANCH   1   2
ATOM      2  C   UNL     1      89.405  70.058  87.323  0.00  0.00    +0.000 C 
BRANCH   2   6
ATOM      3  C   UNL     1      86.216  71.841  89.616  0.00  0.00    +0.000 A 
ATOM      4  C   UNL     1      87.467  71.641  90.196  0.00  0.00    +0.000 A 
ATOM      5  C   UNL     1      88.498  71.065  89.454  0.00  0.00    +0.000 A 
ATOM      6  C   UNL     1      88.290  70.690  88.120  0.00  0.00    +0.000 A 
ATOM      7  C   UNL     1      87.025  70.884  87.549  0.00  0.00    +0.000 A 
ATOM      8  C   UNL     1      85.994  71.459  88.293  0.00  0.00    +0.000 A 
ENDBRANCH   2   6
ENDBRANCH   1   2
BRANCH   1   9
ATOM      9  C   UNL     1      89.811  71.156  85.096  0.00  0.00    +0.000 C 
BRANCH   9  10
ATOM     10  C   UNL     1      88.849  72.000  84.277  0.00  0.00    +0.000 C 
ATOM     11  C   UNL     1      87.511  71.552  84.175  0.00  0.00    +0.000 C 
ATOM     12  C   UNL     1      86.573  72.261  83.437  0.00  0.00    +0.000 C 
ATOM     13  C   UNL     1      86.966  73.421  82.789  0.00  0.00    +0.000 C 
ATOM     14  C   UNL     1      88.294  73.857  82.886  0.00  0.00    +0.000 C 
ATOM     15  C   UNL     1      89.292  73.181  83.620  0.00  0.00    +0.000 C 
ATOM     16  O   UNL     1      90.490  73.625  83.668  0.00  0.00    +0.000 OA
ENDBRANCH   9  10
ENDBRANCH   1   9
TORSDOF 4
ENDMDL
