MODEL 1
REMARK VINA RESULT:      -4.5      0.000      0.000
REMARK  Name = *****
REMARK  4 active torsions:
REMARK  status: ('A' for Active; 'I' for Inactive)
REMARK    1  A    between atoms: C_4  and  C_7
REMARK    2  A    between atoms: C_7  and  C_8
REMARK    3  A    between atoms: C_8  and  C_9
REMARK    4  A    between atoms: C_9  and  C_10
REMARK                            x       y       z     vdW  Elec       q    Type
REMARK                         _______ _______ _______ _____ _____    ______ ____
ROOT
ATOM      1  C   UNL     1      97.891 116.548  78.631  0.00  0.00    +0.000 C 
ENDROOT
BRANCH   1   2
ATOM      2  C   UNL     1      96.998 115.799  77.640  0.00  0.00    +0.000 C 
BRANCH   2   6
ATOM      3  C   UNL     1      94.876 118.534  75.069  0.00  0.00    +0.000 A 
ATOM      4  C   UNL     1      95.995 117.854  74.592  0.00  0.00    +0.000 A 
ATOM      5  C   UNL     1      96.681 116.966  75.421  0.00  0.00    +0.000 A 
ATOM      6  C   UNL     1      96.249 116.745  76.736  0.00  0.00    +0.000 A 
ATOM      7  C   UNL     1      95.126 117.439  77.209  0.00  0.00    +0.000 A 
ATOM      8  C   UNL     1      94.442 118.327  76.377  0.00  0.00    +0.000 A 
ENDBRANCH   2   6
ENDBRANCH   1   2
BRANCH   1   9
ATOM      9  C   UNL     1      97.272 116.557  80.029  0.00  0.00    +0.000 C 
BRANCH   9  10
ATOM     10  C   UNL     1      97.140 117.956  80.575  0.00  0.00    +0.000 A 
ATOM     11  C   UNL     1      95.873 118.490  80.860  0.00  0.00    +0.000 A 
ATOM     12  C   UNL     1      95.751 119.791  81.350  0.00  0.00    +0.000 A 
ATOM     13  C   UNL     1      96.893 120.558  81.551  0.00  0.00    +0.000 A 
ATOM     14  C   UNL     1      98.155 120.050  81.268  0.00  0.00    +0.000 A 
ATOM     15  C   UNL     1      98.279 118.749  80.777  0.00  0.00    +0.000 A 
ATOM     16  F   UNL     1      96.775 121.807  82.022  0.00  0.00    +0.000 F 
ENDBRANCH   9  10
ENDBRANCH   1   9
TORSDOF 4
ENDMDL
