REMARK  Name = *****
REMARK  2 active torsions:
REMARK  status: ('A' for Active; 'I' for Inactive)
REMARK    1  A    between atoms: C_1  and  C_2
REMARK    2  A    between atoms: C_10  and  C_12
REMARK                            x       y       z     vdW  Elec       q    Type
REMARK                         _______ _______ _______ _____ _____    ______ ____
ROOT
ATOM      1  C   UNL     1       0.807   0.187  -0.205  0.00  0.00    +0.000 C 
ATOM      2  C   UNL     1       2.329   0.051  -0.157  0.00  0.00    +0.000 C 
ATOM      3  C   UNL     1       2.931  -0.506   1.150  0.00  0.00    +0.000 C 
ATOM      4  C   UNL     1       2.040  -1.442   1.976  0.00  0.00    +0.000 C 
ATOM      5  C   UNL     1       1.909  -2.830   1.355  0.00  0.00    +0.000 C 
ATOM      6  C   UNL     1       3.275  -3.470   1.130  0.00  0.00    +0.000 C 
ATOM      7  C   UNL     1       4.191  -2.571   0.306  0.00  0.00    +0.000 C 
ATOM      8  C   UNL     1       4.306  -1.175   0.914  0.00  0.00    +0.000 C 
ATOM      9  O   UNL     1       3.162   0.691   1.906  0.00  0.00    +0.000 OA
ATOM     10  C   UNL     1       3.254   1.672   0.976  0.00  0.00    +0.000 C 
ATOM     11  N   UNL     1       2.880   1.424  -0.241  0.00  0.00    +0.000 NA
ENDROOT
BRANCH  10  12
ATOM     12  C   UNL     1       3.794   2.948   1.476  0.00  0.00    +0.000 A 
ATOM     13  C   UNL     1       4.187   3.103   2.811  0.00  0.00    +0.000 A 
ATOM     14  C   UNL     1       4.697   4.326   3.253  0.00  0.00    +0.000 A 
ATOM     15  C   UNL     1       4.815   5.396   2.366  0.00  0.00    +0.000 A 
ATOM     16  C   UNL     1       4.425   5.246   1.035  0.00  0.00    +0.000 A 
ATOM     17  C   UNL     1       3.915   4.025   0.590  0.00  0.00    +0.000 A 
ENDBRANCH  10  12
TORSDOF 1
