MODEL 1
REMARK VINA RESULT:      -4.4      0.000      0.000
REMARK  Name = *****
REMARK  5 active torsions:
REMARK  status: ('A' for Active; 'I' for Inactive)
REMARK    1  A    between atoms: C_3  and  O_16
REMARK    2  A    between atoms: C_6  and  C_7
REMARK    3  A    between atoms: C_8  and  C_9
REMARK    4  A    between atoms: C_11  and  C_14
REMARK    5  A    between atoms: O_16  and  C_17
REMARK                            x       y       z     vdW  Elec       q    Type
REMARK                         _______ _______ _______ _____ _____    ______ ____
ROOT
ATOM      1  C   UNL     1     103.822 125.004  80.409  0.00  0.00    +0.000 A 
ATOM      2  C   UNL     1     104.709 123.934  80.228  0.00  0.00    +0.000 A 
ATOM      3  C   UNL     1     105.069 123.131  81.310  0.00  0.00    +0.000 A 
ATOM      4  C   UNL     1     104.512 123.389  82.563  0.00  0.00    +0.000 A 
ATOM      5  C   UNL     1     103.628 124.457  82.745  0.00  0.00    +0.000 A 
ATOM      6  C   UNL     1     103.287 125.288  81.672  0.00  0.00    +0.000 A 
ENDROOT
BRANCH   6   7
ATOM      7  C   UNL     1     102.334 126.382  81.898  0.00  0.00    +0.000 C 
ATOM      8  C   UNL     1     101.357 126.350  82.819  0.00  0.00    +0.000 C 
BRANCH   8   9
ATOM      9  C   UNL     1     100.455 127.440  82.976  0.00  0.00    +0.000 A 
ATOM     10  N   UNL     1     100.724 128.639  83.479  0.00  0.00    +0.000 NA
ATOM     11  C   UNL     1      99.537 129.340  83.434  0.00  0.00    +0.000 A 
ATOM     12  C   UNL     1      98.571 128.539  82.880  0.00  0.00    +0.000 A 
ATOM     13  O   UNL     1      99.131 127.338  82.588  0.00  0.00    +0.000 OA
BRANCH  11  14
ATOM     14  C   UNL     1      99.448 130.741  83.904  0.00  0.00    +0.000 C 
ATOM     15 CL   UNL     1      98.565 130.814  85.445  0.00  0.00    +0.000 Cl
ENDBRANCH  11  14
ENDBRANCH   8   9
ENDBRANCH   6   7
BRANCH   3  16
ATOM     16  O   UNL     1     105.916 122.059  81.267  0.00  0.00    +0.000 OA
BRANCH  16  17
ATOM     17  C   UNL     1     105.383 120.824  81.710  0.00  0.00    +0.000 C 
ATOM     18  F   UNL     1     104.245 120.598  81.005  0.00  0.00    +0.000 F 
ATOM     19  F   UNL     1     106.241 119.825  81.388  0.00  0.00    +0.000 F 
ENDBRANCH  16  17
ENDBRANCH   3  16
TORSDOF 5
ENDMDL
