MODEL 1
REMARK VINA RESULT:      -4.6      0.000      0.000
REMARK  Name = *****
REMARK  5 active torsions:
REMARK  status: ('A' for Active; 'I' for Inactive)
REMARK    1  A    between atoms: C_1  and  O_2
REMARK    2  A    between atoms: O_2  and  C_3
REMARK    3  A    between atoms: C_3  and  C_5
REMARK    4  A    between atoms: C_10  and  C_11
REMARK    5  A    between atoms: C_12  and  C_13
REMARK                            x       y       z     vdW  Elec       q    Type
REMARK                         _______ _______ _______ _____ _____    ______ ____
ROOT
ATOM      1  C   UNL     1      99.655 128.608  83.663  0.00  0.00    +0.000 A 
ATOM      2  C   UNL     1      98.970 129.713  84.203  0.00  0.00    +0.000 A 
ATOM      3  C   UNL     1      99.675 130.803  84.717  0.00  0.00    +0.000 A 
ATOM      4  C   UNL     1     101.067 130.798  84.700  0.00  0.00    +0.000 A 
ATOM      5  C   UNL     1     101.756 129.707  84.169  0.00  0.00    +0.000 A 
ATOM      6  C   UNL     1     101.059 128.605  83.649  0.00  0.00    +0.000 A 
ENDROOT
BRANCH   1   7
ATOM      7  C   UNL     1      98.873 127.455  83.145  0.00  0.00    +0.000 C 
ATOM      8  O   UNL     1      98.464 127.337  82.002  0.00  0.00    +0.000 OA
BRANCH   7  10
ATOM      9  C   UNL     1      97.340 126.077  84.244  0.00  0.00    +0.000 C 
ATOM     10  O   UNL     1      98.680 126.562  84.151  0.00  0.00    +0.000 OA
ENDBRANCH   7  10
ENDBRANCH   1   7
BRANCH   6  11
ATOM     11  C   UNL     1     101.828 127.531  83.096  0.00  0.00    +0.000 C 
ATOM     12  C   UNL     1     102.473 126.633  82.626  0.00  0.00    +0.000 C 
BRANCH  12  13
ATOM     13  C   UNL     1     103.243 125.580  82.042  0.00  0.00    +0.000 A 
ATOM     14  C   UNL     1     103.560 125.610  80.682  0.00  0.00    +0.000 A 
ATOM     15  C   UNL     1     104.313 124.577  80.118  0.00  0.00    +0.000 A 
ATOM     16  C   UNL     1     104.748 123.516  80.913  0.00  0.00    +0.000 A 
ATOM     17  C   UNL     1     104.434 123.487  82.271  0.00  0.00    +0.000 A 
ATOM     18  C   UNL     1     103.683 124.518  82.838  0.00  0.00    +0.000 A 
ENDBRANCH  12  13
ENDBRANCH   6  11
TORSDOF 4
ENDMDL
