REMARK  Name = *****
REMARK  4 active torsions:
REMARK  status: ('A' for Active; 'I' for Inactive)
REMARK    1  A    between atoms: C_1  and  C_2
REMARK    2  A    between atoms: C_7  and  C_8
REMARK    3  A    between atoms: C_8  and  N_9
REMARK    4  A    between atoms: N_9  and  C_10
REMARK                            x       y       z     vdW  Elec       q    Type
REMARK                         _______ _______ _______ _____ _____    ______ ____
ROOT
ATOM      1  C   UNL     1       1.158  -2.404  -0.056  0.00  0.00    +0.000 C 
ENDROOT
BRANCH   1   8
ATOM      2  C   UNL     1      -1.828  -2.311   0.019  0.00  0.00    +0.000 C 
ATOM      3  C   UNL     1      -0.980  -1.070   0.011  0.00  0.00    +0.000 A 
ATOM      4  C   UNL     1      -1.613   0.184   0.041  0.00  0.00    +0.000 A 
ATOM      5  C   UNL     1      -0.867   1.365   0.034  0.00  0.00    +0.000 A 
ATOM      6  C   UNL     1       0.522   1.312  -0.002  0.00  0.00    +0.000 A 
ATOM      7  C   UNL     1       1.169   0.077  -0.032  0.00  0.00    +0.000 A 
ATOM      8  C   UNL     1       0.428  -1.113  -0.025  0.00  0.00    +0.000 A 
ENDBRANCH   1   8
BRANCH   1   9
ATOM      9  N   UNL     1       2.447  -2.459  -0.100  0.00  0.00    +0.000 NA
BRANCH   9  10
ATOM     10  C   UNL     1       3.009  -3.816  -0.128  0.00  0.00    +0.000 C 
ATOM     11  C   UNL     1       3.287  -4.275   1.308  0.00  0.00    +0.000 C 
ATOM     12  C   UNL     1       4.017  -5.615   1.338  0.00  0.00    +0.000 C 
ATOM     13  C   UNL     1       5.299  -5.577   0.511  0.00  0.00    +0.000 C 
ATOM     14  C   UNL     1       5.033  -5.112  -0.918  0.00  0.00    +0.000 C 
ATOM     15  C   UNL     1       4.304  -3.771  -0.946  0.00  0.00    +0.000 C 
ENDBRANCH   9  10
ENDBRANCH   1   9
TORSDOF 3
