REMARK  Name = *****
REMARK  1 active torsions:
REMARK  status: ('A' for Active; 'I' for Inactive)
REMARK    1  A    between atoms: C_8  and  C_10
REMARK                            x       y       z     vdW  Elec       q    Type
REMARK                         _______ _______ _______ _____ _____    ______ ____
ROOT
ATOM      1  C   UNL     1       2.203   0.642  -0.045  0.00  0.00    +0.000 A 
ATOM      2  C   UNL     1       2.127  -0.756   0.019  0.00  0.00    +0.000 A 
ATOM      3  C   UNL     1       0.895  -1.419   0.065  0.00  0.00    +0.000 A 
ATOM      4  C   UNL     1      -0.228  -0.601   0.043  0.00  0.00    +0.000 A 
ATOM      5  C   UNL     1      -0.198   0.782  -0.022  0.00  0.00    +0.000 A 
ATOM      6  C   UNL     1       1.042   1.431  -0.067  0.00  0.00    +0.000 A 
ATOM      7  N   UNL     1      -1.478   1.275  -0.030  0.00  0.00    +0.000 NA
ATOM      8  C   UNL     1      -2.233   0.193   0.033  0.00  0.00    +0.000 A 
ATOM      9  O   UNL     1      -1.535  -0.989   0.080  0.00  0.00    +0.000 OA
ENDROOT
BRANCH   8  10
ATOM     10  C   UNL     1      -3.689   0.095   0.058  0.00  0.00    +0.000 A 
ATOM     11  C   UNL     1      -4.462   1.261  -0.043  0.00  0.00    +0.000 A 
ATOM     12  C   UNL     1      -5.853   1.187  -0.020  0.00  0.00    +0.000 A 
ATOM     13  C   UNL     1      -6.504  -0.031   0.104  0.00  0.00    +0.000 A 
ATOM     14  C   UNL     1      -5.742  -1.185   0.204  0.00  0.00    +0.000 A 
ATOM     15  C   UNL     1      -4.349  -1.136   0.182  0.00  0.00    +0.000 A 
ATOM     16  F   UNL     1      -6.354  -2.369   0.326  0.00  0.00    +0.000 F 
ATOM     17  F   UNL     1      -6.573   2.311  -0.119  0.00  0.00    +0.000 F 
ENDBRANCH   8  10
TORSDOF 1
