MODEL 1
REMARK VINA RESULT:      -4.9      0.000      0.000
REMARK  Name = *****
REMARK  2 active torsions:
REMARK  status: ('A' for Active; 'I' for Inactive)
REMARK    1  A    between atoms: C_6  and  C_7
REMARK    2  A    between atoms: C_8  and  C_9
REMARK                            x       y       z     vdW  Elec       q    Type
REMARK                         _______ _______ _______ _____ _____    ______ ____
ROOT
ATOM      1  C   UNL     1     101.305 127.318  82.646  0.00  0.00    +0.000 A 
ATOM      2  C   UNL     1     101.732 128.414  83.401  0.00  0.00    +0.000 A 
ATOM      3  C   UNL     1     100.786 129.226  84.024  0.00  0.00    +0.000 A 
ATOM      4  C   UNL     1      99.427 128.958  83.903  0.00  0.00    +0.000 A 
ATOM      5  C   UNL     1      99.004 127.871  83.154  0.00  0.00    +0.000 A 
ATOM      6  C   UNL     1      99.938 127.051  82.527  0.00  0.00    +0.000 A 
ATOM      7  F   UNL     1      99.513 126.003  81.805  0.00  0.00    +0.000 F 
ATOM      8  F   UNL     1      97.695 127.608  83.034  0.00  0.00    +0.000 F 
ATOM      9  F   UNL     1      98.530 129.750  84.508  0.00  0.00    +0.000 F 
ATOM     10  F   UNL     1     101.202 130.275  84.746  0.00  0.00    +0.000 F 
ENDROOT
BRANCH   1  12
ATOM     11  C   UNL     1     103.084 125.782  81.461  0.00  0.00    +0.000 C 
ATOM     12  C   UNL     1     102.268 126.479  82.001  0.00  0.00    +0.000 C 
BRANCH  11  18
ATOM     13  C   UNL     1     104.818 125.471  79.768  0.00  0.00    +0.000 A 
ATOM     14  C   UNL     1     105.757 124.640  79.181  0.00  0.00    +0.000 A 
ATOM     15  N   UNL     1     105.980 123.367  79.571  0.00  0.00    +0.000 NA
ATOM     16  C   UNL     1     105.231 122.902  80.594  0.00  0.00    +0.000 A 
ATOM     17  C   UNL     1     104.269 123.653  81.247  0.00  0.00    +0.000 A 
ATOM     18  C   UNL     1     104.064 124.962  80.821  0.00  0.00    +0.000 A 
ENDBRANCH  11  18
ENDBRANCH   1  12
TORSDOF 2
ENDMDL
