REMARK  Name = *****
REMARK  3 active torsions:
REMARK  status: ('A' for Active; 'I' for Inactive)
REMARK    1  A    between atoms: C_4  and  C_7
REMARK    2  A    between atoms: C_8  and  C_9
REMARK    3  A    between atoms: C_9  and  C_11
REMARK                            x       y       z     vdW  Elec       q    Type
REMARK                         _______ _______ _______ _____ _____    ______ ____
ROOT
ATOM      1  C   UNL     1      -3.343  -1.958  -0.910  0.00  0.00    +0.000 C 
ATOM      2  O   UNL     1      -2.439  -2.059  -1.731  0.00  0.00    +0.000 OA
ENDROOT
BRANCH   1   3
ATOM      3  C   UNL     1      -4.210  -3.133  -0.606  0.00  0.00    +0.000 A 
ATOM      4  C   UNL     1      -4.209  -4.208  -1.507  0.00  0.00    +0.000 A 
ATOM      5  C   UNL     1      -4.999  -5.335  -1.265  0.00  0.00    +0.000 A 
ATOM      6  C   UNL     1      -5.786  -5.394  -0.117  0.00  0.00    +0.000 A 
ATOM      7  C   UNL     1      -5.784  -4.338   0.794  0.00  0.00    +0.000 A 
ATOM      8  C   UNL     1      -4.994  -3.209   0.554  0.00  0.00    +0.000 A 
ATOM      9 CL   UNL     1      -6.760  -6.779   0.184  0.00  0.00    +0.000 Cl
ENDBRANCH   1   3
BRANCH   1  11
ATOM     10  C   UNL     1      -2.821   0.245   0.198  0.00  0.00    +0.000 C 
ATOM     11  C   UNL     1      -3.694  -0.662  -0.267  0.00  0.00    +0.000 C 
BRANCH  10  15
ATOM     12  C   UNL     1       1.438   0.015   0.319  0.00  0.00    +0.000 A 
ATOM     13  C   UNL     1       0.788   0.160  -0.906  0.00  0.00    +0.000 A 
ATOM     14  C   UNL     1      -0.606   0.227  -0.955  0.00  0.00    +0.000 A 
ATOM     15  C   UNL     1      -1.359   0.141   0.219  0.00  0.00    +0.000 A 
ATOM     16  C   UNL     1      -0.700   0.003   1.446  0.00  0.00    +0.000 A 
ATOM     17  C   UNL     1       0.694  -0.063   1.495  0.00  0.00    +0.000 A 
ENDBRANCH  10  15
ENDBRANCH   1  11
TORSDOF 3
