MODEL 1
REMARK VINA RESULT:      -4.2      0.000      0.000
REMARK  Name = *****
REMARK  5 active torsions:
REMARK  status: ('A' for Active; 'I' for Inactive)
REMARK    1  A    between atoms: C_1  and  O_2
REMARK    2  A    between atoms: O_2  and  C_3
REMARK    3  A    between atoms: C_3  and  C_12
REMARK    4  A    between atoms: C_5  and  C_6
REMARK    5  A    between atoms: C_12  and  C_13
REMARK                            x       y       z     vdW  Elec       q    Type
REMARK                         _______ _______ _______ _____ _____    ______ ____
ROOT
ATOM      1  C   UNL     1      88.391  69.144  87.166  0.00  0.00    +0.000 C 
ATOM      2  C   UNL     1      88.460  70.056  88.366  0.00  0.00    +0.000 C 
ATOM      3  C   UNL     1      88.165  70.644  87.009  0.00  0.00    +0.000 C 
ENDROOT
BRANCH   3   4
ATOM      4  C   UNL     1      86.802  71.250  86.753  0.00  0.00    +0.000 A 
ATOM      5  C   UNL     1      85.944  71.568  87.821  0.00  0.00    +0.000 A 
ATOM      6  C   UNL     1      84.694  72.156  87.607  0.00  0.00    +0.000 A 
ATOM      7  C   UNL     1      84.276  72.446  86.312  0.00  0.00    +0.000 A 
ATOM      8  C   UNL     1      85.107  72.151  85.237  0.00  0.00    +0.000 A 
ATOM      9  C   UNL     1      86.356  71.564  85.459  0.00  0.00    +0.000 A 
ENDBRANCH   3   4
BRANCH   1  11
ATOM     10  C   UNL     1      86.941  67.561  88.283  0.00  0.00    +0.000 C 
ATOM     11  O   UNL     1      87.219  68.298  87.100  0.00  0.00    +0.000 OA
ENDBRANCH   1  11
BRANCH   1  12
ATOM     12  C   UNL     1      89.674  68.528  86.653  0.00  0.00    +0.000 C 
BRANCH  12  13
ATOM     13  C   UNL     1      89.553  67.334  85.702  0.00  0.00    +0.000 C 
ATOM     14  C   UNL     1      90.702  66.331  85.727  0.00  0.00    +0.000 C 
ATOM     15  C   UNL     1      90.476  65.463  84.488  0.00  0.00    +0.000 C 
ATOM     16  C   UNL     1      89.560  66.268  83.565  0.00  0.00    +0.000 C 
ATOM     17  C   UNL     1      89.424  67.642  84.213  0.00  0.00    +0.000 C 
ENDBRANCH  12  13
ENDBRANCH   1  12
TORSDOF 4
ENDMDL
