REMARK  Name = *****
REMARK  4 active torsions:
REMARK  status: ('A' for Active; 'I' for Inactive)
REMARK    1  A    between atoms: C_1  and  C_2
REMARK    2  A    between atoms: C_2  and  C_3
REMARK    3  A    between atoms: C_2  and  C_9
REMARK    4  A    between atoms: C_9  and  C_11
REMARK                            x       y       z     vdW  Elec       q    Type
REMARK                         _______ _______ _______ _____ _____    ______ ____
ROOT
ATOM      1  C   UNL     1       1.144  -0.219  -0.182  0.00  0.00    +0.000 C 
ATOM      2  C   UNL     1       2.651  -0.017   0.058  0.00  0.00    +0.000 C 
ATOM      3 CL   UNL     1       3.416  -0.146  -1.598  0.00  0.00    +0.000 Cl
ENDROOT
BRANCH   2   4
ATOM      4  C   UNL     1       3.062   1.351   0.610  0.00  0.00    +0.000 A 
ATOM      5  C   UNL     1       4.382   1.562   1.058  0.00  0.00    +0.000 A 
ATOM      6  C   UNL     1       4.785   2.795   1.576  0.00  0.00    +0.000 A 
ATOM      7  C   UNL     1       3.880   3.849   1.647  0.00  0.00    +0.000 A 
ATOM      8  C   UNL     1       2.577   3.672   1.193  0.00  0.00    +0.000 A 
ATOM      9  C   UNL     1       2.172   2.438   0.675  0.00  0.00    +0.000 A 
ENDBRANCH   2   4
BRANCH   2  10
ATOM     10  C   UNL     1       3.204  -1.191   0.912  0.00  0.00    +0.000 C 
ATOM     11  O   UNL     1       4.216  -1.834   0.624  0.00  0.00    +0.000 OA
BRANCH  10  12
ATOM     12  C   UNL     1       2.504  -1.592   2.169  0.00  0.00    +0.000 A 
ATOM     13  C   UNL     1       1.943  -0.667   3.055  0.00  0.00    +0.000 A 
ATOM     14  C   UNL     1       1.302  -1.111   4.215  0.00  0.00    +0.000 A 
ATOM     15  C   UNL     1       1.229  -2.474   4.499  0.00  0.00    +0.000 A 
ATOM     16  C   UNL     1       1.803  -3.399   3.630  0.00  0.00    +0.000 A 
ATOM     17  C   UNL     1       2.444  -2.960   2.470  0.00  0.00    +0.000 A 
ENDBRANCH  10  12
ENDBRANCH   2  10
TORSDOF 3
