REMARK  Name = *****
REMARK  3 active torsions:
REMARK  status: ('A' for Active; 'I' for Inactive)
REMARK    1  A    between atoms: C_3  and  C_11
REMARK    2  A    between atoms: C_5  and  C_7
REMARK    3  A    between atoms: C_12  and  C_13
REMARK                            x       y       z     vdW  Elec       q    Type
REMARK                         _______ _______ _______ _____ _____    ______ ____
ROOT
ATOM      1  C   UNL     1       1.275  -0.033   0.646  0.00  0.00    +0.000 A 
ATOM      2  C   UNL     1       0.434  -1.146   0.698  0.00  0.00    +0.000 A 
ATOM      3  C   UNL     1      -0.823  -1.120   0.081  0.00  0.00    +0.000 A 
ATOM      4  C   UNL     1      -1.234   0.053  -0.567  0.00  0.00    +0.000 A 
ATOM      5  C   UNL     1      -0.397   1.181  -0.627  0.00  0.00    +0.000 A 
ATOM      6  C   UNL     1       0.864   1.123  -0.015  0.00  0.00    +0.000 A 
ENDROOT
BRANCH   5   7
ATOM      7  C   UNL     1      -0.836   2.441  -1.330  0.00  0.00    +0.000 C 
ATOM      8  F   UNL     1      -2.067   2.346  -1.905  0.00  0.00    +0.000 F 
ATOM      9  F   UNL     1      -0.899   3.510  -0.488  0.00  0.00    +0.000 F 
ATOM     10  F   UNL     1       0.015   2.804  -2.330  0.00  0.00    +0.000 F 
ENDBRANCH   5   7
BRANCH   3  11
ATOM     11  C   UNL     1      -1.750  -2.259   0.141  0.00  0.00    +0.000 C 
ATOM     12  C   UNL     1      -1.365  -3.543   0.054  0.00  0.00    +0.000 C 
BRANCH  12  13
ATOM     13  C   UNL     1      -2.294  -4.680   0.117  0.00  0.00    +0.000 A 
ATOM     14  C   UNL     1      -3.542  -4.661  -0.510  0.00  0.00    +0.000 A 
ATOM     15  C   UNL     1      -4.342  -5.790  -0.426  0.00  0.00    +0.000 A 
ATOM     16  N   UNL     1      -3.986  -6.918   0.222  0.00  0.00    +0.000 NA
ATOM     17  C   UNL     1      -2.771  -6.920   0.808  0.00  0.00    +0.000 A 
ATOM     18  C   UNL     1      -1.898  -5.844   0.777  0.00  0.00    +0.000 A 
ENDBRANCH  12  13
ENDBRANCH   3  11
TORSDOF 3
