REMARK  Name = *****
REMARK  2 active torsions:
REMARK  status: ('A' for Active; 'I' for Inactive)
REMARK    1  A    between atoms: C_4  and  C_7
REMARK    2  A    between atoms: C_8  and  C_9
REMARK                            x       y       z     vdW  Elec       q    Type
REMARK                         _______ _______ _______ _____ _____    ______ ____
ROOT
ATOM      1  C   UNL     1      -0.138   1.014   2.143  0.00  0.00    +0.000 C 
ATOM      2  C   UNL     1      -1.064   1.581   2.934  0.00  0.00    +0.000 C 
ATOM      3 CL   UNL     1      -2.290   2.651   2.368  0.00  0.00    +0.000 Cl
ENDROOT
BRANCH   1   7
ATOM      4  C   UNL     1       2.472  -0.677  -0.124  0.00  0.00    +0.000 C 
ATOM      5  C   UNL     1       2.758   0.602   0.647  0.00  0.00    +0.000 C 
ATOM      6  S   UNL     1       1.611   1.949   0.249  0.00  0.00    +0.000 S 
ATOM      7  C   UNL     1       0.016   1.192   0.663  0.00  0.00    +0.000 C 
ATOM      8  S   UNL     1      -0.294  -0.357  -0.225  0.00  0.00    +0.000 S 
ATOM      9  C   UNL     1       1.155  -1.336   0.253  0.00  0.00    +0.000 C 
ENDBRANCH   1   7
BRANCH   2  10
ATOM     10  C   UNL     1      -1.077   1.301   4.374  0.00  0.00    +0.000 A 
ATOM     11  C   UNL     1      -0.321   2.087   5.253  0.00  0.00    +0.000 A 
ATOM     12  C   UNL     1      -0.318   1.808   6.621  0.00  0.00    +0.000 A 
ATOM     13  C   UNL     1      -1.068   0.742   7.117  0.00  0.00    +0.000 A 
ATOM     14  C   UNL     1      -1.822  -0.046   6.248  0.00  0.00    +0.000 A 
ATOM     15  C   UNL     1      -1.826   0.231   4.879  0.00  0.00    +0.000 A 
ENDBRANCH   2  10
TORSDOF 2
