MODEL 1
REMARK VINA RESULT:      -5.0      0.000      0.000
REMARK  Name = *****
REMARK  4 active torsions:
REMARK  status: ('A' for Active; 'I' for Inactive)
REMARK    1  A    between atoms: C_1  and  C_2
REMARK    2  A    between atoms: C_5  and  C_8
REMARK    3  A    between atoms: N_9  and  C_10
REMARK    4  A    between atoms: C_15  and  C_16
REMARK                            x       y       z     vdW  Elec       q    Type
REMARK                         _______ _______ _______ _____ _____    ______ ____
ROOT
ATOM      1  C   UNL     1     101.098 128.298  83.712  0.00  0.00    +0.000 A 
ATOM      2  C   UNL     1     101.887 129.372  84.146  0.00  0.00    +0.000 A 
ATOM      3  C   UNL     1     101.308 130.598  84.476  0.00  0.00    +0.000 A 
ATOM      4  C   UNL     1      99.932 130.765  84.362  0.00  0.00    +0.000 A 
ATOM      5  C   UNL     1      99.140 129.708  83.912  0.00  0.00    +0.000 A 
ATOM      6  C   UNL     1      99.714 128.467  83.577  0.00  0.00    +0.000 A 
ENDROOT
BRANCH   6   7
ATOM      7  C   UNL     1      98.854 127.337  83.081  0.00  0.00    +0.000 C 
ATOM      8  F   UNL     1      98.736 126.317  83.980  0.00  0.00    +0.000 F 
ATOM      9  F   UNL     1      97.567 127.727  82.827  0.00  0.00    +0.000 F 
ATOM     10  F   UNL     1      99.289 126.779  81.917  0.00  0.00    +0.000 F 
ENDBRANCH   6   7
BRANCH   1  12
ATOM     11  C   UNL     1     102.499 127.115  82.332  0.00  0.00    +0.000 C 
ATOM     12  N   UNL     1     101.721 127.089  83.368  0.00  0.00    +0.000 NA
BRANCH  11  17
ATOM     13  C   UNL     1     105.300 122.435  80.431  0.00  0.00    +0.000 C 
ATOM     14  C   UNL     1     104.597 123.660  80.935  0.00  0.00    +0.000 A 
ATOM     15  C   UNL     1     104.179 123.736  82.270  0.00  0.00    +0.000 A 
ATOM     16  C   UNL     1     103.497 124.862  82.736  0.00  0.00    +0.000 A 
ATOM     17  C   UNL     1     103.219 125.915  81.864  0.00  0.00    +0.000 A 
ATOM     18  C   UNL     1     103.618 125.847  80.527  0.00  0.00    +0.000 A 
ATOM     19  C   UNL     1     104.301 124.717  80.065  0.00  0.00    +0.000 A 
ENDBRANCH  11  17
ENDBRANCH   1  12
TORSDOF 3
ENDMDL
