REMARK  Name = *****
REMARK  4 active torsions:
REMARK  status: ('A' for Active; 'I' for Inactive)
REMARK    1  A    between atoms: C_4  and  C_7
REMARK    2  A    between atoms: C_7  and  O_9
REMARK    3  A    between atoms: O_9  and  C_10
REMARK    4  A    between atoms: C_10  and  C_11
REMARK                            x       y       z     vdW  Elec       q    Type
REMARK                         _______ _______ _______ _____ _____    ______ ____
ROOT
ATOM      1  O   UNL     1      -3.729  -0.491  -0.174  0.00  0.00    +0.000 OA
ENDROOT
BRANCH   1   2
ATOM      2  C   UNL     1      -2.926   0.556  -0.482  0.00  0.00    +0.000 C 
ATOM      3  O   UNL     1      -3.291   1.648  -0.889  0.00  0.00    +0.000 OA
BRANCH   2   7
ATOM      4  C   UNL     1       1.218  -0.360   0.140  0.00  0.00    +0.000 A 
ATOM      5  C   UNL     1       0.259  -1.343   0.385  0.00  0.00    +0.000 A 
ATOM      6  C   UNL     1      -1.096  -1.065   0.188  0.00  0.00    +0.000 A 
ATOM      7  C   UNL     1      -1.498   0.203  -0.255  0.00  0.00    +0.000 A 
ATOM      8  C   UNL     1      -0.527   1.185  -0.499  0.00  0.00    +0.000 A 
ATOM      9  C   UNL     1       0.826   0.903  -0.302  0.00  0.00    +0.000 A 
ENDBRANCH   2   7
ENDBRANCH   1   2
BRANCH   1  10
ATOM     10  C   UNL     1      -5.129  -0.283  -0.386  0.00  0.00    +0.000 C 
BRANCH  10  11
ATOM     11  C   UNL     1      -5.526  -0.866  -1.719  0.00  0.00    +0.000 A 
ATOM     12  C   UNL     1      -5.815  -2.235  -1.840  0.00  0.00    +0.000 A 
ATOM     13  C   UNL     1      -6.159  -2.775  -3.080  0.00  0.00    +0.000 A 
ATOM     14  C   UNL     1      -6.205  -1.951  -4.198  0.00  0.00    +0.000 A 
ATOM     15  C   UNL     1      -5.909  -0.596  -4.102  0.00  0.00    +0.000 A 
ATOM     16  C   UNL     1      -5.566  -0.054  -2.863  0.00  0.00    +0.000 A 
ATOM     17  F   UNL     1      -6.533  -2.471  -5.388  0.00  0.00    +0.000 F 
ENDBRANCH  10  11
ENDBRANCH   1  10
TORSDOF 4
