MODEL 1
REMARK VINA RESULT:      -4.9      0.000      0.000
REMARK  Name = *****
REMARK  3 active torsions:
REMARK  status: ('A' for Active; 'I' for Inactive)
REMARK    1  A    between atoms: C_1  and  C_2
REMARK    2  A    between atoms: C_9  and  C_11
REMARK    3  A    between atoms: C_11  and  C_12
REMARK                            x       y       z     vdW  Elec       q    Type
REMARK                         _______ _______ _______ _____ _____    ______ ____
ROOT
ATOM      1  C   UNL     1      91.244  63.468  85.030  0.00  0.00    +0.000 C 
ATOM      2  C   UNL     1      90.425  64.573  85.634  0.00  0.00    +0.000 A 
ATOM      3  C   UNL     1      90.936  65.883  85.668  0.00  0.00    +0.000 A 
ATOM      4  C   UNL     1      90.102  66.851  86.215  0.00  0.00    +0.000 A 
ATOM      5  C   UNL     1      88.830  66.613  86.705  0.00  0.00    +0.000 A 
ATOM      6  C   UNL     1      88.319  65.311  86.657  0.00  0.00    +0.000 A 
ATOM      7  C   UNL     1      89.130  64.301  86.112  0.00  0.00    +0.000 A 
ATOM      8  N   UNL     1      88.283  67.781  87.173  0.00  0.00    +0.000 NA
ATOM      9  C   UNL     1      89.225  68.680  86.940  0.00  0.00    +0.000 A 
ATOM     10  O   UNL     1      90.369  68.180  86.367  0.00  0.00    +0.000 OA
ENDROOT
BRANCH   9  11
ATOM     11  C   UNL     1      89.215  70.136  87.240  0.00  0.00    +0.000 C 
BRANCH  11  12
ATOM     12  C   UNL     1      87.850  70.762  87.078  0.00  0.00    +0.000 A 
ATOM     13  C   UNL     1      87.061  71.044  88.203  0.00  0.00    +0.000 A 
ATOM     14  C   UNL     1      85.793  71.609  88.055  0.00  0.00    +0.000 A 
ATOM     15  C   UNL     1      85.302  71.895  86.782  0.00  0.00    +0.000 A 
ATOM     16  C   UNL     1      86.072  71.610  85.656  0.00  0.00    +0.000 A 
ATOM     17  C   UNL     1      87.340  71.043  85.802  0.00  0.00    +0.000 A 
ENDBRANCH  11  12
ENDBRANCH   9  11
TORSDOF 2
ENDMDL
