MODEL 1
REMARK VINA RESULT:      -4.6      0.000      0.000
REMARK  Name = *****
REMARK  4 active torsions:
REMARK  status: ('A' for Active; 'I' for Inactive)
REMARK    1  A    between atoms: C_1  and  C_2
REMARK    2  A    between atoms: C_5  and  O_8
REMARK    3  A    between atoms: O_8  and  C_9
REMARK    4  A    between atoms: C_9  and  C_11
REMARK                            x       y       z     vdW  Elec       q    Type
REMARK                         _______ _______ _______ _____ _____    ______ ____
ROOT
ATOM      1  C   UNL     1     102.736 125.214  82.556  0.00  0.00    +0.000 C 
ATOM      2  O   UNL     1     102.858 124.982  83.750  0.00  0.00    +0.000 OA
ENDROOT
BRANCH   1   3
ATOM      3  C   UNL     1     103.758 124.816  81.546  0.00  0.00    +0.000 A 
ATOM      4  C   UNL     1     104.154 125.772  80.597  0.00  0.00    +0.000 A 
ATOM      5  C   UNL     1     105.108 125.453  79.628  0.00  0.00    +0.000 A 
ATOM      6  C   UNL     1     105.666 124.180  79.609  0.00  0.00    +0.000 A 
ATOM      7  C   UNL     1     105.287 123.219  80.542  0.00  0.00    +0.000 A 
ATOM      8  C   UNL     1     104.332 123.534  81.512  0.00  0.00    +0.000 A 
ATOM      9  F   UNL     1     106.580 123.873  78.681  0.00  0.00    +0.000 F 
ENDBRANCH   1   3
BRANCH   1  10
ATOM     10  O   UNL     1     101.687 125.858  81.927  0.00  0.00    +0.000 OA
BRANCH  10  15
ATOM     11  C   UNL     1      99.261 130.409  84.333  0.00  0.00    +0.000 C 
ATOM     12  C   UNL     1      99.913 129.196  83.737  0.00  0.00    +0.000 A 
ATOM     13  C   UNL     1     101.311 129.096  83.688  0.00  0.00    +0.000 A 
ATOM     14  C   UNL     1     101.922 127.984  83.106  0.00  0.00    +0.000 A 
ATOM     15  C   UNL     1     101.130 126.967  82.580  0.00  0.00    +0.000 A 
ATOM     16  C   UNL     1      99.740 127.064  82.588  0.00  0.00    +0.000 A 
ATOM     17  C   UNL     1      99.133 128.179  83.168  0.00  0.00    +0.000 A 
ENDBRANCH  10  15
ENDBRANCH   1  10
TORSDOF 3
ENDMDL
