MODEL 1
REMARK VINA RESULT:      -5.2      0.000      0.000
REMARK  Name = *****
REMARK  3 active torsions:
REMARK  status: ('A' for Active; 'I' for Inactive)
REMARK    1  A    between atoms: C_1  and  C_2
REMARK    2  A    between atoms: C_4  and  C_18
REMARK    3  A    between atoms: C_6  and  C_8
REMARK                            x       y       z     vdW  Elec       q    Type
REMARK                         _______ _______ _______ _____ _____    ______ ____
ROOT
ATOM      1  C   UNL     1     102.713 126.117  81.810  0.00  0.00    +0.000 A 
ATOM      2  N   UNL     1     103.366 126.302  80.673  0.00  0.00    +0.000 NA
ATOM      3  C   UNL     1     104.168 125.195  80.571  0.00  0.00    +0.000 A 
ATOM      4  C   UNL     1     103.970 124.368  81.664  0.00  0.00    +0.000 A 
ATOM      5  O   UNL     1     103.036 124.953  82.466  0.00  0.00    +0.000 OA
ATOM      6  C   UNL     1     104.624 123.161  81.876  0.00  0.00    +0.000 A 
ATOM      7  C   UNL     1     105.541 122.798  80.884  0.00  0.00    +0.000 A 
ATOM      8  C   UNL     1     105.775 123.601  79.761  0.00  0.00    +0.000 A 
ATOM      9  C   UNL     1     105.090 124.814  79.588  0.00  0.00    +0.000 A 
ATOM     10 CL   UNL     1     106.407 121.317  81.052  0.00  0.00    +0.000 Cl
ENDROOT
BRANCH   1  16
ATOM     11  C   UNL     1      97.943 127.177  82.963  0.00  0.00    +0.000 C 
ATOM     12  C   UNL     1      99.401 127.525  83.004  0.00  0.00    +0.000 A 
ATOM     13  C   UNL     1      99.845 128.651  83.708  0.00  0.00    +0.000 A 
ATOM     14  C   UNL     1     101.207 128.967  83.767  0.00  0.00    +0.000 A 
ATOM     15  C   UNL     1     102.133 128.119  83.143  0.00  0.00    +0.000 A 
ATOM     16  C   UNL     1     101.716 126.976  82.445  0.00  0.00    +0.000 A 
ATOM     17  C   UNL     1     100.343 126.689  82.386  0.00  0.00    +0.000 A 
ATOM     18  C   UNL     1     101.679 130.161  84.545  0.00  0.00    +0.000 C 
ENDBRANCH   1  16
TORSDOF 1
ENDMDL
