REMARK  Name = *****
REMARK  4 active torsions:
REMARK  status: ('A' for Active; 'I' for Inactive)
REMARK    1  A    between atoms: C_1  and  C_2
REMARK    2  A    between atoms: C_7  and  O_8
REMARK    3  A    between atoms: O_8  and  C_9
REMARK    4  A    between atoms: C_9  and  C_11
REMARK                            x       y       z     vdW  Elec       q    Type
REMARK                         _______ _______ _______ _____ _____    ______ ____
ROOT
ATOM      1  O   UNL     1       1.944  -2.488   1.547  0.00  0.00    +0.000 OA
ENDROOT
BRANCH   1   8
ATOM      2  C   UNL     1       3.387  -0.036   1.980  0.00  0.00    +0.000 C 
ATOM      3  C   UNL     1       1.892  -0.119   2.044  0.00  0.00    +0.000 A 
ATOM      4  C   UNL     1       1.128   1.022   2.320  0.00  0.00    +0.000 A 
ATOM      5  C   UNL     1      -0.267   0.949   2.370  0.00  0.00    +0.000 A 
ATOM      6  C   UNL     1      -0.918  -0.263   2.143  0.00  0.00    +0.000 A 
ATOM      7  C   UNL     1      -0.176  -1.407   1.857  0.00  0.00    +0.000 A 
ATOM      8  C   UNL     1       1.216  -1.320   1.790  0.00  0.00    +0.000 A 
ENDBRANCH   1   8
BRANCH   1   9
ATOM      9  C   UNL     1       2.098  -2.774   0.195  0.00  0.00    +0.000 C 
ATOM     10  O   UNL     1       1.663  -2.120  -0.745  0.00  0.00    +0.000 OA
BRANCH   9  11
ATOM     11  C   UNL     1       2.911  -4.044   0.021  0.00  0.00    +0.000 C 
ATOM     12  C   UNL     1       2.200  -5.249   0.646  0.00  0.00    +0.000 C 
ATOM     13  C   UNL     1       3.025  -6.524   0.489  0.00  0.00    +0.000 C 
ATOM     14  C   UNL     1       4.438  -6.352   1.041  0.00  0.00    +0.000 C 
ATOM     15  C   UNL     1       5.146  -5.152   0.418  0.00  0.00    +0.000 C 
ATOM     16  C   UNL     1       4.329  -3.872   0.575  0.00  0.00    +0.000 C 
ENDBRANCH   9  11
ENDBRANCH   1   9
TORSDOF 3
