MODEL 1
REMARK VINA RESULT:      -5.2      0.000      0.000
REMARK  Name = *****
REMARK  4 active torsions:
REMARK  status: ('A' for Active; 'I' for Inactive)
REMARK    1  A    between atoms: C_1  and  C_2
REMARK    2  A    between atoms: C_4  and  O_8
REMARK    3  A    between atoms: O_8  and  C_9
REMARK    4  A    between atoms: C_9  and  C_11
REMARK                            x       y       z     vdW  Elec       q    Type
REMARK                         _______ _______ _______ _____ _____    ______ ____
ROOT
ATOM      1  C   UNL     1     103.216 126.593  81.933  0.00  0.00    +0.000 C 
ATOM      2  O   UNL     1     103.230 127.226  80.889  0.00  0.00    +0.000 OA
ENDROOT
BRANCH   1   3
ATOM      3  C   UNL     1     103.735 125.212  82.023  0.00  0.00    +0.000 A 
ATOM      4  C   UNL     1     104.115 124.480  80.896  0.00  0.00    +0.000 A 
ATOM      5  C   UNL     1     104.587 123.179  81.035  0.00  0.00    +0.000 A 
ATOM      6  C   UNL     1     104.676 122.601  82.295  0.00  0.00    +0.000 A 
ATOM      7  C   UNL     1     104.288 123.309  83.429  0.00  0.00    +0.000 A 
ATOM      8  C   UNL     1     103.813 124.615  83.293  0.00  0.00    +0.000 A 
ATOM      9  F   UNL     1     105.131 121.348  82.430  0.00  0.00    +0.000 F 
ATOM     10  F   UNL     1     104.951 122.481  79.950  0.00  0.00    +0.000 F 
ATOM     11  F   UNL     1     104.006 124.997  79.663  0.00  0.00    +0.000 F 
ENDBRANCH   1   3
BRANCH   1  12
ATOM     12  O   UNL     1     102.677 126.967  83.148  0.00  0.00    +0.000 OA
BRANCH  12  16
ATOM     13  C   UNL     1      99.359 130.573  83.914  0.00  0.00    +0.000 C 
ATOM     14  C   UNL     1      99.721 129.189  83.465  0.00  0.00    +0.000 A 
ATOM     15  C   UNL     1     101.043 128.735  83.554  0.00  0.00    +0.000 A 
ATOM     16  C   UNL     1     101.360 127.446  83.122  0.00  0.00    +0.000 A 
ATOM     17  C   UNL     1     100.395 126.618  82.555  0.00  0.00    +0.000 A 
ATOM     18  C   UNL     1      99.083 127.072  82.449  0.00  0.00    +0.000 A 
ATOM     19  C   UNL     1      98.748 128.352  82.901  0.00  0.00    +0.000 A 
ENDBRANCH  12  16
ENDBRANCH   1  12
TORSDOF 3
ENDMDL
