REMARK  Name = *****
REMARK  4 active torsions:
REMARK  status: ('A' for Active; 'I' for Inactive)
REMARK    1  A    between atoms: C_4  and  C_7
REMARK    2  A    between atoms: C_7  and  C_8
REMARK    3  A    between atoms: C_8  and  C_9
REMARK    4  A    between atoms: C_9  and  C_11
REMARK                            x       y       z     vdW  Elec       q    Type
REMARK                         _______ _______ _______ _____ _____    ______ ____
ROOT
ATOM      1  C   UNL     1      -5.096  -0.555  -0.576  0.00  0.00    +0.000 C 
ATOM      2  O   UNL     1      -5.563   0.580  -0.652  0.00  0.00    +0.000 OA
ENDROOT
BRANCH   1   3
ATOM      3  C   UNL     1      -6.011  -1.728  -0.733  0.00  0.00    +0.000 A 
ATOM      4  C   UNL     1      -5.551  -3.048  -0.675  0.00  0.00    +0.000 A 
ATOM      5  C   UNL     1      -6.454  -4.102  -0.830  0.00  0.00    +0.000 A 
ATOM      6  C   UNL     1      -7.810  -3.857  -1.042  0.00  0.00    +0.000 A 
ATOM      7  C   UNL     1      -8.272  -2.544  -1.101  0.00  0.00    +0.000 A 
ATOM      8  C   UNL     1      -7.376  -1.484  -0.948  0.00  0.00    +0.000 A 
ATOM      9 CL   UNL     1      -5.886  -5.725  -0.758  0.00  0.00    +0.000 Cl
ENDBRANCH   1   3
BRANCH   1  10
ATOM     10  C   UNL     1      -3.622  -0.809  -0.325  0.00  0.00    +0.000 C 
BRANCH  10  11
ATOM     11  C   UNL     1      -2.839   0.497  -0.183  0.00  0.00    +0.000 C 
BRANCH  11  15
ATOM     12  C   UNL     1       1.331  -0.309   0.561  0.00  0.00    +0.000 A 
ATOM     13  C   UNL     1       0.865  -0.198  -0.748  0.00  0.00    +0.000 A 
ATOM     14  C   UNL     1      -0.483   0.069  -0.990  0.00  0.00    +0.000 A 
ATOM     15  C   UNL     1      -1.377   0.232   0.077  0.00  0.00    +0.000 A 
ATOM     16  C   UNL     1      -0.899   0.115   1.389  0.00  0.00    +0.000 A 
ATOM     17  C   UNL     1       0.450  -0.152   1.629  0.00  0.00    +0.000 A 
ENDBRANCH  11  15
ENDBRANCH  10  11
ENDBRANCH   1  10
TORSDOF 4
