REMARK  Name = *****
REMARK  3 active torsions:
REMARK  status: ('A' for Active; 'I' for Inactive)
REMARK    1  A    between atoms: C_1  and  C_2
REMARK    2  A    between atoms: C_5  and  C_8
REMARK    3  A    between atoms: N_9  and  C_10
REMARK                            x       y       z     vdW  Elec       q    Type
REMARK                         _______ _______ _______ _____ _____    ______ ____
ROOT
ATOM      1  C   UNL     1      -3.176  -0.098  -0.245  0.00  0.00    +0.000 C 
ATOM      2  N   UNL     1      -4.039   0.839  -0.491  0.00  0.00    +0.000 NA
ATOM      3 CL   UNL     1      -3.931  -1.655  -0.005  0.00  0.00    +0.000 Cl
ENDROOT
BRANCH   1   8
ATOM      4  C   UNL     1       2.612   0.191   0.089  0.00  0.00    +0.000 C 
ATOM      5  C   UNL     1       1.115   0.134  -0.007  0.00  0.00    +0.000 A 
ATOM      6  C   UNL     1       0.326   1.115   0.606  0.00  0.00    +0.000 A 
ATOM      7  C   UNL     1      -1.070   1.048   0.543  0.00  0.00    +0.000 A 
ATOM      8  C   UNL     1      -1.691   0.004  -0.149  0.00  0.00    +0.000 A 
ATOM      9  C   UNL     1      -0.904  -0.996  -0.736  0.00  0.00    +0.000 A 
ATOM     10  C   UNL     1       0.489  -0.933  -0.659  0.00  0.00    +0.000 A 
ENDBRANCH   1   8
BRANCH   2  11
ATOM     11  C   UNL     1      -3.706   2.171  -0.753  0.00  0.00    +0.000 A 
ATOM     12  C   UNL     1      -2.868   2.558  -1.804  0.00  0.00    +0.000 A 
ATOM     13  C   UNL     1      -2.595   3.910  -2.032  0.00  0.00    +0.000 A 
ATOM     14  C   UNL     1      -3.187   4.888  -1.233  0.00  0.00    +0.000 A 
ATOM     15  C   UNL     1      -4.055   4.515  -0.211  0.00  0.00    +0.000 A 
ATOM     16  C   UNL     1      -4.313   3.163   0.023  0.00  0.00    +0.000 A 
ENDBRANCH   2  11
TORSDOF 2
