MODEL 1
REMARK VINA RESULT:      -4.4      0.000      0.000
REMARK  Name = *****
REMARK  3 active torsions:
REMARK  status: ('A' for Active; 'I' for Inactive)
REMARK    1  A    between atoms: C_7  and  N_8
REMARK    2  A    between atoms: N_8  and  C_9
REMARK    3  A    between atoms: C_9  and  C_10
REMARK                            x       y       z     vdW  Elec       q    Type
REMARK                         _______ _______ _______ _____ _____    ______ ____
ROOT
ATOM      1  N   UNL     1     103.534 125.180  80.145  0.00  0.00    +0.000 NA
ENDROOT
BRANCH   1   8
ATOM      2  C   UNL     1     101.351 127.653  84.090  0.00  0.00    +0.000 C 
ATOM      3  C   UNL     1     100.657 126.744  83.081  0.00  0.00    +0.000 C 
ATOM      4  C   UNL     1     101.675 125.981  82.226  0.00  0.00    +0.000 C 
ATOM      5  C   UNL     1     102.815 126.847  81.768  0.00  0.00    +0.000 C 
ATOM      6  C   UNL     1     103.073 128.063  82.279  0.00  0.00    +0.000 C 
ATOM      7  C   UNL     1     102.263 128.664  83.393  0.00  0.00    +0.000 C 
ATOM      8  C   UNL     1     103.694 126.339  80.685  0.00  0.00    +0.000 C 
ENDBRANCH   1   8
BRANCH   1   9
ATOM      9  C   UNL     1     104.756 124.365  80.151  0.00  0.00    +0.000 C 
BRANCH   9  10
ATOM     10  C   UNL     1     104.676 123.199  81.113  0.00  0.00    +0.000 A 
ATOM     11  C   UNL     1     104.534 123.434  82.489  0.00  0.00    +0.000 A 
ATOM     12  C   UNL     1     104.417 122.370  83.385  0.00  0.00    +0.000 A 
ATOM     13  C   UNL     1     104.430 121.058  82.915  0.00  0.00    +0.000 A 
ATOM     14  C   UNL     1     104.555 120.810  81.550  0.00  0.00    +0.000 A 
ATOM     15  C   UNL     1     104.672 121.875  80.654  0.00  0.00    +0.000 A 
ENDBRANCH   9  10
ENDBRANCH   1   9
TORSDOF 3
ENDMDL
