REMARK  Name = *****
REMARK  5 active torsions:
REMARK  status: ('A' for Active; 'I' for Inactive)
REMARK    1  A    between atoms: C_1  and  C_2
REMARK    2  A    between atoms: C_5  and  C_8
REMARK    3  A    between atoms: C_8  and  C_10
REMARK    4  A    between atoms: C_10  and  S_11
REMARK    5  A    between atoms: S_11  and  C_12
REMARK                            x       y       z     vdW  Elec       q    Type
REMARK                         _______ _______ _______ _____ _____    ______ ____
ROOT
ATOM      1  C   UNL     1      -3.777  -0.155  -0.093  0.00  0.00    +0.000 C 
ATOM      2  O   UNL     1      -3.271  -0.556   0.958  0.00  0.00    +0.000 OA
ENDROOT
BRANCH   1   7
ATOM      3  C   UNL     1      -3.201  -3.545  -4.785  0.00  0.00    +0.000 C 
ATOM      4  C   UNL     1      -3.377  -2.670  -3.580  0.00  0.00    +0.000 A 
ATOM      5  C   UNL     1      -2.925  -3.090  -2.325  0.00  0.00    +0.000 A 
ATOM      6  C   UNL     1      -3.066  -2.262  -1.209  0.00  0.00    +0.000 A 
ATOM      7  C   UNL     1      -3.654  -0.995  -1.328  0.00  0.00    +0.000 A 
ATOM      8  C   UNL     1      -4.090  -0.567  -2.587  0.00  0.00    +0.000 A 
ATOM      9  C   UNL     1      -3.947  -1.398  -3.704  0.00  0.00    +0.000 A 
ENDBRANCH   1   7
BRANCH   1  10
ATOM     10  C   UNL     1      -4.486   1.185  -0.149  0.00  0.00    +0.000 C 
BRANCH  10  11
ATOM     11  S   UNL     1      -6.290   0.938  -0.202  0.00  0.00    +0.000 S 
BRANCH  11  12
ATOM     12  C   UNL     1      -6.911   2.663  -0.113  0.00  0.00    +0.000 C 
ATOM     13  C   UNL     1      -6.431   3.525  -1.285  0.00  0.00    +0.000 C 
ATOM     14  C   UNL     1      -7.038   4.927  -1.214  0.00  0.00    +0.000 C 
ATOM     15  C   UNL     1      -6.755   5.595   0.130  0.00  0.00    +0.000 C 
ATOM     16  C   UNL     1      -7.213   4.729   1.300  0.00  0.00    +0.000 C 
ATOM     17  C   UNL     1      -6.608   3.325   1.235  0.00  0.00    +0.000 C 
ENDBRANCH  11  12
ENDBRANCH  10  11
ENDBRANCH   1  10
TORSDOF 4
