MODEL 1
REMARK VINA RESULT:      -4.3      0.000      0.000
REMARK  Name = *****
REMARK  2 active torsions:
REMARK  status: ('A' for Active; 'I' for Inactive)
REMARK    1  A    between atoms: C_4  and  S_8
REMARK    2  A    between atoms: S_8  and  C_9
REMARK                            x       y       z     vdW  Elec       q    Type
REMARK                         _______ _______ _______ _____ _____    ______ ____
ROOT
ATOM      1  S   UNL     1     103.316 127.063  82.884  0.00  0.00    +0.000 S 
ENDROOT
BRANCH   1   5
ATOM      2  C   UNL     1     104.316 123.557  81.094  0.00  0.00    +0.000 C 
ATOM      3  C   UNL     1     104.664 124.675  80.105  0.00  0.00    +0.000 C 
ATOM      4  C   UNL     1     103.540 125.700  80.381  0.00  0.00    +0.000 C 
ATOM      5  C   UNL     1     103.272 125.516  81.908  0.00  0.00    +0.000 C 
ATOM      6  C   UNL     1     104.367 124.488  82.314  0.00  0.00    +0.000 C 
ATOM      7  C   UNL     1     105.749 125.068  82.091  0.00  0.00    +0.000 C 
ATOM      8  C   UNL     1     105.922 125.185  80.765  0.00  0.00    +0.000 C 
ENDBRANCH   1   5
BRANCH   1   9
ATOM      9  C   UNL     1     101.579 127.464  82.940  0.00  0.00    +0.000 A 
ATOM     10  C   UNL     1     101.122 128.672  83.475  0.00  0.00    +0.000 A 
ATOM     11  C   UNL     1      99.755 128.949  83.494  0.00  0.00    +0.000 A 
ATOM     12  C   UNL     1      98.837 128.039  82.975  0.00  0.00    +0.000 A 
ATOM     13  C   UNL     1      99.290 126.840  82.425  0.00  0.00    +0.000 A 
ATOM     14  C   UNL     1     100.657 126.557  82.405  0.00  0.00    +0.000 A 
ATOM     15 CL   UNL     1      99.197 130.433  84.163  0.00  0.00    +0.000 Cl
ENDBRANCH   1   9
TORSDOF 2
ENDMDL
