MODEL 1
REMARK VINA RESULT:      -4.8      0.000      0.000
REMARK  Name = *****
REMARK  3 active torsions:
REMARK  status: ('A' for Active; 'I' for Inactive)
REMARK    1  A    between atoms: C_6  and  C_7
REMARK    2  A    between atoms: C_7  and  C_8
REMARK    3  A    between atoms: C_9  and  C_10
REMARK                            x       y       z     vdW  Elec       q    Type
REMARK                         _______ _______ _______ _____ _____    ______ ____
ROOT
ATOM      1  C   UNL     1      88.730  66.161  86.649  0.00  0.00    +0.000 C 
ATOM      2  C   UNL     1      89.849  66.891  86.529  0.00  0.00    +0.000 C 
ENDROOT
BRANCH   2   3
ATOM      3  C   UNL     1      89.819  68.269  86.042  0.00  0.00    +0.000 A 
ATOM      4  C   UNL     1      89.617  69.323  86.940  0.00  0.00    +0.000 A 
ATOM      5  C   UNL     1      89.588  70.640  86.478  0.00  0.00    +0.000 A 
ATOM      6  C   UNL     1      89.759  70.894  85.122  0.00  0.00    +0.000 A 
ATOM      7  C   UNL     1      89.956  69.856  84.218  0.00  0.00    +0.000 A 
ATOM      8  C   UNL     1      89.985  68.538  84.678  0.00  0.00    +0.000 A 
ATOM      9  F   UNL     1      89.733  72.158  84.679  0.00  0.00    +0.000 F 
ENDBRANCH   2   3
BRANCH   1  10
ATOM     10  C   UNL     1      88.707  64.744  87.148  0.00  0.00    +0.000 C 
BRANCH  10  16
ATOM     11  C   UNL     1      86.991  65.252  88.937  0.00  0.00    +0.000 A 
ATOM     12  C   UNL     1      86.520  65.156  90.247  0.00  0.00    +0.000 A 
ATOM     13  C   UNL     1      87.253  64.442  91.187  0.00  0.00    +0.000 A 
ATOM     14  C   UNL     1      88.448  63.821  90.841  0.00  0.00    +0.000 A 
ATOM     15  C   UNL     1      88.919  63.914  89.531  0.00  0.00    +0.000 A 
ATOM     16  C   UNL     1      88.196  64.634  88.566  0.00  0.00    +0.000 A 
ATOM     17  F   UNL     1      86.803  64.351  92.445  0.00  0.00    +0.000 F 
ENDBRANCH  10  16
ENDBRANCH   1  10
TORSDOF 3
ENDMDL
