REMARK  Name = *****
REMARK  3 active torsions:
REMARK  status: ('A' for Active; 'I' for Inactive)
REMARK    1  A    between atoms: C_4  and  C_7
REMARK    2  A    between atoms: C_7  and  O_9
REMARK    3  A    between atoms: O_9  and  C_10
REMARK                            x       y       z     vdW  Elec       q    Type
REMARK                         _______ _______ _______ _____ _____    ______ ____
ROOT
ATOM      1  O   UNL     1      -2.908  -0.378  -1.732  0.00  0.00    +0.000 OA
ENDROOT
BRANCH   1   2
ATOM      2  C   UNL     1      -4.165  -0.092  -2.279  0.00  0.00    +0.000 A 
ATOM      3  C   UNL     1      -5.332  -0.552  -1.656  0.00  0.00    +0.000 A 
ATOM      4  C   UNL     1      -6.565  -0.272  -2.255  0.00  0.00    +0.000 A 
ATOM      5  C   UNL     1      -6.617   0.443  -3.459  0.00  0.00    +0.000 A 
ATOM      6  C   UNL     1      -5.442   0.877  -4.076  0.00  0.00    +0.000 A 
ATOM      7  C   UNL     1      -4.209   0.604  -3.490  0.00  0.00    +0.000 A 
ATOM      8 CL   UNL     1      -8.068  -0.789  -1.571  0.00  0.00    +0.000 Cl
ATOM      9 CL   UNL     1      -5.216  -1.461  -0.186  0.00  0.00    +0.000 Cl
ENDBRANCH   1   2
BRANCH   1  10
ATOM     10  C   UNL     1      -2.460   0.625  -0.894  0.00  0.00    +0.000 C 
ATOM     11  O   UNL     1      -3.000   1.701  -0.684  0.00  0.00    +0.000 OA
BRANCH  10  15
ATOM     12  C   UNL     1       1.283  -0.415   0.923  0.00  0.00    +0.000 A 
ATOM     13  C   UNL     1       0.584  -1.384   0.204  0.00  0.00    +0.000 A 
ATOM     14  C   UNL     1      -0.637  -1.067  -0.396  0.00  0.00    +0.000 A 
ATOM     15  C   UNL     1      -1.163   0.228  -0.280  0.00  0.00    +0.000 A 
ATOM     16  C   UNL     1      -0.456   1.194   0.450  0.00  0.00    +0.000 A 
ATOM     17  C   UNL     1       0.764   0.873   1.047  0.00  0.00    +0.000 A 
ENDBRANCH  10  15
ENDBRANCH   1  10
TORSDOF 3
