REMARK  Name = *****
REMARK  4 active torsions:
REMARK  status: ('A' for Active; 'I' for Inactive)
REMARK    1  A    between atoms: C_4  and  C_7
REMARK    2  A    between atoms: C_7  and  C_8
REMARK    3  A    between atoms: C_8  and  O_10
REMARK    4  A    between atoms: O_10  and  C_11
REMARK                            x       y       z     vdW  Elec       q    Type
REMARK                         _______ _______ _______ _____ _____    ______ ____
ROOT
ATOM      1  C   UNL     1      -3.724  -0.205  -0.655  0.00  0.00    +0.000 C 
ATOM      2  O   UNL     1      -3.556  -1.416  -0.712  0.00  0.00    +0.000 OA
ENDROOT
BRANCH   1   3
ATOM      3  C   UNL     1      -2.679   0.837  -0.309  0.00  0.00    +0.000 C 
BRANCH   3   7
ATOM      4  C   UNL     1       1.309  -0.734   0.192  0.00  0.00    +0.000 A 
ATOM      5  C   UNL     1       0.971  -0.051  -0.974  0.00  0.00    +0.000 A 
ATOM      6  C   UNL     1      -0.319   0.457  -1.139  0.00  0.00    +0.000 A 
ATOM      7  C   UNL     1      -1.283   0.288  -0.135  0.00  0.00    +0.000 A 
ATOM      8  C   UNL     1      -0.933  -0.406   1.032  0.00  0.00    +0.000 A 
ATOM      9  C   UNL     1       0.357  -0.914   1.194  0.00  0.00    +0.000 A 
ENDBRANCH   3   7
ENDBRANCH   1   3
BRANCH   1  10
ATOM     10  O   UNL     1      -4.931   0.466  -0.874  0.00  0.00    +0.000 OA
BRANCH  10  11
ATOM     11  C   UNL     1      -5.998  -0.377  -1.191  0.00  0.00    +0.000 A 
ATOM     12  C   UNL     1      -6.980  -0.590  -0.225  0.00  0.00    +0.000 A 
ATOM     13  C   UNL     1      -8.081  -1.389  -0.537  0.00  0.00    +0.000 A 
ATOM     14  C   UNL     1      -8.190  -1.950  -1.811  0.00  0.00    +0.000 A 
ATOM     15  C   UNL     1      -7.212  -1.716  -2.780  0.00  0.00    +0.000 A 
ATOM     16  C   UNL     1      -6.110  -0.917  -2.472  0.00  0.00    +0.000 A 
ATOM     17 CL   UNL     1      -9.550  -2.933  -2.195  0.00  0.00    +0.000 Cl
ENDBRANCH  10  11
ENDBRANCH   1  10
TORSDOF 4
