MODEL 1
REMARK VINA RESULT:      -4.3      0.000      0.000
REMARK  Name = *****
REMARK  5 active torsions:
REMARK  status: ('A' for Active; 'I' for Inactive)
REMARK    1  A    between atoms: C_1  and  N_2
REMARK    2  A    between atoms: N_2  and  C_3
REMARK    3  A    between atoms: N_2  and  C_4
REMARK    4  A    between atoms: C_9  and  C_10
REMARK    5  A    between atoms: C_11  and  C_12
REMARK                            x       y       z     vdW  Elec       q    Type
REMARK                         _______ _______ _______ _____ _____    ______ ____
ROOT
ATOM      1  C   UNL     1     101.414 127.807  83.730  0.00  0.00    +0.000 A 
ATOM      2  C   UNL     1     100.267 128.375  84.322  0.00  0.00    +0.000 A 
ATOM      3  C   UNL     1      98.972 128.091  83.868  0.00  0.00    +0.000 A 
ATOM      4  C   UNL     1      98.782 127.218  82.807  0.00  0.00    +0.000 A 
ATOM      5  C   UNL     1      99.889 126.625  82.206  0.00  0.00    +0.000 A 
ATOM      6  C   UNL     1     101.191 126.906  82.657  0.00  0.00    +0.000 A 
ENDROOT
BRANCH   1   8
ATOM      7  C   UNL     1     103.142 127.597  85.492  0.00  0.00    +0.000 C 
ATOM      8  N   UNL     1     102.696 128.119  84.206  0.00  0.00    +0.000 N 
ATOM      9  C   UNL     1     103.233 129.429  83.834  0.00  0.00    +0.000 C 
ENDBRANCH   1   8
BRANCH   6  10
ATOM     10  C   UNL     1     102.257 126.196  82.005  0.00  0.00    +0.000 C 
ATOM     11  C   UNL     1     103.133 125.587  81.454  0.00  0.00    +0.000 C 
BRANCH  11  12
ATOM     12  C   UNL     1     104.171 124.877  80.779  0.00  0.00    +0.000 C 
ATOM     13  C   UNL     1     104.324 123.561  81.009  0.00  0.00    +0.000 C 
ATOM     14  C   UNL     1     105.386 122.721  80.361  0.00  0.00    +0.000 C 
ATOM     15  C   UNL     1     106.463 123.545  79.654  0.00  0.00    +0.000 C 
ATOM     16  C   UNL     1     105.849 124.706  78.881  0.00  0.00    +0.000 C 
ATOM     17  C   UNL     1     105.052 125.626  79.810  0.00  0.00    +0.000 C 
ENDBRANCH  11  12
ENDBRANCH   6  10
TORSDOF 3
ENDMDL
