MODEL 1
REMARK VINA RESULT:      -4.7      0.000      0.000
REMARK  Name = *****
REMARK  1 active torsions:
REMARK  status: ('A' for Active; 'I' for Inactive)
REMARK    1  A    between atoms: C_8  and  C_10
REMARK                            x       y       z     vdW  Elec       q    Type
REMARK                         _______ _______ _______ _____ _____    ______ ____
ROOT
ATOM      1  C   UNL     1     104.988 124.001  80.263  0.00  0.00    +0.000 C 
ATOM      2  C   UNL     1     104.393 123.133  81.373  0.00  0.00    +0.000 C 
ATOM      3  C   UNL     1     104.339 123.884  82.710  0.00  0.00    +0.000 C 
ATOM      4  C   UNL     1     103.860 125.293  82.539  0.00  0.00    +0.000 C 
ATOM      5  C   UNL     1     103.776 125.918  81.358  0.00  0.00    +0.000 C 
ATOM      6  C   UNL     1     104.190 125.295  80.061  0.00  0.00    +0.000 C 
ATOM      7  C   UNL     1     103.249 127.324  81.398  0.00  0.00    +0.000 C 
ATOM      8  C   UNL     1     102.698 127.603  82.813  0.00  0.00    +0.000 C 
ATOM      9  S   UNL     1     103.346 126.252  83.885  0.00  0.00    +0.000 S 
ENDROOT
BRANCH   8  10
ATOM     10  C   UNL     1     101.185 127.692  82.894  0.00  0.00    +0.000 A 
ATOM     11  C   UNL     1     100.530 128.797  83.462  0.00  0.00    +0.000 A 
ATOM     12  C   UNL     1      99.136 128.849  83.523  0.00  0.00    +0.000 A 
ATOM     13  C   UNL     1      98.375 127.800  83.014  0.00  0.00    +0.000 A 
ATOM     14  C   UNL     1      99.006 126.700  82.439  0.00  0.00    +0.000 A 
ATOM     15  C   UNL     1     100.401 126.647  82.377  0.00  0.00    +0.000 A 
ENDBRANCH   8  10
TORSDOF 1
ENDMDL
