REMARK  Name = *****
REMARK  3 active torsions:
REMARK  status: ('A' for Active; 'I' for Inactive)
REMARK    1  A    between atoms: C_1  and  C_2
REMARK    2  A    between atoms: C_2  and  N_11
REMARK    3  A    between atoms: C_3  and  C_4
REMARK                            x       y       z     vdW  Elec       q    Type
REMARK                         _______ _______ _______ _____ _____    ______ ____
ROOT
ATOM      1  C   UNL     1       1.180   0.160   0.069  0.00  0.00    +0.000 C 
ATOM      2  C   UNL     1       2.695   0.071  -0.004  0.00  0.00    +0.000 C 
ATOM      3  C   UNL     1       3.285  -0.754  -0.897  0.00  0.00    +0.000 C 
ENDROOT
BRANCH   3   4
ATOM      4  C   UNL     1       2.601  -1.609  -1.872  0.00  0.00    +0.000 A 
ATOM      5  C   UNL     1       2.112  -1.068  -3.067  0.00  0.00    +0.000 A 
ATOM      6  C   UNL     1       1.463  -1.888  -3.994  0.00  0.00    +0.000 A 
ATOM      7  C   UNL     1       1.304  -3.246  -3.724  0.00  0.00    +0.000 A 
ATOM      8  C   UNL     1       1.789  -3.793  -2.537  0.00  0.00    +0.000 A 
ATOM      9  C   UNL     1       2.439  -2.973  -1.610  0.00  0.00    +0.000 A 
ATOM     10 CL   UNL     1       0.503  -4.255  -4.864  0.00  0.00    +0.000 Cl
ENDBRANCH   3   4
BRANCH   2  11
ATOM     11  N   UNL     1       3.429   0.883   0.888  0.00  0.00    +0.000 N 
ATOM     12  C   UNL     1       4.770   0.533   1.394  0.00  0.00    +0.000 C 
ATOM     13  C   UNL     1       4.667   0.108   2.860  0.00  0.00    +0.000 C 
ATOM     14  C   UNL     1       4.009   1.195   3.709  0.00  0.00    +0.000 C 
ATOM     15  C   UNL     1       2.675   1.633   3.105  0.00  0.00    +0.000 C 
ATOM     16  C   UNL     1       2.840   2.012   1.634  0.00  0.00    +0.000 C 
ENDBRANCH   2  11
TORSDOF 2
