MODEL 1
REMARK VINA RESULT:      -5.0      0.000      0.000
REMARK  Name = *****
REMARK  3 active torsions:
REMARK  status: ('A' for Active; 'I' for Inactive)
REMARK    1  A    between atoms: C_1  and  C_2
REMARK    2  A    between atoms: C_2  and  C_9
REMARK    3  A    between atoms: N_6  and  C_7
REMARK                            x       y       z     vdW  Elec       q    Type
REMARK                         _______ _______ _______ _____ _____    ______ ____
ROOT
ATOM      1  C   UNL     1     103.247 126.208  82.197  0.00  0.00    +0.000 A 
ATOM      2  C   UNL     1     101.857 126.020  82.079  0.00  0.00    +0.000 A 
ATOM      3  C   UNL     1     100.937 126.976  82.546  0.00  0.00    +0.000 A 
ATOM      4  C   UNL     1      99.552 126.773  82.439  0.00  0.00    +0.000 A 
ATOM      5  C   UNL     1      98.651 127.729  82.909  0.00  0.00    +0.000 A 
ATOM      6  C   UNL     1      99.122 128.901  83.491  0.00  0.00    +0.000 A 
ATOM      7  C   UNL     1     100.495 129.120  83.604  0.00  0.00    +0.000 A 
ATOM      8  C   UNL     1     101.415 128.165  83.137  0.00  0.00    +0.000 A 
ATOM      9  C   UNL     1     102.798 128.367  83.240  0.00  0.00    +0.000 A 
ATOM     10  C   UNL     1     103.700 127.404  82.776  0.00  0.00    +0.000 A 
ENDROOT
BRANCH   1  12
ATOM     11  C   UNL     1     104.204 125.142  80.150  0.00  0.00    +0.000 C 
ATOM     12  C   UNL     1     104.242 125.155  81.685  0.00  0.00    +0.000 C 
ATOM     13  C   UNL     1     105.686 125.370  82.174  0.00  0.00    +0.000 C 
ATOM     14  S   UNL     1     105.716 124.587  83.804  0.00  0.00    +0.000 S 
ATOM     15  C   UNL     1     104.444 123.501  83.296  0.00  0.00    +0.000 C 
ATOM     16  N   UNL     1     104.034 122.450  83.900  0.00  0.00    +0.000 NA
ATOM     17  C   UNL     1     104.637 122.078  85.170  0.00  0.00    +0.000 C 
ATOM     18  O   UNL     1     103.860 123.827  82.108  0.00  0.00    +0.000 OA
ENDBRANCH   1  12
TORSDOF 1
ENDMDL
