REMARK  Name = *****
REMARK  2 active torsions:
REMARK  status: ('A' for Active; 'I' for Inactive)
REMARK    1  A    between atoms: C_1  and  C_2
REMARK    2  A    between atoms: C_11  and  C_12
REMARK                            x       y       z     vdW  Elec       q    Type
REMARK                         _______ _______ _______ _____ _____    ______ ____
ROOT
ATOM      1  C   UNL     1       0.811   0.290  -0.367  0.00  0.00    +0.000 C 
ATOM      2  C   UNL     1       2.301   0.094  -0.258  0.00  0.00    +0.000 C 
ATOM      3  C   UNL     1       3.124   1.159  -0.243  0.00  0.00    +0.000 C 
ATOM      4  C   UNL     1       4.581   1.052  -0.116  0.00  0.00    +0.000 A 
ATOM      5  C   UNL     1       5.312   2.202   0.221  0.00  0.00    +0.000 A 
ATOM      6  C   UNL     1       6.703   2.156   0.338  0.00  0.00    +0.000 A 
ATOM      7  C   UNL     1       7.378   0.961   0.111  0.00  0.00    +0.000 A 
ATOM      8  C   UNL     1       6.663  -0.186  -0.233  0.00  0.00    +0.000 A 
ATOM      9  C   UNL     1       5.266  -0.151  -0.344  0.00  0.00    +0.000 A 
ATOM     10  S   UNL     1       4.434  -1.652  -0.825  0.00  0.00    +0.000 S 
ATOM     11  C   UNL     1       2.750  -1.354  -0.176  0.00  0.00    +0.000 C 
ENDROOT
BRANCH  11  12
ATOM     12  C   UNL     1       2.560  -1.982   1.199  0.00  0.00    +0.000 A 
ATOM     13  C   UNL     1       3.087  -1.400   2.364  0.00  0.00    +0.000 A 
ATOM     14  C   UNL     1       2.901  -1.999   3.611  0.00  0.00    +0.000 A 
ATOM     15  C   UNL     1       2.188  -3.191   3.714  0.00  0.00    +0.000 A 
ATOM     16  C   UNL     1       1.664  -3.787   2.570  0.00  0.00    +0.000 A 
ATOM     17  C   UNL     1       1.850  -3.190   1.322  0.00  0.00    +0.000 A 
ENDBRANCH  11  12
TORSDOF 1
