REMARK  Name = *****
REMARK  3 active torsions:
REMARK  status: ('A' for Active; 'I' for Inactive)
REMARK    1  A    between atoms: C_3  and  C_14
REMARK    2  A    between atoms: C_6  and  C_7
REMARK    3  A    between atoms: C_8  and  C_9
REMARK                            x       y       z     vdW  Elec       q    Type
REMARK                         _______ _______ _______ _____ _____    ______ ____
ROOT
ATOM      1  C   UNL     1      -0.724   1.250  -0.183  0.00  0.00    +0.000 A 
ATOM      2  C   UNL     1      -1.360   0.007  -0.113  0.00  0.00    +0.000 A 
ATOM      3  C   UNL     1      -0.608  -1.177  -0.067  0.00  0.00    +0.000 A 
ATOM      4  C   UNL     1       0.793  -1.091  -0.092  0.00  0.00    +0.000 A 
ATOM      5  C   UNL     1       1.428   0.152  -0.162  0.00  0.00    +0.000 A 
ATOM      6  C   UNL     1       0.670   1.323  -0.208  0.00  0.00    +0.000 A 
ENDROOT
BRANCH   3   7
ATOM      7  C   UNL     1      -1.279  -2.528   0.007  0.00  0.00    +0.000 C 
ATOM      8  F   UNL     1      -2.639  -2.462   0.034  0.00  0.00    +0.000 F 
ATOM      9  F   UNL     1      -0.966  -3.322  -1.055  0.00  0.00    +0.000 F 
ATOM     10  F   UNL     1      -0.917  -3.229   1.117  0.00  0.00    +0.000 F 
ENDBRANCH   3   7
BRANCH   6  11
ATOM     11  C   UNL     1       1.320   2.595  -0.283  0.00  0.00    +0.000 C 
ATOM     12  C   UNL     1       1.865   3.663  -0.348  0.00  0.00    +0.000 C 
BRANCH  12  13
ATOM     13  C   UNL     1       2.515   4.933  -0.428  0.00  0.00    +0.000 A 
ATOM     14  C   UNL     1       1.858   6.126  -0.227  0.00  0.00    +0.000 A 
ATOM     15  S   UNL     1       2.904   7.473  -0.392  0.00  0.00    +0.000 S 
ATOM     16  C   UNL     1       4.241   6.459  -0.733  0.00  0.00    +0.000 A 
ATOM     17  C   UNL     1       3.896   5.125  -0.721  0.00  0.00    +0.000 A 
ENDBRANCH  12  13
ENDBRANCH   6  11
TORSDOF 3
