MODEL 1
REMARK VINA RESULT:      -4.6      0.000      0.000
REMARK  Name = *****
REMARK  3 active torsions:
REMARK  status: ('A' for Active; 'I' for Inactive)
REMARK    1  A    between atoms: C_1  and  C_2
REMARK    2  A    between atoms: C_5  and  C_8
REMARK    3  A    between atoms: C_9  and  C_11
REMARK                            x       y       z     vdW  Elec       q    Type
REMARK                         _______ _______ _______ _____ _____    ______ ____
ROOT
ATOM      1  C   UNL     1      89.263  68.917  86.725  0.00  0.00    +0.000 C 
ATOM      2  C   UNL     1      88.882  67.522  86.252  0.00  0.00    +0.000 C 
ATOM      3  O   UNL     1      90.252  67.927  86.398  0.00  0.00    +0.000 OA
ENDROOT
BRANCH   1   8
ATOM      4  C   UNL     1      88.629  73.494  83.148  0.00  0.00    +0.000 C 
ATOM      5  C   UNL     1      88.786  72.300  84.042  0.00  0.00    +0.000 A 
ATOM      6  C   UNL     1      87.691  71.785  84.741  0.00  0.00    +0.000 A 
ATOM      7  C   UNL     1      87.850  70.692  85.598  0.00  0.00    +0.000 A 
ATOM      8  C   UNL     1      89.101  70.086  85.791  0.00  0.00    +0.000 A 
ATOM      9  C   UNL     1      90.194  70.630  85.098  0.00  0.00    +0.000 A 
ATOM     10  C   UNL     1      90.043  71.723  84.238  0.00  0.00    +0.000 A 
ENDBRANCH   1   8
BRANCH   2  11
ATOM     11  C   UNL     1      88.336  66.523  87.239  0.00  0.00    +0.000 A 
ATOM     12  C   UNL     1      88.925  65.256  87.390  0.00  0.00    +0.000 A 
ATOM     13  C   UNL     1      88.429  64.328  88.311  0.00  0.00    +0.000 A 
ATOM     14  C   UNL     1      87.332  64.658  89.101  0.00  0.00    +0.000 A 
ATOM     15  C   UNL     1      86.731  65.907  88.978  0.00  0.00    +0.000 A 
ATOM     16  C   UNL     1      87.233  66.828  88.055  0.00  0.00    +0.000 A 
ATOM     17 CL   UNL     1      86.720  63.519  90.236  0.00  0.00    +0.000 Cl
ENDBRANCH   2  11
TORSDOF 2
ENDMDL
