REMARK  Name = *****
REMARK  3 active torsions:
REMARK  status: ('A' for Active; 'I' for Inactive)
REMARK    1  A    between atoms: C_4  and  C_7
REMARK    2  A    between atoms: C_7  and  C_8
REMARK    3  A    between atoms: C_8  and  C_9
REMARK                            x       y       z     vdW  Elec       q    Type
REMARK                         _______ _______ _______ _____ _____    ______ ____
ROOT
ATOM      1  C   UNL     1      -1.234   1.746   2.862  0.00  0.00    +0.000 C 
ENDROOT
BRANCH   1   2
ATOM      2  C   UNL     1      -1.160   1.611   4.365  0.00  0.00    +0.000 A 
ATOM      3  C   UNL     1      -0.397   2.509   5.123  0.00  0.00    +0.000 A 
ATOM      4  C   UNL     1      -0.313   2.371   6.510  0.00  0.00    +0.000 A 
ATOM      5  C   UNL     1      -0.989   1.331   7.143  0.00  0.00    +0.000 A 
ATOM      6  C   UNL     1      -1.747   0.426   6.402  0.00  0.00    +0.000 A 
ATOM      7  C   UNL     1      -1.830   0.565   5.016  0.00  0.00    +0.000 A 
ATOM      8 BR   UNL     1      -0.874   1.143   9.021  0.00  0.00    +0.000 Br
ENDBRANCH   1   2
BRANCH   1   9
ATOM      9  C   UNL     1      -0.111   0.956   2.176  0.00  0.00    +0.000 C 
BRANCH   9  13
ATOM     10  C   UNL     1      -0.137  -1.838  -0.508  0.00  0.00    +0.000 C 
ATOM     11  C   UNL     1       1.134  -1.325   0.154  0.00  0.00    +0.000 C 
ATOM     12  S   UNL     1       1.408   0.449  -0.111  0.00  0.00    +0.000 S 
ATOM     13  C   UNL     1      -0.102   1.135   0.650  0.00  0.00    +0.000 C 
ATOM     14  S   UNL     1      -1.593   0.521  -0.201  0.00  0.00    +0.000 S 
ATOM     15  C   UNL     1      -1.419  -1.264   0.079  0.00  0.00    +0.000 C 
ENDBRANCH   9  13
ENDBRANCH   1   9
TORSDOF 3
