MODEL 1
REMARK VINA RESULT:      -5.3      0.000      0.000
REMARK  Name = *****
REMARK  1 active torsions:
REMARK  status: ('A' for Active; 'I' for Inactive)
REMARK    1  A    between atoms: C_6  and  C_7
REMARK                            x       y       z     vdW  Elec       q    Type
REMARK                         _______ _______ _______ _____ _____    ______ ____
ROOT
ATOM      1  C   UNL     1     102.834 125.829  81.765  0.00  0.00    +0.000 C 
ATOM      2  O   UNL     1     103.141 126.035  80.590  0.00  0.00    +0.000 OA
ATOM      3  N   UNL     1     103.422 124.722  82.400  0.00  0.00    +0.000 N 
ATOM      4  C   UNL     1     104.260 123.747  81.878  0.00  0.00    +0.000 A 
ATOM      5  C   UNL     1     104.544 122.938  82.973  0.00  0.00    +0.000 A 
ATOM      6  C   UNL     1     105.378 121.822  82.823  0.00  0.00    +0.000 A 
ATOM      7  C   UNL     1     105.903 121.559  81.556  0.00  0.00    +0.000 A 
ATOM      8  C   UNL     1     105.613 122.377  80.464  0.00  0.00    +0.000 A 
ATOM      9  C   UNL     1     104.780 123.494  80.600  0.00  0.00    +0.000 A 
ATOM     10 CL   UNL     1     106.932 120.194  81.340  0.00  0.00    +0.000 Cl
ATOM     11  N   UNL     1     103.907 123.420  84.079  0.00  0.00    +0.000 NA
ATOM     12  N   UNL     1     103.237 124.507  83.728  0.00  0.00    +0.000 NA
ENDROOT
BRANCH   1  18
ATOM     13  C   UNL     1     100.500 126.597  82.383  0.00  0.00    +0.000 A 
ATOM     14  C   UNL     1      99.654 127.540  82.980  0.00  0.00    +0.000 A 
ATOM     15  C   UNL     1     100.192 128.675  83.584  0.00  0.00    +0.000 A 
ATOM     16  C   UNL     1     101.569 128.882  83.593  0.00  0.00    +0.000 A 
ATOM     17  C   UNL     1     102.417 127.942  82.999  0.00  0.00    +0.000 A 
ATOM     18  C   UNL     1     101.888 126.786  82.404  0.00  0.00    +0.000 A 
ATOM     19 CL   UNL     1      99.148 129.830  84.314  0.00  0.00    +0.000 Cl
ENDBRANCH   1  18
TORSDOF 1
ENDMDL
