MODEL 1
REMARK VINA RESULT:      -4.7      0.000      0.000
REMARK  Name = *****
REMARK  4 active torsions:
REMARK  status: ('A' for Active; 'I' for Inactive)
REMARK    1  A    between atoms: C_4  and  C_7
REMARK    2  A    between atoms: C_8  and  C_9
REMARK    3  A    between atoms: C_12  and  C_15
REMARK    4  A    between atoms: C_15  and  C_16
REMARK                            x       y       z     vdW  Elec       q    Type
REMARK                         _______ _______ _______ _____ _____    ______ ____
ROOT
ATOM      1  C   UNL     1     103.902 124.385  81.775  0.00  0.00    +0.000 A 
ATOM      2  C   UNL     1     104.459 123.571  82.762  0.00  0.00    +0.000 A 
ATOM      3  C   UNL     1     105.499 122.693  82.445  0.00  0.00    +0.000 A 
ATOM      4  C   UNL     1     105.991 122.620  81.135  0.00  0.00    +0.000 A 
ATOM      5  C   UNL     1     105.424 123.439  80.149  0.00  0.00    +0.000 A 
ATOM      6  C   UNL     1     104.383 124.315  80.467  0.00  0.00    +0.000 A 
ENDROOT
BRANCH   1   8
ATOM      7  C   UNL     1     101.995 126.091  82.388  0.00  0.00    +0.000 C 
ATOM      8  C   UNL     1     102.856 125.300  82.111  0.00  0.00    +0.000 C 
BRANCH   7  12
ATOM      9  C   UNL     1      99.042 128.958  83.338  0.00  0.00    +0.000 A 
ATOM     10  C   UNL     1      98.682 127.773  82.697  0.00  0.00    +0.000 A 
ATOM     11  C   UNL     1      99.655 126.821  82.386  0.00  0.00    +0.000 A 
ATOM     12  C   UNL     1     100.992 127.057  82.715  0.00  0.00    +0.000 A 
ATOM     13  C   UNL     1     101.351 128.245  83.358  0.00  0.00    +0.000 A 
ATOM     14  C   UNL     1     100.376 129.195  83.668  0.00  0.00    +0.000 A 
ENDBRANCH   7  12
ENDBRANCH   1   8
BRANCH   4  15
ATOM     15  C   UNL     1     107.125 121.688  80.793  0.00  0.00    +0.000 C 
BRANCH  15  16
ATOM     16  C   UNL     1     108.290 122.415  80.174  0.00  0.00    +0.000 C 
ATOM     17  O   UNL     1     108.836 122.055  79.134  0.00  0.00    +0.000 OA
ENDBRANCH  15  16
ENDBRANCH   4  15
TORSDOF 4
ENDMDL
