MODEL 1
REMARK VINA RESULT:      -4.4      0.000      0.000
REMARK  Name = *****
REMARK  5 active torsions:
REMARK  status: ('A' for Active; 'I' for Inactive)
REMARK    1  A    between atoms: C_1  and  C_2
REMARK    2  A    between atoms: C_7  and  C_8
REMARK    3  A    between atoms: C_8  and  N_9
REMARK    4  A    between atoms: N_9  and  C_10
REMARK    5  A    between atoms: C_10  and  C_11
REMARK                            x       y       z     vdW  Elec       q    Type
REMARK                         _______ _______ _______ _____ _____    ______ ____
ROOT
ATOM      1  C   UNL     1      87.570  66.568  87.574  0.00  0.00    +0.000 C 
ATOM      2  C   UNL     1      88.653  65.922  86.759  0.00  0.00    +0.000 A 
ATOM      3  C   UNL     1      89.816  66.656  86.476  0.00  0.00    +0.000 A 
ATOM      4  C   UNL     1      90.868  66.121  85.734  0.00  0.00    +0.000 A 
ATOM      5  C   UNL     1      90.777  64.822  85.252  0.00  0.00    +0.000 A 
ATOM      6  C   UNL     1      89.631  64.076  85.517  0.00  0.00    +0.000 A 
ATOM      7  C   UNL     1      88.568  64.608  86.259  0.00  0.00    +0.000 A 
ATOM      8  F   UNL     1      89.569  62.826  85.032  0.00  0.00    +0.000 F 
ATOM      9  F   UNL     1      89.941  67.913  86.927  0.00  0.00    +0.000 F 
ENDROOT
BRANCH   7  10
ATOM     10  C   UNL     1      87.410  63.706  86.461  0.00  0.00    +0.000 C 
BRANCH  10  11
ATOM     11  N   UNL     1      87.396  62.757  87.334  0.00  0.00    +0.000 NA
BRANCH  11  12
ATOM     12  C   UNL     1      86.492  63.000  88.468  0.00  0.00    +0.000 C 
BRANCH  12  13
ATOM     13  C   UNL     1      87.208  63.489  89.704  0.00  0.00    +0.000 A 
ATOM     14  C   UNL     1      86.482  63.879  90.838  0.00  0.00    +0.000 A 
ATOM     15  C   UNL     1      87.138  64.318  91.988  0.00  0.00    +0.000 A 
ATOM     16  C   UNL     1      88.531  64.365  92.019  0.00  0.00    +0.000 A 
ATOM     17  C   UNL     1      89.266  63.973  90.900  0.00  0.00    +0.000 A 
ATOM     18  C   UNL     1      88.608  63.535  89.749  0.00  0.00    +0.000 A 
ENDBRANCH  12  13
ENDBRANCH  11  12
ENDBRANCH  10  11
ENDBRANCH   7  10
TORSDOF 4
ENDMDL
