REMARK  Name = *****
REMARK  3 active torsions:
REMARK  status: ('A' for Active; 'I' for Inactive)
REMARK    1  A    between atoms: C_5  and  O_7
REMARK    2  A    between atoms: O_7  and  C_8
REMARK    3  A    between atoms: C_8  and  C_10
REMARK                            x       y       z     vdW  Elec       q    Type
REMARK                         _______ _______ _______ _____ _____    ______ ____
ROOT
ATOM      1  O   UNL     1       1.184  -2.085  -0.840  0.00  0.00    +0.000 OA
ENDROOT
BRANCH   1   6
ATOM      2  C   UNL     1      -1.755  -0.253   0.385  0.00  0.00    +0.000 A 
ATOM      3  C   UNL     1      -1.300   1.068   0.302  0.00  0.00    +0.000 A 
ATOM      4  C   UNL     1      -0.010   1.338  -0.160  0.00  0.00    +0.000 A 
ATOM      5  C   UNL     1       0.819   0.286  -0.531  0.00  0.00    +0.000 A 
ATOM      6  C   UNL     1       0.370  -1.029  -0.429  0.00  0.00    +0.000 A 
ATOM      7  C   UNL     1      -0.922  -1.309   0.011  0.00  0.00    +0.000 A 
ATOM      8  F   UNL     1       2.048   0.546  -0.999  0.00  0.00    +0.000 F 
ENDBRANCH   1   6
BRANCH   1   9
ATOM      9  C   UNL     1       2.207  -2.377   0.062  0.00  0.00    +0.000 C 
ATOM     10  O   UNL     1       2.331  -1.866   1.171  0.00  0.00    +0.000 OA
BRANCH   9  11
ATOM     11  C   UNL     1       3.068  -3.398  -0.513  0.00  0.00    +0.000 A 
ATOM     12  C   UNL     1       2.994  -4.027  -1.744  0.00  0.00    +0.000 A 
ATOM     13  C   UNL     1       4.037  -4.980  -1.937  0.00  0.00    +0.000 A 
ATOM     14  C   UNL     1       4.876  -5.050  -0.849  0.00  0.00    +0.000 A 
ATOM     15  S   UNL     1       4.406  -3.975   0.393  0.00  0.00    +0.000 S 
ENDBRANCH   9  11
ENDBRANCH   1   9
TORSDOF 3
