MODEL 1
REMARK VINA RESULT:      -4.9      0.000      0.000
REMARK  Name = *****
REMARK  5 active torsions:
REMARK  status: ('A' for Active; 'I' for Inactive)
REMARK    1  A    between atoms: C_1  and  C_2
REMARK    2  A    between atoms: C_3  and  N_9
REMARK    3  A    between atoms: C_4  and  C_8
REMARK    4  A    between atoms: N_11  and  C_12
REMARK    5  A    between atoms: N_11  and  C_13
REMARK                            x       y       z     vdW  Elec       q    Type
REMARK                         _______ _______ _______ _____ _____    ______ ____
ROOT
ATOM      1  N   UNL     1     104.294 125.156  82.865  0.00  0.00    +0.000 NA
ATOM      2  C   UNL     1     103.085 125.625  82.837  0.00  0.00    +0.000 C 
ATOM      3  N   UNL     1     102.688 126.892  83.212  0.00  0.00    +0.000 N 
ATOM      4  C   UNL     1     103.710 127.887  83.534  0.00  0.00    +0.000 C 
ENDROOT
BRANCH   1   7
ATOM      5  C   UNL     1     104.629 124.678  80.034  0.00  0.00    +0.000 C 
ATOM      6  C   UNL     1     104.615 123.563  81.041  0.00  0.00    +0.000 A 
ATOM      7  C   UNL     1     104.445 123.831  82.415  0.00  0.00    +0.000 A 
ATOM      8  C   UNL     1     104.462 122.770  83.342  0.00  0.00    +0.000 A 
ATOM      9  C   UNL     1     104.598 121.451  82.884  0.00  0.00    +0.000 A 
ATOM     10  C   UNL     1     104.735 121.187  81.523  0.00  0.00    +0.000 A 
ATOM     11  C   UNL     1     104.746 122.235  80.607  0.00  0.00    +0.000 A 
ATOM     12  C   UNL     1     104.318 123.035  84.815  0.00  0.00    +0.000 C 
ENDBRANCH   1   7
BRANCH   3  13
ATOM     13  C   UNL     1     101.352 127.343  83.109  0.00  0.00    +0.000 A 
ATOM     14  C   UNL     1     100.367 126.550  82.491  0.00  0.00    +0.000 A 
ATOM     15  C   UNL     1      99.041 126.981  82.375  0.00  0.00    +0.000 A 
ATOM     16  C   UNL     1      98.666 128.222  82.876  0.00  0.00    +0.000 A 
ATOM     17  C   UNL     1      99.616 129.028  83.496  0.00  0.00    +0.000 A 
ATOM     18  C   UNL     1     100.940 128.591  83.611  0.00  0.00    +0.000 A 
ENDBRANCH   3  13
TORSDOF 2
ENDMDL
