REMARK  Name = *****
REMARK  5 active torsions:
REMARK  status: ('A' for Active; 'I' for Inactive)
REMARK    1  A    between atoms: C_1  and  C_2
REMARK    2  A    between atoms: C_4  and  C_17
REMARK    3  A    between atoms: C_5  and  N_8
REMARK    4  A    between atoms: N_8  and  C_9
REMARK    5  A    between atoms: C_9  and  C_10
REMARK                            x       y       z     vdW  Elec       q    Type
REMARK                         _______ _______ _______ _____ _____    ______ ____
ROOT
ATOM      1  N   UNL     1      -2.397  -1.828  -0.367  0.00  0.00    +0.000 N 
ATOM      2  H   UNL     1      -3.230  -1.333  -0.536  0.00  0.00    +0.000 HD
ENDROOT
BRANCH   1   7
ATOM      3  C   UNL     1       2.505   1.119   0.154  0.00  0.00    +0.000 C 
ATOM      4  C   UNL     1       1.227   0.351  -0.003  0.00  0.00    +0.000 A 
ATOM      5  C   UNL     1      -0.011   0.982   0.150  0.00  0.00    +0.000 A 
ATOM      6  C   UNL     1      -1.216   0.263   0.029  0.00  0.00    +0.000 A 
ATOM      7  C   UNL     1      -1.193  -1.132  -0.196  0.00  0.00    +0.000 A 
ATOM      8  C   UNL     1       0.059  -1.740  -0.378  0.00  0.00    +0.000 A 
ATOM      9  C   UNL     1       1.251  -1.017  -0.264  0.00  0.00    +0.000 A 
ATOM     10  C   UNL     1      -2.514   1.018   0.165  0.00  0.00    +0.000 C 
ENDBRANCH   1   7
BRANCH   1  11
ATOM     11  C   UNL     1      -2.420  -3.282  -0.295  0.00  0.00    +0.000 C 
BRANCH  11  12
ATOM     12  C   UNL     1      -3.854  -3.759  -0.360  0.00  0.00    +0.000 A 
ATOM     13  C   UNL     1      -4.589  -3.627  -1.549  0.00  0.00    +0.000 A 
ATOM     14  C   UNL     1      -5.916  -4.056  -1.615  0.00  0.00    +0.000 A 
ATOM     15  C   UNL     1      -6.518  -4.615  -0.491  0.00  0.00    +0.000 A 
ATOM     16  C   UNL     1      -5.805  -4.747   0.699  0.00  0.00    +0.000 A 
ATOM     17  C   UNL     1      -4.477  -4.317   0.766  0.00  0.00    +0.000 A 
ATOM     18 CL   UNL     1      -8.153  -5.143  -0.570  0.00  0.00    +0.000 Cl
ENDBRANCH  11  12
ENDBRANCH   1  11
TORSDOF 3
