MODEL 1
REMARK VINA RESULT:      -3.5      0.000      0.000
REMARK  Name = *****
REMARK  4 active torsions:
REMARK  status: ('A' for Active; 'I' for Inactive)
REMARK    1  A    between atoms: C_1  and  C_2
REMARK    2  A    between atoms: C_2  and  C_8
REMARK    3  A    between atoms: C_8  and  C_9
REMARK    4  A    between atoms: C_9  and  C_15
REMARK                            x       y       z     vdW  Elec       q    Type
REMARK                         _______ _______ _______ _____ _____    ______ ____
ROOT
ATOM      1  C   UNL     1     102.140 125.896  82.019  0.00  0.00    +0.000 C 
ENDROOT
BRANCH   1   3
ATOM      2  C   UNL     1     101.405 126.012  84.400  0.00  0.00    +0.000 C 
ATOM      3  C   UNL     1     101.342 126.768  83.053  0.00  0.00    +0.000 C 
ATOM      4  S   UNL     1     102.087 128.426  83.258  0.00  0.00    +0.000 S 
ATOM      5  C   UNL     1     100.956 129.216  84.432  0.00  0.00    +0.000 C 
ATOM      6  C   UNL     1      99.524 129.284  83.929  0.00  0.00    +0.000 C 
ATOM      7  C   UNL     1      98.856 127.925  83.816  0.00  0.00    +0.000 C 
ATOM      8  S   UNL     1      99.581 126.874  82.528  0.00  0.00    +0.000 S 
ENDBRANCH   1   3
BRANCH   1   9
ATOM      9  C   UNL     1     103.539 126.278  81.443  0.00  0.00    +0.000 C 
ATOM     10  S   UNL     1     104.180 124.849  80.421  0.00  0.00    +0.000 S 
ATOM     11  C   UNL     1     104.391 123.572  81.693  0.00  0.00    +0.000 C 
ATOM     12  C   UNL     1     105.394 123.959  82.767  0.00  0.00    +0.000 C 
ATOM     13  C   UNL     1     104.962 125.140  83.623  0.00  0.00    +0.000 C 
ATOM     14  S   UNL     1     104.846 126.688  82.689  0.00  0.00    +0.000 S 
ATOM     15  C   UNL     1     103.515 127.459  80.461  0.00  0.00    +0.000 C 
ENDBRANCH   1   9
TORSDOF 2
ENDMDL
