REMARK  Name = *****
REMARK  4 active torsions:
REMARK  status: ('A' for Active; 'I' for Inactive)
REMARK    1  A    between atoms: C_1  and  C_2
REMARK    2  A    between atoms: C_4  and  C_8
REMARK    3  A    between atoms: C_8  and  C_9
REMARK    4  A    between atoms: C_10  and  C_11
REMARK                            x       y       z     vdW  Elec       q    Type
REMARK                         _______ _______ _______ _____ _____    ______ ____
ROOT
ATOM      1  C   UNL     1      -1.859   2.507  -0.189  0.00  0.00    +0.000 C 
ENDROOT
BRANCH   1   5
ATOM      2  C   UNL     1      -0.533  -1.748   2.187  0.00  0.00    +0.000 C 
ATOM      3  C   UNL     1      -0.487  -0.870   0.971  0.00  0.00    +0.000 A 
ATOM      4  C   UNL     1      -1.175   0.351   0.950  0.00  0.00    +0.000 A 
ATOM      5  C   UNL     1      -1.116   1.192  -0.172  0.00  0.00    +0.000 A 
ATOM      6  C   UNL     1      -0.336   0.805  -1.270  0.00  0.00    +0.000 A 
ATOM      7  C   UNL     1       0.365  -0.401  -1.250  0.00  0.00    +0.000 A 
ATOM      8  C   UNL     1       0.293  -1.233  -0.133  0.00  0.00    +0.000 A 
ENDBRANCH   1   5
BRANCH   1   9
ATOM      9  C   UNL     1      -0.950   3.677   0.064  0.00  0.00    +0.000 C 
ATOM     10  C   UNL     1      -0.793   4.698  -0.795  0.00  0.00    +0.000 C 
BRANCH  10  11
ATOM     11  C   UNL     1       0.092   5.846  -0.554  0.00  0.00    +0.000 A 
ATOM     12  C   UNL     1       1.349   5.705   0.049  0.00  0.00    +0.000 A 
ATOM     13  C   UNL     1       2.179   6.815   0.231  0.00  0.00    +0.000 A 
ATOM     14  C   UNL     1       1.764   8.075  -0.198  0.00  0.00    +0.000 A 
ATOM     15  C   UNL     1       0.523   8.224  -0.813  0.00  0.00    +0.000 A 
ATOM     16  C   UNL     1      -0.306   7.114  -0.996  0.00  0.00    +0.000 A 
ENDBRANCH  10  11
ENDBRANCH   1   9
TORSDOF 3
