MODEL 1
REMARK VINA RESULT:      -4.1      0.000      0.000
REMARK  Name = *****
REMARK  3 active torsions:
REMARK  status: ('A' for Active; 'I' for Inactive)
REMARK    1  A    between atoms: C_6  and  C_7
REMARK    2  A    between atoms: C_7  and  S_8
REMARK    3  A    between atoms: S_8  and  C_9
REMARK                            x       y       z     vdW  Elec       q    Type
REMARK                         _______ _______ _______ _____ _____    ______ ____
ROOT
ATOM      1  C   UNL     1      89.827  68.286  86.407  0.00  0.00    +0.000 C 
ATOM      2  C   UNL     1      89.249  68.282  84.992  0.00  0.00    +0.000 C 
ATOM      3  C   UNL     1      89.590  69.567  84.232  0.00  0.00    +0.000 C 
ATOM      4  C   UNL     1      89.190  70.822  85.024  0.00  0.00    +0.000 C 
ATOM      5  C   UNL     1      89.769  70.795  86.445  0.00  0.00    +0.000 C 
ATOM      6  C   UNL     1      89.398  69.518  87.223  0.00  0.00    +0.000 C 
ATOM      7 CL   UNL     1      89.770  72.315  84.208  0.00  0.00    +0.000 Cl
ATOM      8 CL   UNL     1      88.774  69.511  82.636  0.00  0.00    +0.000 Cl
ENDROOT
BRANCH   6   9
ATOM      9  C   UNL     1      87.906  69.425  87.607  0.00  0.00    +0.000 C 
BRANCH   9  10
ATOM     10  S   UNL     1      87.433  70.703  88.826  0.00  0.00    +0.000 S 
BRANCH  10  11
ATOM     11  C   UNL     1      86.069  71.464  87.965  0.00  0.00    +0.000 A 
ATOM     12  C   UNL     1      86.032  71.542  86.569  0.00  0.00    +0.000 A 
ATOM     13  C   UNL     1      84.946  72.141  85.925  0.00  0.00    +0.000 A 
ATOM     14  C   UNL     1      83.888  72.655  86.673  0.00  0.00    +0.000 A 
ATOM     15  C   UNL     1      83.912  72.566  88.063  0.00  0.00    +0.000 A 
ATOM     16  C   UNL     1      84.997  71.968  88.707  0.00  0.00    +0.000 A 
ENDBRANCH  10  11
ENDBRANCH   9  10
ENDBRANCH   6   9
TORSDOF 3
ENDMDL
