MODEL 1
REMARK VINA RESULT:      -4.4      0.000      0.000
REMARK  Name = *****
REMARK  3 active torsions:
REMARK  status: ('A' for Active; 'I' for Inactive)
REMARK    1  A    between atoms: C_4  and  N_7
REMARK    2  A    between atoms: N_7  and  C_8
REMARK    3  A    between atoms: C_8  and  C_10
REMARK                            x       y       z     vdW  Elec       q    Type
REMARK                         _______ _______ _______ _____ _____    ______ ____
ROOT
ATOM      1  C   UNL     1      88.859  64.317  86.749  0.00  0.00    +0.000 C 
ATOM      2  S   UNL     1      88.368  63.497  85.370  0.00  0.00    +0.000 S 
ENDROOT
BRANCH   1   3
ATOM      3  C   UNL     1      88.911  65.799  86.773  0.00  0.00    +0.000 A 
ATOM      4  C   UNL     1      87.834  66.491  87.344  0.00  0.00    +0.000 A 
ATOM      5  C   UNL     1      87.837  67.886  87.369  0.00  0.00    +0.000 A 
ATOM      6  C   UNL     1      88.908  68.591  86.822  0.00  0.00    +0.000 A 
ATOM      7  C   UNL     1      89.980  67.904  86.247  0.00  0.00    +0.000 A 
ATOM      8  C   UNL     1      89.985  66.506  86.218  0.00  0.00    +0.000 A 
ATOM      9 CL   UNL     1      91.334  65.717  85.485  0.00  0.00    +0.000 Cl
ENDBRANCH   1   3
BRANCH   1  10
ATOM     10  N   UNL     1      89.284  63.736  87.934  0.00  0.00    +0.000 N 
ATOM     11  H   UNL     1      90.254  63.612  88.041  0.00  0.00    +0.000 HD
BRANCH  10  15
ATOM     12  C   UNL     1      86.105  63.679  90.825  0.00  0.00    +0.000 C 
ATOM     13  C   UNL     1      86.077  62.644  89.703  0.00  0.00    +0.000 C 
ATOM     14  C   UNL     1      87.004  63.032  88.554  0.00  0.00    +0.000 C 
ATOM     15  C   UNL     1      88.436  63.287  89.043  0.00  0.00    +0.000 C 
ATOM     16  C   UNL     1      88.451  64.334  90.165  0.00  0.00    +0.000 C 
ATOM     17  C   UNL     1      87.525  63.941  91.314  0.00  0.00    +0.000 C 
ENDBRANCH  10  15
ENDBRANCH   1  10
TORSDOF 3
ENDMDL
