REMARK  Name = *****
REMARK  4 active torsions:
REMARK  status: ('A' for Active; 'I' for Inactive)
REMARK    1  A    between atoms: C_6  and  C_7
REMARK    2  A    between atoms: C_7  and  C_8
REMARK    3  A    between atoms: C_8  and  O_10
REMARK    4  A    between atoms: O_10  and  C_11
REMARK                            x       y       z     vdW  Elec       q    Type
REMARK                         _______ _______ _______ _____ _____    ______ ____
ROOT
ATOM      1  C   UNL     1       4.864   0.934   0.372  0.00  0.00    +0.000 C 
ATOM      2  O   UNL     1       5.231   1.916   1.005  0.00  0.00    +0.000 OA
ENDROOT
BRANCH   1   3
ATOM      3  C   UNL     1       3.861  -0.073   0.881  0.00  0.00    +0.000 C 
BRANCH   3   9
ATOM      4  C   UNL     1       1.668   1.170   0.751  0.00  0.00    +0.000 A 
ATOM      5  C   UNL     1       0.405   1.375   0.192  0.00  0.00    +0.000 A 
ATOM      6  C   UNL     1      -0.042   0.544  -0.833  0.00  0.00    +0.000 A 
ATOM      7  C   UNL     1       0.765  -0.489  -1.304  0.00  0.00    +0.000 A 
ATOM      8  C   UNL     1       2.028  -0.696  -0.746  0.00  0.00    +0.000 A 
ATOM      9  C   UNL     1       2.488   0.129   0.290  0.00  0.00    +0.000 A 
ATOM     10 CL   UNL     1      -1.597   0.799  -1.523  0.00  0.00    +0.000 Cl
ENDBRANCH   3   9
ENDBRANCH   1   3
BRANCH   1  11
ATOM     11  O   UNL     1       5.271   0.567  -0.907  0.00  0.00    +0.000 OA
BRANCH  11  12
ATOM     12  C   UNL     1       6.153   1.479  -1.486  0.00  0.00    +0.000 A 
ATOM     13  C   UNL     1       7.515   1.408  -1.198  0.00  0.00    +0.000 A 
ATOM     14  C   UNL     1       8.389   2.298  -1.823  0.00  0.00    +0.000 A 
ATOM     15  C   UNL     1       7.892   3.232  -2.736  0.00  0.00    +0.000 A 
ATOM     16  C   UNL     1       6.529   3.282  -3.033  0.00  0.00    +0.000 A 
ATOM     17  C   UNL     1       5.651   2.395  -2.409  0.00  0.00    +0.000 A 
ATOM     18 CL   UNL     1       8.974   4.326  -3.508  0.00  0.00    +0.000 Cl
ENDBRANCH  11  12
ENDBRANCH   1  11
TORSDOF 4
