MODEL 1
REMARK VINA RESULT:      -4.3      0.000      0.000
REMARK  Name = *****
REMARK  3 active torsions:
REMARK  status: ('A' for Active; 'I' for Inactive)
REMARK    1  A    between atoms: C_4  and  C_7
REMARK    2  A    between atoms: C_7  and  S_8
REMARK    3  A    between atoms: S_8  and  C_9
REMARK                            x       y       z     vdW  Elec       q    Type
REMARK                         _______ _______ _______ _____ _____    ______ ____
ROOT
ATOM      1  C   UNL     1      89.190  67.778  86.433  0.00  0.00    +0.000 C 
ATOM      2  C   UNL     1      89.872  66.619  86.409  0.00  0.00    +0.000 C 
ATOM      3  C   UNL     1      88.715  65.790  86.952  0.00  0.00    +0.000 C 
ATOM      4  C   UNL     1      87.920  67.144  86.990  0.00  0.00    +0.000 C 
ATOM      5  F   UNL     1      86.809  67.197  86.212  0.00  0.00    +0.000 F 
ATOM      6  F   UNL     1      87.514  67.553  88.221  0.00  0.00    +0.000 F 
ATOM      7  F   UNL     1      88.886  65.185  88.157  0.00  0.00    +0.000 F 
ATOM      8  F   UNL     1      88.190  64.834  86.140  0.00  0.00    +0.000 F 
ATOM      9  F   UNL     1      91.092  66.307  86.044  0.00  0.00    +0.000 F 
ENDROOT
BRANCH   1  10
ATOM     10  S   UNL     1      89.668  69.394  85.978  0.00  0.00    +0.000 S 
BRANCH  10  11
ATOM     11  C   UNL     1      89.244  70.257  87.524  0.00  0.00    +0.000 C 
BRANCH  11  15
ATOM     12  C   UNL     1      85.242  71.861  87.376  0.00  0.00    +0.000 A 
ATOM     13  C   UNL     1      85.858  71.637  88.606  0.00  0.00    +0.000 A 
ATOM     14  C   UNL     1      87.153  71.120  88.656  0.00  0.00    +0.000 A 
ATOM     15  C   UNL     1      87.848  70.827  87.473  0.00  0.00    +0.000 A 
ATOM     16  C   UNL     1      87.214  71.048  86.242  0.00  0.00    +0.000 A 
ATOM     17  C   UNL     1      85.918  71.565  86.194  0.00  0.00    +0.000 A 
ENDBRANCH  11  15
ENDBRANCH  10  11
ENDBRANCH   1  10
TORSDOF 3
ENDMDL
