MODEL 1
REMARK VINA RESULT:      -3.9      0.000      0.000
REMARK  Name = *****
REMARK  3 active torsions:
REMARK  status: ('A' for Active; 'I' for Inactive)
REMARK    1  A    between atoms: C_4  and  O_6
REMARK    2  A    between atoms: O_6  and  C_7
REMARK    3  A    between atoms: C_7  and  C_9
REMARK                            x       y       z     vdW  Elec       q    Type
REMARK                         _______ _______ _______ _____ _____    ______ ____
ROOT
ATOM      1  C   UNL     1      88.565  64.585  86.943  0.00  0.00    +0.000 C 
ATOM      2  O   UNL     1      89.257  63.840  86.266  0.00  0.00    +0.000 OA
ENDROOT
BRANCH   1   3
ATOM      3  C   UNL     1      88.714  66.066  86.946  0.00  0.00    +0.000 A 
ATOM      4  C   UNL     1      87.782  66.915  87.562  0.00  0.00    +0.000 A 
ATOM      5  C   UNL     1      87.971  68.302  87.535  0.00  0.00    +0.000 A 
ATOM      6  C   UNL     1      89.087  68.839  86.896  0.00  0.00    +0.000 A 
ATOM      7  C   UNL     1      90.018  68.005  86.281  0.00  0.00    +0.000 A 
ATOM      8  C   UNL     1      89.833  66.620  86.306  0.00  0.00    +0.000 A 
ATOM      9 CL   UNL     1      89.314  70.544  86.867  0.00  0.00    +0.000 Cl
ENDBRANCH   1   3
BRANCH   1  10
ATOM     10  O   UNL     1      87.569  64.207  87.780  0.00  0.00    +0.000 OA
BRANCH  10  14
ATOM     11  C   UNL     1      87.705  64.320  90.736  0.00  0.00    +0.000 C 
ATOM     12  C   UNL     1      86.358  63.656  90.449  0.00  0.00    +0.000 C 
ATOM     13  C   UNL     1      86.621  62.614  89.363  0.00  0.00    +0.000 C 
ATOM     14  C   UNL     1      87.877  63.109  88.655  0.00  0.00    +0.000 C 
ATOM     15  C   UNL     1      88.716  63.643  89.811  0.00  0.00    +0.000 C 
ENDBRANCH  10  14
ENDBRANCH   1  10
TORSDOF 3
ENDMDL
