MODEL 1
REMARK VINA RESULT:      -4.4      0.000      0.000
REMARK  Name = *****
REMARK  4 active torsions:
REMARK  status: ('A' for Active; 'I' for Inactive)
REMARK    1  A    between atoms: C_1  and  C_2
REMARK    2  A    between atoms: C_5  and  C_8
REMARK    3  A    between atoms: C_9  and  C_10
REMARK    4  A    between atoms: C_10  and  C_11
REMARK                            x       y       z     vdW  Elec       q    Type
REMARK                         _______ _______ _______ _____ _____    ______ ____
ROOT
ATOM      1  C   UNL     1      89.822  66.840  86.514  0.00  0.00    +0.000 C 
ATOM      2  C   UNL     1      88.738  66.089  86.771  0.00  0.00    +0.000 C 
ENDROOT
BRANCH   1   7
ATOM      3  C   UNL     1      89.787  72.156  84.218  0.00  0.00    +0.000 C 
ATOM      4  C   UNL     1      89.761  70.784  84.820  0.00  0.00    +0.000 A 
ATOM      5  C   UNL     1      89.619  70.616  86.202  0.00  0.00    +0.000 A 
ATOM      6  C   UNL     1      89.626  69.335  86.766  0.00  0.00    +0.000 A 
ATOM      7  C   UNL     1      89.775  68.200  85.959  0.00  0.00    +0.000 A 
ATOM      8  C   UNL     1      89.948  68.375  84.581  0.00  0.00    +0.000 A 
ATOM      9  C   UNL     1      89.941  69.654  84.016  0.00  0.00    +0.000 A 
ENDBRANCH   1   7
BRANCH   2  10
ATOM     10  C   UNL     1      88.797  64.692  87.329  0.00  0.00    +0.000 C 
BRANCH  10  11
ATOM     11  C   UNL     1      88.239  64.564  88.718  0.00  0.00    +0.000 A 
ATOM     12  C   UNL     1      88.767  63.866  89.787  0.00  0.00    +0.000 A 
ATOM     13  C   UNL     1      87.958  63.970  90.956  0.00  0.00    +0.000 A 
ATOM     14  C   UNL     1      86.840  64.742  90.740  0.00  0.00    +0.000 A 
ATOM     15  S   UNL     1      86.767  65.335  89.139  0.00  0.00    +0.000 S 
ENDBRANCH  10  11
ENDBRANCH   2  10
TORSDOF 3
ENDMDL
