MODEL 1
REMARK VINA RESULT:      -4.7      0.000      0.000
REMARK  Name = *****
REMARK  3 active torsions:
REMARK  status: ('A' for Active; 'I' for Inactive)
REMARK    1  A    between atoms: C_1  and  C_2
REMARK    2  A    between atoms: C_5  and  S_8
REMARK    3  A    between atoms: S_8  and  C_10
REMARK                            x       y       z     vdW  Elec       q    Type
REMARK                         _______ _______ _______ _____ _____    ______ ____
ROOT
ATOM      1  S   UNL     1      88.659  70.182  86.250  0.00  0.00    +0.000 S 
ATOM      2  O   UNL     1      89.669  70.783  87.184  0.00  0.00    +0.000 OA
ENDROOT
BRANCH   1   7
ATOM      3  C   UNL     1      83.325  72.934  87.444  0.00  0.00    +0.000 C 
ATOM      4  C   UNL     1      84.646  72.284  87.156  0.00  0.00    +0.000 A 
ATOM      5  C   UNL     1      85.089  72.128  85.838  0.00  0.00    +0.000 A 
ATOM      6  C   UNL     1      86.306  71.494  85.570  0.00  0.00    +0.000 A 
ATOM      7  C   UNL     1      87.087  70.996  86.619  0.00  0.00    +0.000 A 
ATOM      8  C   UNL     1      86.643  71.143  87.936  0.00  0.00    +0.000 A 
ATOM      9  C   UNL     1      85.427  71.777  88.202  0.00  0.00    +0.000 A 
ENDBRANCH   1   7
BRANCH   1  10
ATOM     10  C   UNL     1      88.311  68.553  86.908  0.00  0.00    +0.000 C 
ATOM     11  C   UNL     1      88.980  67.477  86.463  0.00  0.00    +0.000 C 
ATOM     12  C   UNL     1      90.083  67.462  85.430  0.00  0.00    +0.000 C 
ATOM     13  C   UNL     1      90.772  66.123  85.653  0.00  0.00    +0.000 C 
ATOM     14  C   UNL     1      89.650  65.195  86.084  0.00  0.00    +0.000 C 
ATOM     15  C   UNL     1      88.766  66.099  86.901  0.00  0.00    +0.000 C 
ATOM     16  C   UNL     1      87.988  65.666  87.900  0.00  0.00    +0.000 C 
ENDBRANCH   1  10
TORSDOF 2
ENDMDL
