MODEL 1
REMARK VINA RESULT:      -4.9      0.000      0.000
REMARK  Name = *****
REMARK  2 active torsions:
REMARK  status: ('A' for Active; 'I' for Inactive)
REMARK    1  A    between atoms: C_4  and  C_7
REMARK    2  A    between atoms: C_8  and  C_9
REMARK                            x       y       z     vdW  Elec       q    Type
REMARK                         _______ _______ _______ _____ _____    ______ ____
ROOT
ATOM      1  C   UNL     1     103.172 126.028  81.131  0.00  0.00    +0.000 C 
ATOM      2  C   UNL     1     102.344 125.913  82.182  0.00  0.00    +0.000 C 
ATOM      3  F   UNL     1     103.117 127.139  80.359  0.00  0.00    +0.000 F 
ENDROOT
BRANCH   2   4
ATOM      4  C   UNL     1     101.359 126.923  82.600  0.00  0.00    +0.000 A 
ATOM      5  C   UNL     1      99.980 126.758  82.401  0.00  0.00    +0.000 A 
ATOM      6  C   UNL     1      99.077 127.725  82.848  0.00  0.00    +0.000 A 
ATOM      7  C   UNL     1      99.549 128.853  83.505  0.00  0.00    +0.000 A 
ATOM      8  C   UNL     1     100.909 129.032  83.728  0.00  0.00    +0.000 A 
ATOM      9  C   UNL     1     101.812 128.064  83.280  0.00  0.00    +0.000 A 
ATOM     10  F   UNL     1      98.683 129.780  83.935  0.00  0.00    +0.000 F 
ENDBRANCH   2   4
BRANCH   1  14
ATOM     11  C   UNL     1     105.943 122.960  79.985  0.00  0.00    +0.000 A 
ATOM     12  C   UNL     1     105.068 122.771  81.051  0.00  0.00    +0.000 A 
ATOM     13  C   UNL     1     104.173 123.781  81.410  0.00  0.00    +0.000 A 
ATOM     14  C   UNL     1     104.146 125.002  80.717  0.00  0.00    +0.000 A 
ATOM     15  C   UNL     1     105.024 125.171  79.635  0.00  0.00    +0.000 A 
ATOM     16  C   UNL     1     105.919 124.158  79.275  0.00  0.00    +0.000 A 
ENDBRANCH   1  14
TORSDOF 2
ENDMDL
