MODEL 1
REMARK VINA RESULT:      -4.6      0.000      0.000
REMARK  Name = *****
REMARK  3 active torsions:
REMARK  status: ('A' for Active; 'I' for Inactive)
REMARK    1  A    between atoms: C_4  and  C_7
REMARK    2  A    between atoms: C_8  and  C_9
REMARK    3  A    between atoms: C_9  and  C_10
REMARK                            x       y       z     vdW  Elec       q    Type
REMARK                         _______ _______ _______ _____ _____    ______ ____
ROOT
ATOM      1  C   UNL     1      87.058  71.040  88.664  0.00  0.00    +0.000 C 
ATOM      2  C   UNL     1      87.365  69.756  88.912  0.00  0.00    +0.000 C 
ENDROOT
BRANCH   1   6
ATOM      3  C   UNL     1      84.609  72.355  85.437  0.00  0.00    +0.000 A 
ATOM      4  C   UNL     1      85.875  71.829  85.185  0.00  0.00    +0.000 A 
ATOM      5  C   UNL     1      86.675  71.394  86.243  0.00  0.00    +0.000 A 
ATOM      6  C   UNL     1      86.211  71.484  87.558  0.00  0.00    +0.000 A 
ATOM      7  C   UNL     1      84.937  72.010  87.806  0.00  0.00    +0.000 A 
ATOM      8  C   UNL     1      84.140  72.445  86.747  0.00  0.00    +0.000 A 
ENDBRANCH   1   6
BRANCH   2   9
ATOM      9  C   UNL     1      86.872  68.555  88.151  0.00  0.00    +0.000 C 
ATOM     10 BR   UNL     1      85.938  67.382  89.418  0.00  0.00    +0.000 Br
BRANCH   9  11
ATOM     11  C   UNL     1      87.960  67.767  87.456  0.00  0.00    +0.000 A 
ATOM     12  C   UNL     1      88.016  66.363  87.500  0.00  0.00    +0.000 A 
ATOM     13  C   UNL     1      89.041  65.667  86.856  0.00  0.00    +0.000 A 
ATOM     14  C   UNL     1      90.027  66.363  86.160  0.00  0.00    +0.000 A 
ATOM     15  C   UNL     1      89.989  67.754  86.106  0.00  0.00    +0.000 A 
ATOM     16  C   UNL     1      88.964  68.450  86.749  0.00  0.00    +0.000 A 
ENDBRANCH   9  11
ENDBRANCH   2   9
TORSDOF 3
ENDMDL
