REMARK  Name = *****
REMARK  4 active torsions:
REMARK  status: ('A' for Active; 'I' for Inactive)
REMARK    1  A    between atoms: C_4  and  O_7
REMARK    2  A    between atoms: O_7  and  C_8
REMARK    3  A    between atoms: C_8  and  C_9
REMARK    4  A    between atoms: C_14  and  C_15
REMARK                            x       y       z     vdW  Elec       q    Type
REMARK                         _______ _______ _______ _____ _____    ______ ____
ROOT
ATOM      1  C   UNL     1      -5.001  -0.001  -0.437  0.00  0.00    +0.000 A 
ATOM      2  C   UNL     1      -5.262   1.303   0.027  0.00  0.00    +0.000 A 
ATOM      3  C   UNL     1      -6.515   1.895  -0.142  0.00  0.00    +0.000 A 
ATOM      4  C   UNL     1      -7.537   1.193  -0.768  0.00  0.00    +0.000 A 
ATOM      5  C   UNL     1      -7.310  -0.105  -1.224  0.00  0.00    +0.000 A 
ATOM      6  C   UNL     1      -6.050  -0.712  -1.066  0.00  0.00    +0.000 A 
ENDROOT
BRANCH   6   7
ATOM      7  C   UNL     1      -5.865  -2.118  -1.562  0.00  0.00    +0.000 C 
ATOM      8  O   UNL     1      -5.075  -2.842  -0.960  0.00  0.00    +0.000 OA
ATOM      9 CL   UNL     1      -6.765  -2.653  -2.969  0.00  0.00    +0.000 Cl
ENDBRANCH   6   7
BRANCH   1  10
ATOM     10  C   UNL     1      -3.624  -0.621  -0.245  0.00  0.00    +0.000 C 
BRANCH  10  11
ATOM     11  O   UNL     1      -2.660   0.359   0.154  0.00  0.00    +0.000 OA
BRANCH  11  15
ATOM     12  C   UNL     1       1.270  -0.741   0.987  0.00  0.00    +0.000 A 
ATOM     13  C   UNL     1       0.411  -1.707   0.465  0.00  0.00    +0.000 A 
ATOM     14  C   UNL     1      -0.919  -1.384   0.174  0.00  0.00    +0.000 A 
ATOM     15  C   UNL     1      -1.392  -0.091   0.402  0.00  0.00    +0.000 A 
ATOM     16  C   UNL     1      -0.523   0.873   0.923  0.00  0.00    +0.000 A 
ATOM     17  C   UNL     1       0.803   0.550   1.217  0.00  0.00    +0.000 A 
ENDBRANCH  11  15
ENDBRANCH  10  11
ENDBRANCH   1  10
TORSDOF 4
