MODEL 1
REMARK VINA RESULT:      -4.5      0.000      0.000
REMARK  Name = *****
REMARK  6 active torsions:
REMARK  status: ('A' for Active; 'I' for Inactive)
REMARK    1  A    between atoms: C_1  and  N_2
REMARK    2  A    between atoms: N_2  and  C_3
REMARK    3  A    between atoms: N_2  and  C_4
REMARK    4  A    between atoms: C_7  and  S_10
REMARK    5  A    between atoms: S_10  and  C_11
REMARK    6  A    between atoms: C_11  and  C_13
REMARK                            x       y       z     vdW  Elec       q    Type
REMARK                         _______ _______ _______ _____ _____    ______ ____
ROOT
ATOM      1  C   UNL     1      88.738  65.719  86.969  0.00  0.00    +0.000 A 
ATOM      2  C   UNL     1      89.838  66.359  86.371  0.00  0.00    +0.000 A 
ATOM      3  C   UNL     1      89.947  67.756  86.297  0.00  0.00    +0.000 A 
ATOM      4  C   UNL     1      88.949  68.572  86.823  0.00  0.00    +0.000 A 
ATOM      5  C   UNL     1      87.861  67.968  87.448  0.00  0.00    +0.000 A 
ATOM      6  C   UNL     1      87.763  66.569  87.519  0.00  0.00    +0.000 A 
ENDROOT
BRANCH   1   8
ATOM      7  C   UNL     1      88.170  63.588  85.882  0.00  0.00    +0.000 C 
ATOM      8  N   UNL     1      88.649  64.323  87.052  0.00  0.00    +0.000 N 
ATOM      9  C   UNL     1      88.358  63.704  88.344  0.00  0.00    +0.000 C 
ENDBRANCH   1   8
BRANCH   4  10
ATOM     10  S   UNL     1      89.076  70.345  86.792  0.00  0.00    +0.000 S 
BRANCH  10  11
ATOM     11  C   UNL     1      87.765  70.810  85.708  0.00  0.00    +0.000 C 
ATOM     12  O   UNL     1      87.849  70.667  84.493  0.00  0.00    +0.000 OA
BRANCH  11  13
ATOM     13  C   UNL     1      86.518  71.381  86.311  0.00  0.00    +0.000 A 
ATOM     14  C   UNL     1      85.458  71.913  85.563  0.00  0.00    +0.000 A 
ATOM     15  C   UNL     1      84.325  72.426  86.204  0.00  0.00    +0.000 A 
ATOM     16  C   UNL     1      84.239  72.412  87.594  0.00  0.00    +0.000 A 
ATOM     17  C   UNL     1      85.284  71.887  88.349  0.00  0.00    +0.000 A 
ATOM     18  C   UNL     1      86.417  71.376  87.713  0.00  0.00    +0.000 A 
ENDBRANCH  11  13
ENDBRANCH  10  11
ENDBRANCH   4  10
TORSDOF 4
ENDMDL
