MODEL 1
REMARK VINA RESULT:      -4.5      0.000      0.000
REMARK  Name = *****
REMARK  3 active torsions:
REMARK  status: ('A' for Active; 'I' for Inactive)
REMARK    1  A    between atoms: C_4  and  O_8
REMARK    2  A    between atoms: O_8  and  C_9
REMARK    3  A    between atoms: C_9  and  C_11
REMARK                            x       y       z     vdW  Elec       q    Type
REMARK                         _______ _______ _______ _____ _____    ______ ____
ROOT
ATOM      1  O   UNL     1     102.581 127.380  83.537  0.00  0.00    +0.000 OA
ENDROOT
BRANCH   1   5
ATOM      2  C   UNL     1      98.679 128.791  82.997  0.00  0.00    +0.000 A 
ATOM      3  C   UNL     1      99.043 127.528  82.526  0.00  0.00    +0.000 A 
ATOM      4  C   UNL     1     100.345 127.075  82.709  0.00  0.00    +0.000 A 
ATOM      5  C   UNL     1     101.291 127.876  83.346  0.00  0.00    +0.000 A 
ATOM      6  C   UNL     1     100.928 129.131  83.833  0.00  0.00    +0.000 A 
ATOM      7  C   UNL     1      99.620 129.591  83.654  0.00  0.00    +0.000 A 
ATOM      8 CL   UNL     1     102.058 130.131  84.668  0.00  0.00    +0.000 Cl
ATOM      9  F   UNL     1     100.682 125.854  82.269  0.00  0.00    +0.000 F 
ENDBRANCH   1   5
BRANCH   1  10
ATOM     10  C   UNL     1     103.363 127.559  82.413  0.00  0.00    +0.000 C 
ATOM     11  O   UNL     1     103.698 128.621  81.909  0.00  0.00    +0.000 OA
BRANCH  10  12
ATOM     12  C   UNL     1     103.766 126.234  81.861  0.00  0.00    +0.000 A 
ATOM     13  C   UNL     1     104.009 126.023  80.496  0.00  0.00    +0.000 A 
ATOM     14  C   UNL     1     104.382 124.756  80.037  0.00  0.00    +0.000 A 
ATOM     15  C   UNL     1     104.512 123.698  80.937  0.00  0.00    +0.000 A 
ATOM     16  C   UNL     1     104.271 123.896  82.295  0.00  0.00    +0.000 A 
ATOM     17  C   UNL     1     103.897 125.162  82.756  0.00  0.00    +0.000 A 
ATOM     18 CL   UNL     1     104.971 122.142  80.367  0.00  0.00    +0.000 Cl
ENDBRANCH  10  12
ENDBRANCH   1  10
TORSDOF 3
ENDMDL
