REMARK  Name = *****
REMARK  1 active torsions:
REMARK  status: ('A' for Active; 'I' for Inactive)
REMARK    1  A    between atoms: C_10  and  C_11
REMARK                            x       y       z     vdW  Elec       q    Type
REMARK                         _______ _______ _______ _____ _____    ______ ____
ROOT
ATOM      1  C   UNL     1      -2.217  -0.663   0.398  0.00  0.00    +0.000 C 
ATOM      2  C   UNL     1      -2.206   0.699  -0.299  0.00  0.00    +0.000 C 
ATOM      3  C   UNL     1      -0.934   1.499   0.024  0.00  0.00    +0.000 C 
ATOM      4  C   UNL     1       0.289   0.639  -0.009  0.00  0.00    +0.000 C 
ATOM      5  C   UNL     1       0.251  -0.701  -0.029  0.00  0.00    +0.000 C 
ATOM      6  C   UNL     1      -0.999  -1.513   0.015  0.00  0.00    +0.000 C 
ATOM      7  C   UNL     1       1.611  -1.314  -0.096  0.00  0.00    +0.000 C 
ATOM      8  C   UNL     1       2.553  -0.104  -0.124  0.00  0.00    +0.000 C 
ATOM      9  C   UNL     1       1.657   1.112  -0.044  0.00  0.00    +0.000 C 
ATOM     10  C   UNL     1       2.049   2.395  -0.004  0.00  0.00    +0.000 C 
ENDROOT
BRANCH  10  11
ATOM     11  C   UNL     1       3.453   2.804  -0.042  0.00  0.00    +0.000 A 
ATOM     12  C   UNL     1       4.095   3.002  -1.269  0.00  0.00    +0.000 A 
ATOM     13  C   UNL     1       5.437   3.385  -1.304  0.00  0.00    +0.000 A 
ATOM     14  C   UNL     1       6.142   3.570  -0.115  0.00  0.00    +0.000 A 
ATOM     15  C   UNL     1       5.506   3.372   1.111  0.00  0.00    +0.000 A 
ATOM     16  C   UNL     1       4.164   2.989   1.148  0.00  0.00    +0.000 A 
ENDBRANCH  10  11
TORSDOF 1
