MODEL 1
REMARK VINA RESULT:      -4.1      0.000      0.000
REMARK  Name = *****
REMARK  4 active torsions:
REMARK  status: ('A' for Active; 'I' for Inactive)
REMARK    1  A    between atoms: C_1  and  S_2
REMARK    2  A    between atoms: S_2  and  C_3
REMARK    3  A    between atoms: C_3  and  C_9
REMARK    4  A    between atoms: C_10  and  C_11
REMARK                            x       y       z     vdW  Elec       q    Type
REMARK                         _______ _______ _______ _____ _____    ______ ____
ROOT
ATOM      1  C   UNL     1     104.507 125.331  81.960  0.00  0.00    +0.000 C 
ATOM      2  S   UNL     1     104.352 124.926  80.172  0.00  0.00    +0.000 S 
ATOM      3  C   UNL     1     105.661 123.683  79.981  0.00  0.00    +0.000 C 
ATOM      4  C   UNL     1     105.453 122.456  80.852  0.00  0.00    +0.000 C 
ATOM      5  C   UNL     1     105.565 122.738  82.342  0.00  0.00    +0.000 C 
ATOM      6  S   UNL     1     104.240 123.807  82.963  0.00  0.00    +0.000 S 
ENDROOT
BRANCH   1   8
ATOM      7  C   UNL     1     106.284 127.322  81.030  0.00  0.00    +0.000 C 
ATOM      8  S   UNL     1     106.139 126.093  82.354  0.00  0.00    +0.000 S 
ENDBRANCH   1   8
BRANCH   1   9
ATOM      9  C   UNL     1     103.380 126.290  82.322  0.00  0.00    +0.000 C 
ATOM     10  C   UNL     1     102.057 126.049  82.217  0.00  0.00    +0.000 C 
BRANCH  10  11
ATOM     11  C   UNL     1     101.011 127.007  82.598  0.00  0.00    +0.000 A 
ATOM     12  C   UNL     1      99.652 126.767  82.357  0.00  0.00    +0.000 A 
ATOM     13  C   UNL     1      98.686 127.692  82.761  0.00  0.00    +0.000 A 
ATOM     14  C   UNL     1      99.067 128.859  83.418  0.00  0.00    +0.000 A 
ATOM     15  C   UNL     1     100.414 129.101  83.679  0.00  0.00    +0.000 A 
ATOM     16  C   UNL     1     101.381 128.176  83.275  0.00  0.00    +0.000 A 
ENDBRANCH  10  11
ENDBRANCH   1   9
TORSDOF 3
ENDMDL
