MODEL 1
REMARK VINA RESULT:      -4.7      0.000      0.000
REMARK  Name = *****
REMARK  5 active torsions:
REMARK  status: ('A' for Active; 'I' for Inactive)
REMARK    1  A    between atoms: C_1  and  C_2
REMARK    2  A    between atoms: C_4  and  C_8
REMARK    3  A    between atoms: C_8  and  O_9
REMARK    4  A    between atoms: O_9  and  C_10
REMARK    5  A    between atoms: C_10  and  C_12
REMARK                            x       y       z     vdW  Elec       q    Type
REMARK                         _______ _______ _______ _____ _____    ______ ____
ROOT
ATOM      1  O   UNL     1     103.526 125.158  80.056  0.00  0.00    +0.000 OA
ENDROOT
BRANCH   1   2
ATOM      2  C   UNL     1     104.690 124.468  80.073  0.00  0.00    +0.000 C 
ATOM      3  O   UNL     1     105.676 124.691  79.390  0.00  0.00    +0.000 OA
BRANCH   2   4
ATOM      4  C   UNL     1     104.625 123.370  81.076  0.00  0.00    +0.000 A 
ATOM      5  C   UNL     1     104.474 123.614  82.450  0.00  0.00    +0.000 A 
ATOM      6  C   UNL     1     104.415 122.547  83.351  0.00  0.00    +0.000 A 
ATOM      7  C   UNL     1     104.505 121.237  82.883  0.00  0.00    +0.000 A 
ATOM      8  C   UNL     1     104.653 120.982  81.521  0.00  0.00    +0.000 A 
ATOM      9  C   UNL     1     104.710 122.047  80.618  0.00  0.00    +0.000 A 
ATOM     10 CL   UNL     1     104.434 119.926  83.995  0.00  0.00    +0.000 Cl
ENDBRANCH   2   4
ENDBRANCH   1   2
BRANCH   1  11
ATOM     11  C   UNL     1     103.634 126.572  80.270  0.00  0.00    +0.000 C 
BRANCH  11  15
ATOM     12  C   UNL     1     102.866 129.679  84.171  0.00  0.00    +0.000 C 
ATOM     13  C   UNL     1     102.532 128.419  83.427  0.00  0.00    +0.000 A 
ATOM     14  C   UNL     1     103.212 128.091  82.246  0.00  0.00    +0.000 A 
ATOM     15  C   UNL     1     102.879 126.936  81.521  0.00  0.00    +0.000 A 
ATOM     16  C   UNL     1     101.861 126.102  82.000  0.00  0.00    +0.000 A 
ATOM     17  C   UNL     1     101.171 126.429  83.167  0.00  0.00    +0.000 A 
ATOM     18  C   UNL     1     101.499 127.587  83.873  0.00  0.00    +0.000 A 
ENDBRANCH  11  15
ENDBRANCH   1  11
TORSDOF 4
ENDMDL
