MODEL 1
REMARK VINA RESULT:      -5.2      0.000      0.000
REMARK  Name = *****
REMARK  3 active torsions:
REMARK  status: ('A' for Active; 'I' for Inactive)
REMARK    1  A    between atoms: C_5  and  C_7
REMARK    2  A    between atoms: C_8  and  C_9
REMARK    3  A    between atoms: C_11  and  C_15
REMARK                            x       y       z     vdW  Elec       q    Type
REMARK                         _______ _______ _______ _____ _____    ______ ____
ROOT
ATOM      1  C   UNL     1     103.984 125.272  80.742  0.00  0.00    +0.000 A 
ATOM      2  C   UNL     1     104.019 123.954  81.218  0.00  0.00    +0.000 A 
ATOM      3  C   UNL     1     104.983 123.041  80.756  0.00  0.00    +0.000 A 
ATOM      4  C   UNL     1     105.902 123.459  79.781  0.00  0.00    +0.000 A 
ATOM      5  C   UNL     1     105.863 124.763  79.289  0.00  0.00    +0.000 A 
ATOM      6  C   UNL     1     104.906 125.662  79.764  0.00  0.00    +0.000 A 
ENDROOT
BRANCH   3   7
ATOM      7  C   UNL     1     105.000 121.623  81.264  0.00  0.00    +0.000 C 
ATOM      8  F   UNL     1     106.161 120.965  80.983  0.00  0.00    +0.000 F 
ATOM      9  F   UNL     1     104.849 121.552  82.615  0.00  0.00    +0.000 F 
ATOM     10  F   UNL     1     104.006 120.855  80.737  0.00  0.00    +0.000 F 
ENDBRANCH   3   7
BRANCH   1  12
ATOM     11  C   UNL     1     102.015 125.966  82.090  0.00  0.00    +0.000 C 
ATOM     12  C   UNL     1     102.975 126.240  81.191  0.00  0.00    +0.000 C 
BRANCH  11  17
ATOM     13  C   UNL     1     100.459 129.003  83.647  0.00  0.00    +0.000 A 
ATOM     14  C   UNL     1      99.120 128.747  83.382  0.00  0.00    +0.000 A 
ATOM     15  C   UNL     1      98.801 127.585  82.702  0.00  0.00    +0.000 A 
ATOM     16  N   UNL     1      99.715 126.683  82.281  0.00  0.00    +0.000 NA
ATOM     17  C   UNL     1     101.017 126.945  82.546  0.00  0.00    +0.000 A 
ATOM     18  C   UNL     1     101.424 128.090  83.224  0.00  0.00    +0.000 A 
ENDBRANCH  11  17
ENDBRANCH   1  12
TORSDOF 3
ENDMDL
