REMARK  Name = *****
REMARK  4 active torsions:
REMARK  status: ('A' for Active; 'I' for Inactive)
REMARK    1  A    between atoms: C_1  and  C_2
REMARK    2  A    between atoms: C_5  and  C_8
REMARK    3  A    between atoms: C_8  and  O_9
REMARK    4  A    between atoms: O_9  and  C_10
REMARK                            x       y       z     vdW  Elec       q    Type
REMARK                         _______ _______ _______ _____ _____    ______ ____
ROOT
ATOM      1  C   UNL     1      -3.342  -0.040  -0.026  0.00  0.00    +0.000 C 
ENDROOT
BRANCH   1   6
ATOM      2  C   UNL     1       2.483   0.084  -0.132  0.00  0.00    +0.000 C 
ATOM      3  C   UNL     1       0.984   0.055  -0.095  0.00  0.00    +0.000 A 
ATOM      4  C   UNL     1       0.291   0.144   1.118  0.00  0.00    +0.000 A 
ATOM      5  C   UNL     1      -1.105   0.116   1.139  0.00  0.00    +0.000 A 
ATOM      6  C   UNL     1      -1.834  -0.011  -0.051  0.00  0.00    +0.000 A 
ATOM      7  C   UNL     1      -1.140  -0.078  -1.265  0.00  0.00    +0.000 A 
ATOM      8  C   UNL     1       0.257  -0.050  -1.286  0.00  0.00    +0.000 A 
ENDBRANCH   1   6
BRANCH   1   9
ATOM      9  O   UNL     1      -3.819   1.303  -0.071  0.00  0.00    +0.000 OA
BRANCH   9  10
ATOM     10  C   UNL     1      -5.174   1.485  -0.043  0.00  0.00    +0.000 A 
ATOM     11  C   UNL     1      -6.139   0.479   0.011  0.00  0.00    +0.000 A 
ATOM     12  C   UNL     1      -7.493   0.820   0.035  0.00  0.00    +0.000 A 
ATOM     13  C   UNL     1      -7.896   2.153   0.004  0.00  0.00    +0.000 A 
ATOM     14  C   UNL     1      -6.935   3.160  -0.051  0.00  0.00    +0.000 A 
ATOM     15  C   UNL     1      -5.580   2.823  -0.075  0.00  0.00    +0.000 A 
ATOM     16 CL   UNL     1      -8.682  -0.425   0.103  0.00  0.00    +0.000 Cl
ENDBRANCH   9  10
ENDBRANCH   1   9
TORSDOF 3
