MODEL 1
REMARK VINA RESULT:      -3.5      0.000      0.000
REMARK  Name = *****
REMARK  4 active torsions:
REMARK  status: ('A' for Active; 'I' for Inactive)
REMARK    1  A    between atoms: C_3  and  S_8
REMARK    2  A    between atoms: S_8  and  C_9
REMARK    3  A    between atoms: C_9  and  S_10
REMARK    4  A    between atoms: S_10  and  C_11
REMARK                            x       y       z     vdW  Elec       q    Type
REMARK                         _______ _______ _______ _____ _____    ______ ____
ROOT
ATOM      1  C   UNL     1      90.065  69.863  83.170  0.00  0.00    +0.000 C 
ENDROOT
BRANCH   1   2
ATOM      2  S   UNL     1      89.203  71.382  83.687  0.00  0.00    +0.000 S 
BRANCH   2   5
ATOM      3  C   UNL     1      87.035  70.718  87.047  0.00  0.00    +0.000 A 
ATOM      4  C   UNL     1      87.425  71.043  85.747  0.00  0.00    +0.000 A 
ATOM      5  C   UNL     1      88.772  70.966  85.368  0.00  0.00    +0.000 A 
ATOM      6  C   UNL     1      89.721  70.533  86.303  0.00  0.00    +0.000 A 
ATOM      7  C   UNL     1      89.331  70.209  87.604  0.00  0.00    +0.000 A 
ATOM      8  C   UNL     1      87.992  70.307  87.965  0.00  0.00    +0.000 A 
ATOM      9  F   UNL     1      87.620  69.994  89.213  0.00  0.00    +0.000 F 
ENDBRANCH   2   5
ENDBRANCH   1   2
BRANCH   1  10
ATOM     10  S   UNL     1      88.854  68.540  82.850  0.00  0.00    +0.000 S 
BRANCH  10  11
ATOM     11  C   UNL     1      88.933  67.635  84.386  0.00  0.00    +0.000 A 
ATOM     12  C   UNL     1      87.740  67.411  85.087  0.00  0.00    +0.000 A 
ATOM     13  C   UNL     1      87.747  66.699  86.288  0.00  0.00    +0.000 A 
ATOM     14  C   UNL     1      88.946  66.203  86.782  0.00  0.00    +0.000 A 
ATOM     15  C   UNL     1      90.137  66.402  86.094  0.00  0.00    +0.000 A 
ATOM     16  C   UNL     1      90.131  67.113  84.891  0.00  0.00    +0.000 A 
ATOM     17  F   UNL     1      88.954  65.520  87.933  0.00  0.00    +0.000 F 
ENDBRANCH  10  11
ENDBRANCH   1  10
TORSDOF 4
ENDMDL
