MODEL 1
REMARK VINA RESULT:      -4.3      0.000      0.000
REMARK  Name = *****
REMARK  4 active torsions:
REMARK  status: ('A' for Active; 'I' for Inactive)
REMARK    1  A    between atoms: C_1  and  C_2
REMARK    2  A    between atoms: C_7  and  C_8
REMARK    3  A    between atoms: C_8  and  O_9
REMARK    4  A    between atoms: O_9  and  C_10
REMARK                            x       y       z     vdW  Elec       q    Type
REMARK                         _______ _______ _______ _____ _____    ______ ____
ROOT
ATOM      1  C   UNL     1     102.826 126.076  82.833  0.00  0.00    +0.000 C 
ENDROOT
BRANCH   1   8
ATOM      2  C   UNL     1     103.630 127.156  80.152  0.00  0.00    +0.000 C 
ATOM      3  C   UNL     1     104.036 125.778  80.600  0.00  0.00    +0.000 A 
ATOM      4  C   UNL     1     104.808 124.985  79.735  0.00  0.00    +0.000 A 
ATOM      5  C   UNL     1     105.206 123.701  80.102  0.00  0.00    +0.000 A 
ATOM      6  C   UNL     1     104.836 123.189  81.341  0.00  0.00    +0.000 A 
ATOM      7  C   UNL     1     104.077 123.968  82.215  0.00  0.00    +0.000 A 
ATOM      8  C   UNL     1     103.681 125.274  81.871  0.00  0.00    +0.000 A 
ENDBRANCH   1   8
BRANCH   1   9
ATOM      9  O   UNL     1     101.437 125.889  82.557  0.00  0.00    +0.000 OA
BRANCH   9  10
ATOM     10  C   UNL     1     100.581 126.817  83.227  0.00  0.00    +0.000 C 
ATOM     11  C   UNL     1      99.270 127.031  82.460  0.00  0.00    +0.000 C 
ATOM     12  C   UNL     1      98.429 128.149  83.066  0.00  0.00    +0.000 C 
ATOM     13  C   UNL     1      99.218 129.450  83.186  0.00  0.00    +0.000 C 
ATOM     14  C   UNL     1     100.517 129.245  83.957  0.00  0.00    +0.000 C 
ATOM     15  C   UNL     1     101.358 128.131  83.345  0.00  0.00    +0.000 C 
ENDBRANCH   9  10
ENDBRANCH   1   9
TORSDOF 3
ENDMDL
