REMARK  Name = *****
REMARK  2 active torsions:
REMARK  status: ('A' for Active; 'I' for Inactive)
REMARK    1  A    between atoms: C_3  and  N_9
REMARK    2  A    between atoms: C_10  and  C_11
REMARK                            x       y       z     vdW  Elec       q    Type
REMARK                         _______ _______ _______ _____ _____    ______ ____
ROOT
ATOM      1  N   UNL     1      -2.444  -1.793   0.318  0.00  0.00    +0.000 NA
ATOM      2  C   UNL     1      -2.611  -2.929  -0.281  0.00  0.00    +0.000 C 
ENDROOT
BRANCH   1   5
ATOM      3  C   UNL     1       0.749  -0.161   1.221  0.00  0.00    +0.000 A 
ATOM      4  C   UNL     1      -0.483  -0.814   1.318  0.00  0.00    +0.000 A 
ATOM      5  C   UNL     1      -1.194  -1.164   0.166  0.00  0.00    +0.000 A 
ATOM      6  C   UNL     1      -0.652  -0.821  -1.085  0.00  0.00    +0.000 A 
ATOM      7  C   UNL     1       0.574  -0.171  -1.192  0.00  0.00    +0.000 A 
ATOM      8  C   UNL     1       1.264   0.151  -0.033  0.00  0.00    +0.000 A 
ATOM      9  F   UNL     1       2.444   0.778  -0.121  0.00  0.00    +0.000 F 
ATOM     10  F   UNL     1      -1.314  -1.127  -2.212  0.00  0.00    +0.000 F 
ENDBRANCH   1   5
BRANCH   2  11
ATOM     11  C   UNL     1      -3.887  -3.659  -0.201  0.00  0.00    +0.000 A 
ATOM     12  C   UNL     1      -3.997  -4.899  -0.829  0.00  0.00    +0.000 A 
ATOM     13  C   UNL     1      -5.189  -5.620  -0.777  0.00  0.00    +0.000 A 
ATOM     14  C   UNL     1      -6.281  -5.091  -0.089  0.00  0.00    +0.000 A 
ATOM     15  C   UNL     1      -6.166  -3.851   0.536  0.00  0.00    +0.000 A 
ATOM     16  C   UNL     1      -4.980  -3.127   0.489  0.00  0.00    +0.000 A 
ATOM     17  F   UNL     1      -7.218  -3.350   1.195  0.00  0.00    +0.000 F 
ATOM     18  F   UNL     1      -2.956  -5.424  -1.492  0.00  0.00    +0.000 F 
ENDBRANCH   2  11
TORSDOF 2
