MODEL 1
REMARK VINA RESULT:      -4.8      0.000      0.000
REMARK  Name = *****
REMARK  5 active torsions:
REMARK  status: ('A' for Active; 'I' for Inactive)
REMARK    1  A    between atoms: C_1  and  O_2
REMARK    2  A    between atoms: O_2  and  C_3
REMARK    3  A    between atoms: C_3  and  C_5
REMARK    4  A    between atoms: C_10  and  C_11
REMARK    5  A    between atoms: C_12  and  C_13
REMARK                            x       y       z     vdW  Elec       q    Type
REMARK                         _______ _______ _______ _____ _____    ______ ____
ROOT
ATOM      1  C   UNL     1      99.647 128.702  83.646  0.00  0.00    +0.000 A 
ATOM      2  C   UNL     1      98.962 129.814  84.162  0.00  0.00    +0.000 A 
ATOM      3  C   UNL     1      99.669 130.909  84.663  0.00  0.00    +0.000 A 
ATOM      4  C   UNL     1     101.062 130.898  84.653  0.00  0.00    +0.000 A 
ATOM      5  C   UNL     1     101.749 129.794  84.141  0.00  0.00    +0.000 A 
ATOM      6  C   UNL     1     101.051 128.690  83.635  0.00  0.00    +0.000 A 
ENDROOT
BRANCH   1   7
ATOM      7  C   UNL     1      98.866 127.542  83.151  0.00  0.00    +0.000 C 
ATOM      8  O   UNL     1      98.463 127.408  82.009  0.00  0.00    +0.000 OA
BRANCH   7  10
ATOM      9  C   UNL     1      97.299 126.393  84.443  0.00  0.00    +0.000 C 
ATOM     10  O   UNL     1      98.674 126.675  84.178  0.00  0.00    +0.000 OA
ENDBRANCH   7  10
ENDBRANCH   1   7
BRANCH   6  11
ATOM     11  C   UNL     1     101.809 127.602  83.091  0.00  0.00    +0.000 C 
ATOM     12  C   UNL     1     102.444 126.688  82.640  0.00  0.00    +0.000 C 
BRANCH  12  13
ATOM     13  C   UNL     1     103.201 125.592  82.122  0.00  0.00    +0.000 A 
ATOM     14  C   UNL     1     103.625 124.568  82.974  0.00  0.00    +0.000 A 
ATOM     15  C   UNL     1     104.369 123.498  82.466  0.00  0.00    +0.000 A 
ATOM     16  C   UNL     1     104.685 123.459  81.108  0.00  0.00    +0.000 A 
ATOM     17  C   UNL     1     104.265 124.478  80.254  0.00  0.00    +0.000 A 
ATOM     18  C   UNL     1     103.522 125.546  80.763  0.00  0.00    +0.000 A 
ATOM     19 CL   UNL     1     105.601 122.143  80.484  0.00  0.00    +0.000 Cl
ENDBRANCH  12  13
ENDBRANCH   6  11
TORSDOF 4
ENDMDL
