MODEL 1
REMARK VINA RESULT:      -4.4      0.000      0.000
REMARK  Name = *****
REMARK  3 active torsions:
REMARK  status: ('A' for Active; 'I' for Inactive)
REMARK    1  A    between atoms: C_4  and  N_7
REMARK    2  A    between atoms: N_7  and  C_8
REMARK    3  A    between atoms: C_8  and  C_9
REMARK                            x       y       z     vdW  Elec       q    Type
REMARK                         _______ _______ _______ _____ _____    ______ ____
ROOT
ATOM      1  C   UNL     1     102.673 125.875  82.564  0.00  0.00    +0.000 C 
ENDROOT
BRANCH   1   2
ATOM      2  C   UNL     1     103.614 125.215  81.633  0.00  0.00    +0.000 A 
ATOM      3  C   UNL     1     104.078 123.927  81.942  0.00  0.00    +0.000 A 
ATOM      4  C   UNL     1     104.966 123.271  81.087  0.00  0.00    +0.000 A 
ATOM      5  C   UNL     1     105.397 123.895  79.919  0.00  0.00    +0.000 A 
ATOM      6  C   UNL     1     104.940 125.176  79.604  0.00  0.00    +0.000 A 
ATOM      7  C   UNL     1     104.050 125.840  80.457  0.00  0.00    +0.000 A 
ATOM      8 CL   UNL     1     103.541 127.423  79.986  0.00  0.00    +0.000 Cl
ENDBRANCH   1   2
BRANCH   1   9
ATOM      9  N   UNL     1     101.409 125.953  82.307  0.00  0.00    +0.000 NA
BRANCH   9  13
ATOM     10  C   UNL     1      99.407 129.567  83.388  0.00  0.00    +0.000 C 
ATOM     11  C   UNL     1      98.562 128.305  83.242  0.00  0.00    +0.000 C 
ATOM     12  C   UNL     1      99.314 127.208  82.492  0.00  0.00    +0.000 C 
ATOM     13  C   UNL     1     100.665 126.900  83.149  0.00  0.00    +0.000 C 
ATOM     14  C   UNL     1     101.508 128.173  83.282  0.00  0.00    +0.000 C 
ATOM     15  C   UNL     1     100.758 129.270  84.032  0.00  0.00    +0.000 C 
ENDBRANCH   9  13
ENDBRANCH   1   9
TORSDOF 3
ENDMDL
