REMARK  Name = *****
REMARK  2 active torsions:
REMARK  status: ('A' for Active; 'I' for Inactive)
REMARK    1  A    between atoms: C_1  and  C_2
REMARK    2  A    between atoms: C_8  and  C_11
REMARK                            x       y       z     vdW  Elec       q    Type
REMARK                         _______ _______ _______ _____ _____    ______ ____
ROOT
ATOM      1  C   UNL     1       1.529  -0.482   1.924  0.00  0.00    +0.000 C 
ATOM      2  C   UNL     1       2.277  -0.213   0.672  0.00  0.00    +0.000 C 
ATOM      3  C   UNL     1       2.582  -1.075  -0.315  0.00  0.00    +0.000 C 
ATOM      4  C   UNL     1       3.320  -0.376  -1.336  0.00  0.00    +0.000 C 
ATOM      5  C   UNL     1       3.466   0.910  -0.982  0.00  0.00    +0.000 C 
ATOM      6  C   UNL     1       2.818   1.158   0.346  0.00  0.00    +0.000 C 
ATOM      7  C   UNL     1       4.174   1.937  -1.794  0.00  0.00    +0.000 C 
ATOM      8  C   UNL     1       4.441   1.426  -3.233  0.00  0.00    +0.000 C 
ATOM      9  C   UNL     1       4.907  -0.049  -3.236  0.00  0.00    +0.000 C 
ATOM     10  C   UNL     1       3.871  -0.979  -2.580  0.00  0.00    +0.000 C 
ENDROOT
BRANCH   8  11
ATOM     11  C   UNL     1       5.400   2.342  -3.975  0.00  0.00    +0.000 A 
ATOM     12  C   UNL     1       6.756   2.428  -3.626  0.00  0.00    +0.000 A 
ATOM     13  C   UNL     1       7.617   3.283  -4.318  0.00  0.00    +0.000 A 
ATOM     14  C   UNL     1       7.134   4.064  -5.365  0.00  0.00    +0.000 A 
ATOM     15  C   UNL     1       5.789   3.993  -5.719  0.00  0.00    +0.000 A 
ATOM     16  C   UNL     1       4.927   3.139  -5.029  0.00  0.00    +0.000 A 
ENDBRANCH   8  11
TORSDOF 1
