MODEL 1
REMARK VINA RESULT:      -4.4      0.000      0.000
REMARK  Name = *****
REMARK  3 active torsions:
REMARK  status: ('A' for Active; 'I' for Inactive)
REMARK    1  A    between atoms: C_4  and  O_7
REMARK    2  A    between atoms: O_7  and  C_8
REMARK    3  A    between atoms: C_8  and  C_10
REMARK                            x       y       z     vdW  Elec       q    Type
REMARK                         _______ _______ _______ _____ _____    ______ ____
ROOT
ATOM      1  C   UNL     1     101.780 126.011  82.863  0.00  0.00    +0.000 C 
ATOM      2  O   UNL     1     102.232 125.357  83.793  0.00  0.00    +0.000 OA
ENDROOT
BRANCH   1   3
ATOM      3  C   UNL     1     100.886 127.170  83.070  0.00  0.00    +0.000 A 
ATOM      4  C   UNL     1     101.408 128.304  83.712  0.00  0.00    +0.000 A 
ATOM      5  C   UNL     1     100.601 129.424  83.926  0.00  0.00    +0.000 A 
ATOM      6  C   UNL     1      99.274 129.423  83.494  0.00  0.00    +0.000 A 
ATOM      7  C   UNL     1      98.756 128.305  82.841  0.00  0.00    +0.000 A 
ATOM      8  C   UNL     1      99.562 127.186  82.629  0.00  0.00    +0.000 A 
ATOM      9  F   UNL     1      99.033 126.149  81.965  0.00  0.00    +0.000 F 
ENDBRANCH   1   3
BRANCH   1  10
ATOM     10  O   UNL     1     101.934 125.776  81.511  0.00  0.00    +0.000 OA
BRANCH  10  14
ATOM     11  C   UNL     1     105.791 126.286  79.989  0.00  0.00    +0.000 A 
ATOM     12  C   UNL     1     105.097 127.400  80.469  0.00  0.00    +0.000 A 
ATOM     13  C   UNL     1     103.804 127.255  80.969  0.00  0.00    +0.000 A 
ATOM     14  C   UNL     1     103.209 125.994  80.967  0.00  0.00    +0.000 A 
ATOM     15  C   UNL     1     103.901 124.874  80.512  0.00  0.00    +0.000 A 
ATOM     16  C   UNL     1     105.195 125.023  80.014  0.00  0.00    +0.000 A 
ENDBRANCH  10  14
ENDBRANCH   1  10
TORSDOF 3
ENDMDL
