MODEL 1
REMARK VINA RESULT:      -4.5      0.000      0.000
REMARK  Name = *****
REMARK  4 active torsions:
REMARK  status: ('A' for Active; 'I' for Inactive)
REMARK    1  A    between atoms: C_1  and  C_2
REMARK    2  A    between atoms: C_5  and  N_8
REMARK    3  A    between atoms: N_8  and  S_9
REMARK    4  A    between atoms: S_9  and  N_12
REMARK                            x       y       z     vdW  Elec       q    Type
REMARK                         _______ _______ _______ _____ _____    ______ ____
ROOT
ATOM      1  N   UNL     1      88.613  66.419  85.586  0.00  0.00    +0.000 N 
ATOM      2  H   UNL     1      88.373  65.913  84.776  0.00  0.00    +0.000 HD
ENDROOT
BRANCH   1   7
ATOM      3  C   UNL     1      86.254  64.894  90.603  0.00  0.00    +0.000 C 
ATOM      4  C   UNL     1      86.881  65.285  89.295  0.00  0.00    +0.000 A 
ATOM      5  C   UNL     1      88.093  64.732  88.855  0.00  0.00    +0.000 A 
ATOM      6  C   UNL     1      88.653  65.113  87.631  0.00  0.00    +0.000 A 
ATOM      7  C   UNL     1      88.023  66.073  86.839  0.00  0.00    +0.000 A 
ATOM      8  C   UNL     1      86.806  66.609  87.254  0.00  0.00    +0.000 A 
ATOM      9  C   UNL     1      86.242  66.225  88.474  0.00  0.00    +0.000 A 
ATOM     10 CL   UNL     1      88.947  63.563  89.800  0.00  0.00    +0.000 Cl
ENDBRANCH   1   7
BRANCH   1  11
ATOM     11  S   UNL     1      89.711  67.682  85.486  0.00  0.00    +0.000 S 
ATOM     12  O   UNL     1      90.744  67.414  86.462  0.00  0.00    +0.000 OA
ATOM     13  O   UNL     1      90.038  67.939  84.103  0.00  0.00    +0.000 OA
BRANCH  11  14
ATOM     14  N   UNL     1      88.778  68.978  86.083  0.00  0.00    +0.000 NA
ATOM     15  C   UNL     1      89.331  69.674  87.270  0.00  0.00    +0.000 C 
ATOM     16  C   UNL     1      88.220  69.912  88.289  0.00  0.00    +0.000 C 
ATOM     17  C   UNL     1      87.287  71.072  87.959  0.00  0.00    +0.000 C 
ATOM     18  C   UNL     1      86.622  70.984  86.587  0.00  0.00    +0.000 C 
ATOM     19  C   UNL     1      87.618  71.157  85.446  0.00  0.00    +0.000 C 
ATOM     20  C   UNL     1      88.301  69.870  84.990  0.00  0.00    +0.000 C 
ENDBRANCH  11  14
ENDBRANCH   1  11
TORSDOF 3
ENDMDL
