REMARK  Name = *****
REMARK  4 active torsions:
REMARK  status: ('A' for Active; 'I' for Inactive)
REMARK    1  A    between atoms: C_2  and  C_3
REMARK    2  A    between atoms: C_3  and  C_4
REMARK    3  A    between atoms: C_3  and  C_11
REMARK    4  A    between atoms: C_4  and  C_5
REMARK                            x       y       z     vdW  Elec       q    Type
REMARK                         _______ _______ _______ _____ _____    ______ ____
ROOT
ATOM      1  C   UNL     1       3.082   1.223  -0.455  0.00  0.00    +0.000 C 
ENDROOT
BRANCH   1   2
ATOM      2  C   UNL     1       4.597   1.077  -0.489  0.00  0.00    +0.000 A 
ATOM      3  C   UNL     1       5.461   0.742   0.539  0.00  0.00    +0.000 A 
ATOM      4  C   UNL     1       6.822   0.716   0.122  0.00  0.00    +0.000 A 
ATOM      5  C   UNL     1       6.958   1.034  -1.210  0.00  0.00    +0.000 A 
ATOM      6  S   UNL     1       5.453   1.361  -1.950  0.00  0.00    +0.000 S 
ENDBRANCH   1   2
BRANCH   1   8
ATOM      7  C   UNL     1       1.628  -0.847  -0.509  0.00  0.00    +0.000 C 
ATOM      8  C   UNL     1       2.393   0.020   0.168  0.00  0.00    +0.000 C 
ENDBRANCH   1   8
BRANCH   1   9
ATOM      9  C   UNL     1       2.713   2.540   0.278  0.00  0.00    +0.000 C 
BRANCH   9  10
ATOM     10  C   UNL     1       1.240   2.888   0.292  0.00  0.00    +0.000 A 
ATOM     11  C   UNL     1       0.581   3.109   1.510  0.00  0.00    +0.000 A 
ATOM     12  C   UNL     1      -0.773   3.450   1.535  0.00  0.00    +0.000 A 
ATOM     13  C   UNL     1      -1.483   3.576   0.343  0.00  0.00    +0.000 A 
ATOM     14  C   UNL     1      -0.838   3.369  -0.874  0.00  0.00    +0.000 A 
ATOM     15  C   UNL     1       0.518   3.034  -0.901  0.00  0.00    +0.000 A 
ENDBRANCH   9  10
ENDBRANCH   1   9
TORSDOF 4
