MODEL 1
REMARK VINA RESULT:      -5.1      0.000      0.000
REMARK  Name = *****
REMARK  4 active torsions:
REMARK  status: ('A' for Active; 'I' for Inactive)
REMARK    1  A    between atoms: C_1  and  C_2
REMARK    2  A    between atoms: C_5  and  C_8
REMARK    3  A    between atoms: C_8  and  C_9
REMARK    4  A    between atoms: C_16  and  C_18
REMARK                            x       y       z     vdW  Elec       q    Type
REMARK                         _______ _______ _______ _____ _____    ______ ____
ROOT
ATOM      1  C   UNL     1      89.200  68.568  86.949  0.00  0.00    +0.000 A 
ATOM      2  N   UNL     1      88.201  67.702  86.938  0.00  0.00    +0.000 NA
ATOM      3  C   UNL     1      88.765  66.570  86.403  0.00  0.00    +0.000 A 
ATOM      4  C   UNL     1      90.094  66.804  86.097  0.00  0.00    +0.000 A 
ATOM      5  O   UNL     1      90.382  68.093  86.438  0.00  0.00    +0.000 OA
ATOM      6  C   UNL     1      90.955  65.866  85.544  0.00  0.00    +0.000 A 
ATOM      7  C   UNL     1      90.399  64.606  85.288  0.00  0.00    +0.000 A 
ATOM      8  C   UNL     1      89.049  64.321  85.567  0.00  0.00    +0.000 A 
ATOM      9  C   UNL     1      88.221  65.306  86.141  0.00  0.00    +0.000 A 
ATOM     10  C   UNL     1      88.503  62.945  85.308  0.00  0.00    +0.000 C 
ENDROOT
BRANCH   1  11
ATOM     11  C   UNL     1      89.197  69.982  87.414  0.00  0.00    +0.000 C 
BRANCH  11  16
ATOM     12  C   UNL     1      84.023  72.612  86.874  0.00  0.00    +0.000 C 
ATOM     13  C   UNL     1      85.340  71.906  87.010  0.00  0.00    +0.000 A 
ATOM     14  C   UNL     1      86.113  71.623  85.878  0.00  0.00    +0.000 A 
ATOM     15  C   UNL     1      87.355  70.998  86.006  0.00  0.00    +0.000 A 
ATOM     16  C   UNL     1      87.849  70.648  87.270  0.00  0.00    +0.000 A 
ATOM     17  C   UNL     1      87.084  70.953  88.404  0.00  0.00    +0.000 A 
ATOM     18  C   UNL     1      85.842  71.579  88.275  0.00  0.00    +0.000 A 
ENDBRANCH  11  16
ENDBRANCH   1  11
TORSDOF 2
ENDMDL
