MODEL 1
REMARK VINA RESULT:      -5.3      0.000      0.000
REMARK  Name = *****
REMARK  5 active torsions:
REMARK  status: ('A' for Active; 'I' for Inactive)
REMARK    1  A    between atoms: C_1  and  O_2
REMARK    2  A    between atoms: O_2  and  N_3
REMARK    3  A    between atoms: N_3  and  C_4
REMARK    4  A    between atoms: C_11  and  C_12
REMARK    5  A    between atoms: C_12  and  C_13
REMARK                            x       y       z     vdW  Elec       q    Type
REMARK                         _______ _______ _______ _____ _____    ______ ____
ROOT
ATOM      1  C   UNL     1      99.225 127.394  82.713  0.00  0.00    +0.000 A 
ATOM      2  C   UNL     1      99.840 128.554  83.332  0.00  0.00    +0.000 A 
ATOM      3  C   UNL     1      99.322 129.828  83.500  0.00  0.00    +0.000 A 
ATOM      4  C   UNL     1     100.125 130.775  84.137  0.00  0.00    +0.000 A 
ATOM      5  C   UNL     1     101.410 130.427  84.587  0.00  0.00    +0.000 A 
ATOM      6  C   UNL     1     101.907 129.130  84.403  0.00  0.00    +0.000 A 
ATOM      7  C   UNL     1     101.100 128.201  83.768  0.00  0.00    +0.000 A 
ATOM      8  C   UNL     1     101.264 126.812  83.414  0.00  0.00    +0.000 A 
ATOM      9  O   UNL     1     100.104 126.338  82.785  0.00  0.00    +0.000 OA
ENDROOT
BRANCH   1  10
ATOM     10  N   UNL     1      98.047 127.365  82.182  0.00  0.00    +0.000 NA
BRANCH  10  12
ATOM     11  C   UNL     1      96.661 126.566  83.826  0.00  0.00    +0.000 C 
ATOM     12  O   UNL     1      97.349 126.230  82.629  0.00  0.00    +0.000 OA
ENDBRANCH  10  12
ENDBRANCH   1  10
BRANCH   8  13
ATOM     13  C   UNL     1     102.355 126.061  83.618  0.00  0.00    +0.000 C 
BRANCH  13  14
ATOM     14  C   UNL     1     103.087 125.402  82.534  0.00  0.00    +0.000 A 
ATOM     15  C   UNL     1     103.056 125.943  81.246  0.00  0.00    +0.000 A 
ATOM     16  C   UNL     1     103.756 125.326  80.206  0.00  0.00    +0.000 A 
ATOM     17  C   UNL     1     104.498 124.172  80.453  0.00  0.00    +0.000 A 
ATOM     18  C   UNL     1     104.537 123.630  81.737  0.00  0.00    +0.000 A 
ATOM     19  C   UNL     1     103.833 124.242  82.776  0.00  0.00    +0.000 A 
ENDBRANCH  13  14
ENDBRANCH   8  13
TORSDOF 4
ENDMDL
