MODEL 1
REMARK VINA RESULT:      -4.3      0.000      0.000
REMARK  Name = *****
REMARK  3 active torsions:
REMARK  status: ('A' for Active; 'I' for Inactive)
REMARK    1  A    between atoms: C_4  and  O_7
REMARK    2  A    between atoms: O_7  and  C_8
REMARK    3  A    between atoms: C_8  and  C_10
REMARK                            x       y       z     vdW  Elec       q    Type
REMARK                         _______ _______ _______ _____ _____    ______ ____
ROOT
ATOM      1  C   UNL     1     101.871 125.950  82.833  0.00  0.00    +0.000 C 
ATOM      2  O   UNL     1     102.322 125.323  83.778  0.00  0.00    +0.000 OA
ENDROOT
BRANCH   1   3
ATOM      3  C   UNL     1     100.917 127.061  82.993  0.00  0.00    +0.000 A 
ATOM      4  C   UNL     1      99.597 126.833  82.573  0.00  0.00    +0.000 A 
ATOM      5  C   UNL     1      98.641 127.842  82.690  0.00  0.00    +0.000 A 
ATOM      6  C   UNL     1      98.995 129.075  83.236  0.00  0.00    +0.000 A 
ATOM      7  C   UNL     1     100.303 129.297  83.674  0.00  0.00    +0.000 A 
ATOM      8  C   UNL     1     101.268 128.290  83.561  0.00  0.00    +0.000 A 
ATOM      9 CL   UNL     1     102.842 128.620  84.190  0.00  0.00    +0.000 Cl
ENDBRANCH   1   3
BRANCH   1  10
ATOM     10  O   UNL     1     102.025 125.709  81.482  0.00  0.00    +0.000 OA
BRANCH  10  14
ATOM     11  C   UNL     1     105.860 126.280  79.930  0.00  0.00    +0.000 A 
ATOM     12  C   UNL     1     105.170 127.376  80.452  0.00  0.00    +0.000 A 
ATOM     13  C   UNL     1     103.884 127.212  80.966  0.00  0.00    +0.000 A 
ATOM     14  C   UNL     1     103.292 125.951  80.932  0.00  0.00    +0.000 A 
ATOM     15  C   UNL     1     103.980 124.847  80.431  0.00  0.00    +0.000 A 
ATOM     16  C   UNL     1     105.267 125.016  79.922  0.00  0.00    +0.000 A 
ENDBRANCH  10  14
ENDBRANCH   1  10
TORSDOF 3
ENDMDL
