MODEL 1
REMARK VINA RESULT:      -5.3      0.000      0.000
REMARK  Name = *****
REMARK  2 active torsions:
REMARK  status: ('A' for Active; 'I' for Inactive)
REMARK    1  A    between atoms: C_1  and  C_2
REMARK    2  A    between atoms: C_10  and  C_13
REMARK                            x       y       z     vdW  Elec       q    Type
REMARK                         _______ _______ _______ _____ _____    ______ ____
ROOT
ATOM      1  C   UNL     1     103.729 128.806  82.630  0.00  0.00    +0.000 C 
ATOM      2  C   UNL     1     102.842 128.366  83.795  0.00  0.00    +0.000 C 
ATOM      3  C   UNL     1     101.396 128.136  83.414  0.00  0.00    +0.000 A 
ATOM      4  C   UNL     1     100.430 129.109  83.739  0.00  0.00    +0.000 A 
ATOM      5  C   UNL     1      99.092 128.937  83.385  0.00  0.00    +0.000 A 
ATOM      6  C   UNL     1      98.700 127.797  82.695  0.00  0.00    +0.000 A 
ATOM      7  C   UNL     1      99.646 126.828  82.365  0.00  0.00    +0.000 A 
ATOM      8  C   UNL     1     100.993 126.981  82.730  0.00  0.00    +0.000 A 
ATOM      9  C   UNL     1     101.940 125.938  82.329  0.00  0.00    +0.000 C 
ATOM     10  C   UNL     1     103.073 125.599  82.973  0.00  0.00    +0.000 C 
ATOM     11  N   UNL     1     103.544 126.095  84.162  0.00  0.00    +0.000 NA
ATOM     12  N   UNL     1     103.459 127.273  84.565  0.00  0.00    +0.000 NA
ENDROOT
BRANCH  10  13
ATOM     13  C   UNL     1     103.812 124.435  82.424  0.00  0.00    +0.000 A 
ATOM     14  C   UNL     1     104.241 123.383  83.248  0.00  0.00    +0.000 A 
ATOM     15  C   UNL     1     104.965 122.315  82.713  0.00  0.00    +0.000 A 
ATOM     16  C   UNL     1     105.264 122.285  81.352  0.00  0.00    +0.000 A 
ATOM     17  C   UNL     1     104.831 123.315  80.520  0.00  0.00    +0.000 A 
ATOM     18  C   UNL     1     104.106 124.384  81.053  0.00  0.00    +0.000 A 
ENDBRANCH  10  13
TORSDOF 1
ENDMDL
