MODEL 1
REMARK VINA RESULT:      -4.2      0.000      0.000
REMARK  Name = *****
REMARK  2 active torsions:
REMARK  status: ('A' for Active; 'I' for Inactive)
REMARK    1  A    between atoms: C_3  and  C_7
REMARK    2  A    between atoms: C_8  and  C_9
REMARK                            x       y       z     vdW  Elec       q    Type
REMARK                         _______ _______ _______ _____ _____    ______ ____
ROOT
ATOM      1  C   UNL     1     103.243 125.221  82.100  0.00  0.00    +0.000 C 
ATOM      2  C   UNL     1     102.445 126.179  81.598  0.00  0.00    +0.000 C 
ENDROOT
BRANCH   1   5
ATOM      3  C   UNL     1     105.756 123.761  79.705  0.00  0.00    +0.000 C 
ATOM      4  C   UNL     1     104.613 124.747  79.947  0.00  0.00    +0.000 C 
ATOM      5  C   UNL     1     104.132 124.385  81.326  0.00  0.00    +0.000 C 
ATOM      6  C   UNL     1     104.636 123.198  81.687  0.00  0.00    +0.000 C 
ATOM      7  C   UNL     1     105.506 122.585  80.643  0.00  0.00    +0.000 C 
ATOM      8 CL   UNL     1     104.372 122.355  83.144  0.00  0.00    +0.000 Cl
ENDBRANCH   1   5
BRANCH   2   9
ATOM      9  C   UNL     1     101.559 127.017  82.375  0.00  0.00    +0.000 C 
ATOM     10  C   UNL     1     101.893 128.112  83.072  0.00  0.00    +0.000 C 
ATOM     11  C   UNL     1     100.740 128.730  83.785  0.00  0.00    +0.000 C 
ATOM     12  C   UNL     1      99.548 128.044  83.125  0.00  0.00    +0.000 C 
ATOM     13  C   UNL     1     100.087 126.745  82.523  0.00  0.00    +0.000 C 
ATOM     14 CL   UNL     1     103.439 128.812  83.234  0.00  0.00    +0.000 Cl
ENDBRANCH   2   9
TORSDOF 2
ENDMDL
