REMARK  Name = *****
REMARK  4 active torsions:
REMARK  status: ('A' for Active; 'I' for Inactive)
REMARK    1  A    between atoms: C_1  and  C_2
REMARK    2  A    between atoms: C_5  and  C_8
REMARK    3  A    between atoms: C_8  and  C_17
REMARK    4  A    between atoms: C_10  and  C_11
REMARK                            x       y       z     vdW  Elec       q    Type
REMARK                         _______ _______ _______ _____ _____    ______ ____
ROOT
ATOM      1  C   UNL     1      -3.177   0.193   0.241  0.00  0.00    +0.000 C 
ATOM      2  C   UNL     1      -4.082  -1.005   0.446  0.00  0.00    +0.000 C 
ATOM      3  C   UNL     1      -3.648  -0.207   1.648  0.00  0.00    +0.000 C 
ATOM      4  C   UNL     1      -3.783   1.388  -0.461  0.00  0.00    +0.000 C 
ENDROOT
BRANCH   1   9
ATOM      5  C   UNL     1       2.466  -0.675  -1.102  0.00  0.00    +0.000 C 
ATOM      6  C   UNL     1       1.023  -0.480  -0.742  0.00  0.00    +0.000 A 
ATOM      7  C   UNL     1       0.012  -1.042  -1.525  0.00  0.00    +0.000 A 
ATOM      8  C   UNL     1      -1.333  -0.830  -1.204  0.00  0.00    +0.000 A 
ATOM      9  C   UNL     1      -1.710  -0.049  -0.099  0.00  0.00    +0.000 A 
ATOM     10  C   UNL     1      -0.680   0.527   0.662  0.00  0.00    +0.000 A 
ATOM     11  C   UNL     1       0.666   0.319   0.347  0.00  0.00    +0.000 A 
ENDBRANCH   1   9
BRANCH   3  12
ATOM     12  C   UNL     1      -4.634   0.638   2.423  0.00  0.00    +0.000 A 
ATOM     13  C   UNL     1      -5.902   0.151   2.784  0.00  0.00    +0.000 A 
ATOM     14  C   UNL     1      -6.801   0.929   3.518  0.00  0.00    +0.000 A 
ATOM     15  C   UNL     1      -6.445   2.214   3.916  0.00  0.00    +0.000 A 
ATOM     16  C   UNL     1      -5.190   2.716   3.586  0.00  0.00    +0.000 A 
ATOM     17  C   UNL     1      -4.296   1.932   2.853  0.00  0.00    +0.000 A 
ENDBRANCH   3  12
TORSDOF 2
