MODEL 1
REMARK VINA RESULT:      -4.7      0.000      0.000
REMARK  Name = *****
REMARK  4 active torsions:
REMARK  status: ('A' for Active; 'I' for Inactive)
REMARK    1  A    between atoms: C_1  and  O_2
REMARK    2  A    between atoms: O_2  and  N_3
REMARK    3  A    between atoms: C_9  and  C_10
REMARK    4  A    between atoms: C_11  and  C_12
REMARK                            x       y       z     vdW  Elec       q    Type
REMARK                         _______ _______ _______ _____ _____    ______ ____
ROOT
ATOM      1  N   UNL     1     102.538 128.931  83.550  0.00  0.00    +0.000 NA
ATOM      2  C   UNL     1     101.433 128.267  83.396  0.00  0.00    +0.000 C 
ATOM      3  C   UNL     1     100.269 128.764  84.247  0.00  0.00    +0.000 C 
ATOM      4  C   UNL     1      98.995 128.803  83.421  0.00  0.00    +0.000 C 
ATOM      5  C   UNL     1      98.661 127.418  82.885  0.00  0.00    +0.000 C 
ATOM      6  C   UNL     1      99.859 126.703  82.337  0.00  0.00    +0.000 C 
ATOM      7  C   UNL     1     101.142 127.065  82.521  0.00  0.00    +0.000 C 
ENDROOT
BRANCH   1   9
ATOM      8  C   UNL     1     104.626 129.426  82.754  0.00  0.00    +0.000 C 
ATOM      9  O   UNL     1     103.572 128.473  82.730  0.00  0.00    +0.000 OA
ENDBRANCH   1   9
BRANCH   7  10
ATOM     10  C   UNL     1     102.168 126.274  81.928  0.00  0.00    +0.000 C 
ATOM     11  C   UNL     1     103.030 125.610  81.419  0.00  0.00    +0.000 C 
BRANCH  11  12
ATOM     12  C   UNL     1     104.070 124.831  80.822  0.00  0.00    +0.000 A 
ATOM     13  C   UNL     1     104.327 123.539  81.286  0.00  0.00    +0.000 A 
ATOM     14  C   UNL     1     105.342 122.777  80.704  0.00  0.00    +0.000 A 
ATOM     15  C   UNL     1     106.100 123.305  79.660  0.00  0.00    +0.000 A 
ATOM     16  C   UNL     1     105.844 124.595  79.194  0.00  0.00    +0.000 A 
ATOM     17  C   UNL     1     104.830 125.358  79.775  0.00  0.00    +0.000 A 
ENDBRANCH  11  12
ENDBRANCH   7  10
TORSDOF 3
ENDMDL
