MODEL 1
REMARK VINA RESULT:      -4.7      0.000      0.000
REMARK  Name = *****
REMARK  4 active torsions:
REMARK  status: ('A' for Active; 'I' for Inactive)
REMARK    1  A    between atoms: C_2  and  C_3
REMARK    2  A    between atoms: C_3  and  C_4
REMARK    3  A    between atoms: C_3  and  S_10
REMARK    4  A    between atoms: S_10  and  C_11
REMARK                            x       y       z     vdW  Elec       q    Type
REMARK                         _______ _______ _______ _____ _____    ______ ____
ROOT
ATOM      1  C   UNL     1     102.949 126.657  81.194  0.00  0.00    +0.000 C 
ENDROOT
BRANCH   1   2
ATOM      2  C   UNL     1     103.618 125.306  81.420  0.00  0.00    +0.000 A 
ATOM      3  C   UNL     1     103.661 124.698  82.687  0.00  0.00    +0.000 A 
ATOM      4  C   UNL     1     104.284 123.460  82.867  0.00  0.00    +0.000 A 
ATOM      5  C   UNL     1     104.870 122.811  81.785  0.00  0.00    +0.000 A 
ATOM      6  C   UNL     1     104.835 123.395  80.522  0.00  0.00    +0.000 A 
ATOM      7  C   UNL     1     104.214 124.633  80.339  0.00  0.00    +0.000 A 
ENDBRANCH   1   2
BRANCH   1   9
ATOM      8  C   UNL     1     104.540 128.486  80.478  0.00  0.00    +0.000 C 
ATOM      9  C   UNL     1     103.687 127.496  80.176  0.00  0.00    +0.000 C 
ENDBRANCH   1   9
BRANCH   1  10
ATOM     10  S   UNL     1     102.810 127.581  82.785  0.00  0.00    +0.000 S 
BRANCH  10  11
ATOM     11  C   UNL     1     101.039 127.713  82.964  0.00  0.00    +0.000 A 
ATOM     12  C   UNL     1     100.437 128.809  83.589  0.00  0.00    +0.000 A 
ATOM     13  C   UNL     1      99.046 128.886  83.693  0.00  0.00    +0.000 A 
ATOM     14  C   UNL     1      98.248 127.875  83.161  0.00  0.00    +0.000 A 
ATOM     15  C   UNL     1      98.840 126.788  82.520  0.00  0.00    +0.000 A 
ATOM     16  C   UNL     1     100.231 126.710  82.417  0.00  0.00    +0.000 A 
ENDBRANCH  10  11
ENDBRANCH   1  10
TORSDOF 4
ENDMDL
