MODEL 1
REMARK VINA RESULT:      -4.2      0.000      0.000
REMARK  Name = *****
REMARK  3 active torsions:
REMARK  status: ('A' for Active; 'I' for Inactive)
REMARK    1  A    between atoms: N_6  and  C_7
REMARK    2  A    between atoms: C_7  and  C_8
REMARK    3  A    between atoms: C_8  and  C_9
REMARK                            x       y       z     vdW  Elec       q    Type
REMARK                         _______ _______ _______ _____ _____    ______ ____
ROOT
ATOM      1  C   UNL     1      91.899  72.563  81.966  0.00  0.00    +0.000 C 
ATOM      2  C   UNL     1      91.167  73.638  82.765  0.00  0.00    +0.000 C 
ATOM      3  C   UNL     1      89.693  73.324  83.019  0.00  0.00    +0.000 C 
ATOM      4  C   UNL     1      89.457  72.455  84.247  0.00  0.00    +0.000 C 
ATOM      5  C   UNL     1      90.065  71.062  84.221  0.00  0.00    +0.000 C 
ATOM      6  N   UNL     1      90.090  70.266  85.238  0.00  0.00    +0.000 NA
ATOM      7  C   UNL     1      90.680  70.544  82.936  0.00  0.00    +0.000 C 
ATOM      8  C   UNL     1      92.022  71.213  82.668  0.00  0.00    +0.000 C 
ENDROOT
BRANCH   6   9
ATOM      9  C   UNL     1      89.503  70.702  86.505  0.00  0.00    +0.000 C 
BRANCH   9  10
ATOM     10  C   UNL     1      88.231  69.888  86.758  0.00  0.00    +0.000 C 
BRANCH  10  11
ATOM     11  C   UNL     1      87.013  70.771  86.865  0.00  0.00    +0.000 A 
ATOM     12  C   UNL     1      86.500  71.126  88.120  0.00  0.00    +0.000 A 
ATOM     13  C   UNL     1      85.361  71.925  88.219  0.00  0.00    +0.000 A 
ATOM     14  C   UNL     1      84.720  72.373  87.064  0.00  0.00    +0.000 A 
ATOM     15  C   UNL     1      85.218  72.021  85.811  0.00  0.00    +0.000 A 
ATOM     16  C   UNL     1      86.358  71.223  85.711  0.00  0.00    +0.000 A 
ENDBRANCH  10  11
ENDBRANCH   9  10
ENDBRANCH   6   9
TORSDOF 3
ENDMDL
