MODEL 1
REMARK VINA RESULT:      -4.7      0.000      0.000
REMARK  Name = *****
REMARK  3 active torsions:
REMARK  status: ('A' for Active; 'I' for Inactive)
REMARK    1  A    between atoms: C_8  and  O_10
REMARK    2  A    between atoms: O_10  and  C_11
REMARK    3  A    between atoms: C_11  and  C_13
REMARK                            x       y       z     vdW  Elec       q    Type
REMARK                         _______ _______ _______ _____ _____    ______ ____
ROOT
ATOM      1  C   UNL     1     104.295 127.606  81.813  0.00  0.00    +0.000 C 
ATOM      2  C   UNL     1     105.325 126.479  81.842  0.00  0.00    +0.000 C 
ATOM      3  C   UNL     1     104.745 125.186  82.327  0.00  0.00    +0.000 C 
ATOM      4  C   UNL     1     103.243 124.953  82.308  0.00  0.00    +0.000 C 
ATOM      5  C   UNL     1     104.121 124.256  81.341  0.00  0.00    +0.000 C 
ATOM      6  F   UNL     1     104.089 124.559  80.001  0.00  0.00    +0.000 F 
ATOM      7  F   UNL     1     104.340 122.902  81.450  0.00  0.00    +0.000 F 
ATOM      8  C   UNL     1     102.305 126.035  81.862  0.00  0.00    +0.000 C 
ATOM      9  C   UNL     1     103.012 127.168  81.104  0.00  0.00    +0.000 C 
ENDROOT
BRANCH   8  10
ATOM     10  O   UNL     1     101.712 126.639  83.033  0.00  0.00    +0.000 OA
BRANCH  10  11
ATOM     11  C   UNL     1     100.495 127.210  82.861  0.00  0.00    +0.000 C 
ATOM     12  O   UNL     1      99.528 126.688  82.331  0.00  0.00    +0.000 OA
BRANCH  11  13
ATOM     13  C   UNL     1     100.479 128.585  83.431  0.00  0.00    +0.000 A 
ATOM     14  C   UNL     1     101.639 129.050  84.067  0.00  0.00    +0.000 A 
ATOM     15  C   UNL     1     101.674 130.334  84.616  0.00  0.00    +0.000 A 
ATOM     16  C   UNL     1     100.552 131.158  84.535  0.00  0.00    +0.000 A 
ATOM     17  C   UNL     1      99.394 130.702  83.906  0.00  0.00    +0.000 A 
ATOM     18  C   UNL     1      99.355 129.419  83.354  0.00  0.00    +0.000 A 
ENDBRANCH  11  13
ENDBRANCH  10  11
ENDBRANCH   8  10
TORSDOF 3
ENDMDL
