MODEL 1
REMARK VINA RESULT:      -5.0      0.000      0.000
REMARK  Name = *****
REMARK  3 active torsions:
REMARK  status: ('A' for Active; 'I' for Inactive)
REMARK    1  A    between atoms: C_1  and  C_2
REMARK    2  A    between atoms: C_7  and  C_8
REMARK    3  A    between atoms: C_8  and  C_9
REMARK                            x       y       z     vdW  Elec       q    Type
REMARK                         _______ _______ _______ _____ _____    ______ ____
ROOT
ATOM      1  C   UNL     1      89.264  68.729  86.918  0.00  0.00    +0.000 A 
ATOM      2  N   UNL     1      88.325  67.842  87.200  0.00  0.00    +0.000 NA
ATOM      3  C   UNL     1      88.844  66.663  86.729  0.00  0.00    +0.000 A 
ATOM      4  C   UNL     1      88.329  65.361  86.739  0.00  0.00    +0.000 A 
ATOM      5  C   UNL     1      89.102  64.339  86.169  0.00  0.00    +0.000 A 
ATOM      6  C   UNL     1      90.356  64.609  85.603  0.00  0.00    +0.000 A 
ATOM      7  C   UNL     1      90.884  65.907  85.585  0.00  0.00    +0.000 A 
ATOM      8  C   UNL     1      90.087  66.889  86.161  0.00  0.00    +0.000 A 
ATOM      9  O   UNL     1      90.363  68.220  86.271  0.00  0.00    +0.000 OA
ENDROOT
BRANCH   1  10
ATOM     10  C   UNL     1      89.265  70.194  87.186  0.00  0.00    +0.000 C 
BRANCH  10  17
ATOM     11  C   UNL     1      87.898  70.740  89.837  0.00  0.00    +0.000 C 
ATOM     12  C   UNL     1      87.233  71.032  88.519  0.00  0.00    +0.000 A 
ATOM     13  C   UNL     1      85.940  71.583  88.523  0.00  0.00    +0.000 A 
ATOM     14  C   UNL     1      85.278  71.870  87.329  0.00  0.00    +0.000 A 
ATOM     15  C   UNL     1      85.899  71.610  86.113  0.00  0.00    +0.000 A 
ATOM     16  C   UNL     1      87.183  71.071  86.091  0.00  0.00    +0.000 A 
ATOM     17  C   UNL     1      87.871  70.781  87.287  0.00  0.00    +0.000 A 
ENDBRANCH  10  17
ENDBRANCH   1  10
TORSDOF 2
ENDMDL
