REMARK  Name = *****
REMARK  3 active torsions:
REMARK  status: ('A' for Active; 'I' for Inactive)
REMARK    1  A    between atoms: C_1  and  C_2
REMARK    2  A    between atoms: C_5  and  C_8
REMARK    3  A    between atoms: C_9  and  C_10
REMARK                            x       y       z     vdW  Elec       q    Type
REMARK                         _______ _______ _______ _____ _____    ______ ____
ROOT
ATOM      1  C   UNL     1       6.862   0.185  -0.630  0.00  0.00    +0.000 C 
ATOM      2  C   UNL     1       8.039   0.179  -0.872  0.00  0.00    +0.000 C 
ENDROOT
BRANCH   1   7
ATOM      3  C   UNL     1       1.184   0.133   0.183  0.00  0.00    +0.000 C 
ATOM      4  C   UNL     1       2.673   0.158   0.006  0.00  0.00    +0.000 A 
ATOM      5  C   UNL     1       3.365   1.370  -0.106  0.00  0.00    +0.000 A 
ATOM      6  C   UNL     1       4.750   1.379  -0.301  0.00  0.00    +0.000 A 
ATOM      7  C   UNL     1       5.452   0.177  -0.389  0.00  0.00    +0.000 A 
ATOM      8  C   UNL     1       4.771  -1.035  -0.273  0.00  0.00    +0.000 A 
ATOM      9  C   UNL     1       3.387  -1.045  -0.078  0.00  0.00    +0.000 A 
ENDBRANCH   1   7
BRANCH   2  10
ATOM     10  C   UNL     1       9.463   0.164  -1.222  0.00  0.00    +0.000 C 
ATOM     11  C   UNL     1      10.187  -1.071  -0.739  0.00  0.00    +0.000 C 
ATOM     12  C   UNL     1       9.736  -2.333  -0.756  0.00  0.00    +0.000 C 
ATOM     13  C   UNL     1      11.462  -0.615  -0.225  0.00  0.00    +0.000 C 
ATOM     14  C   UNL     1      12.436  -1.342   0.337  0.00  0.00    +0.000 C 
ATOM     15  C   UNL     1      11.488   0.872  -0.394  0.00  0.00    +0.000 C 
ATOM     16  O   UNL     1      10.126   1.269  -0.586  0.00  0.00    +0.000 OA
ENDBRANCH   2  10
TORSDOF 2
