MODEL 1
REMARK VINA RESULT:      -4.8      0.000      0.000
REMARK  Name = *****
REMARK  4 active torsions:
REMARK  status: ('A' for Active; 'I' for Inactive)
REMARK    1  A    between atoms: C_1  and  C_2
REMARK    2  A    between atoms: C_5  and  C_8
REMARK    3  A    between atoms: C_8  and  C_17
REMARK    4  A    between atoms: C_9  and  C_10
REMARK                            x       y       z     vdW  Elec       q    Type
REMARK                         _______ _______ _______ _____ _____    ______ ____
ROOT
ATOM      1  C   UNL     1     103.175 125.681  81.838  0.00  0.00    +0.000 C 
ATOM      2  C   UNL     1     102.357 125.875  82.893  0.00  0.00    +0.000 C 
ENDROOT
BRANCH   1   7
ATOM      3  C   UNL     1     106.156 120.714  81.496  0.00  0.00    +0.000 C 
ATOM      4  C   UNL     1     105.359 121.983  81.578  0.00  0.00    +0.000 A 
ATOM      5  C   UNL     1     105.145 122.760  80.435  0.00  0.00    +0.000 A 
ATOM      6  C   UNL     1     104.432 123.959  80.516  0.00  0.00    +0.000 A 
ATOM      7  C   UNL     1     103.924 124.408  81.744  0.00  0.00    +0.000 A 
ATOM      8  C   UNL     1     104.159 123.636  82.891  0.00  0.00    +0.000 A 
ATOM      9  C   UNL     1     104.873 122.437  82.808  0.00  0.00    +0.000 A 
ENDBRANCH   1   7
BRANCH   2  10
ATOM     10  C   UNL     1     101.553 127.076  83.160  0.00  0.00    +0.000 A 
ATOM     11  C   UNL     1     100.195 127.143  82.822  0.00  0.00    +0.000 A 
ATOM     12  C   UNL     1      99.451 128.291  83.112  0.00  0.00    +0.000 A 
ATOM     13  C   UNL     1     100.060 129.368  83.752  0.00  0.00    +0.000 A 
ATOM     14  C   UNL     1     101.405 129.307  84.107  0.00  0.00    +0.000 A 
ATOM     15  C   UNL     1     102.150 128.162  83.816  0.00  0.00    +0.000 A 
ATOM     16 CL   UNL     1      99.143 130.777  84.113  0.00  0.00    +0.000 Cl
ENDBRANCH   2  10
BRANCH   1  17
ATOM     17  C   UNL     1     103.383 126.677  80.831  0.00  0.00    +0.000 C 
ATOM     18  N   UNL     1     103.551 127.491  80.021  0.00  0.00    +0.000 NA
ENDBRANCH   1  17
TORSDOF 3
ENDMDL
