MODEL 1
REMARK VINA RESULT:      -4.4      0.000      0.000
REMARK  Name = *****
REMARK  5 active torsions:
REMARK  status: ('A' for Active; 'I' for Inactive)
REMARK    1  A    between atoms: C_1  and  C_2
REMARK    2  A    between atoms: C_7  and  O_8
REMARK    3  A    between atoms: O_8  and  C_9
REMARK    4  A    between atoms: C_9  and  C_11
REMARK    5  A    between atoms: C_11  and  C_12
REMARK                            x       y       z     vdW  Elec       q    Type
REMARK                         _______ _______ _______ _____ _____    ______ ____
ROOT
ATOM      1  C   UNL     1     103.604 127.504  82.550  0.00  0.00    +0.000 C 
ATOM      2  O   UNL     1     103.706 128.489  81.830  0.00  0.00    +0.000 OA
ENDROOT
BRANCH   1   3
ATOM      3  O   UNL     1     104.317 126.352  82.418  0.00  0.00    +0.000 OA
BRANCH   3  10
ATOM      4  C   UNL     1     104.123 123.682  83.892  0.00  0.00    +0.000 C 
ATOM      5  C   UNL     1     104.311 123.987  82.433  0.00  0.00    +0.000 C 
ATOM      6  C   UNL     1     105.067 123.208  81.637  0.00  0.00    +0.000 C 
ATOM      7  C   UNL     1     105.313 123.494  80.184  0.00  0.00    +0.000 C 
ATOM      8  C   UNL     1     104.885 124.900  79.764  0.00  0.00    +0.000 C 
ATOM      9  C   UNL     1     103.537 125.270  80.379  0.00  0.00    +0.000 C 
ATOM     10  C   UNL     1     103.589 125.217  81.916  0.00  0.00    +0.000 C 
ENDBRANCH   3  10
ENDBRANCH   1   3
BRANCH   1  11
ATOM     11  C   UNL     1     102.681 127.413  83.741  0.00  0.00    +0.000 C 
BRANCH  11  12
ATOM     12  C   UNL     1     101.243 127.666  83.371  0.00  0.00    +0.000 A 
ATOM     13  C   UNL     1     100.632 128.885  83.694  0.00  0.00    +0.000 A 
ATOM     14  C   UNL     1      99.292 129.110  83.375  0.00  0.00    +0.000 A 
ATOM     15  C   UNL     1      98.550 128.117  82.738  0.00  0.00    +0.000 A 
ATOM     16  C   UNL     1      99.145 126.898  82.422  0.00  0.00    +0.000 A 
ATOM     17  C   UNL     1     100.486 126.671  82.739  0.00  0.00    +0.000 A 
ENDBRANCH  11  12
ENDBRANCH   1  11
TORSDOF 4
ENDMDL
