REMARK  Name = *****
REMARK  4 active torsions:
REMARK  status: ('A' for Active; 'I' for Inactive)
REMARK    1  A    between atoms: C_1  and  C_2
REMARK    2  A    between atoms: C_6  and  C_9
REMARK    3  A    between atoms: C_6  and  C_10
REMARK    4  A    between atoms: C_10  and  C_11
REMARK                            x       y       z     vdW  Elec       q    Type
REMARK                         _______ _______ _______ _____ _____    ______ ____
ROOT
ATOM      1  C   UNL     1       6.519   2.126  -0.990  0.00  0.00    +0.000 C 
ATOM      2  C   UNL     1       6.042   0.707  -1.033  0.00  0.00    +0.000 C 
ATOM      3  C   UNL     1       6.589  -0.230  -1.824  0.00  0.00    +0.000 C 
ATOM      4  C   UNL     1       6.136  -1.651  -1.910  0.00  0.00    +0.000 C 
ATOM      5  C   UNL     1       4.735  -1.858  -1.350  0.00  0.00    +0.000 C 
ATOM      6  C   UNL     1       4.429  -1.101  -0.042  0.00  0.00    +0.000 C 
ATOM      7  C   UNL     1       4.921   0.352  -0.107  0.00  0.00    +0.000 C 
ATOM      8  O   UNL     1       4.450   1.225   0.624  0.00  0.00    +0.000 OA
ATOM      9  C   UNL     1       2.889  -1.062   0.112  0.00  0.00    +0.000 C 
ENDROOT
BRANCH   6  10
ATOM     10  C   UNL     1       4.998  -1.785   1.230  0.00  0.00    +0.000 C 
BRANCH  10  11
ATOM     11  C   UNL     1       6.495  -1.928   1.320  0.00  0.00    +0.000 C 
ATOM     12  C   UNL     1       7.226  -3.059   1.290  0.00  0.00    +0.000 C 
ATOM     13  C   UNL     1       6.688  -4.460   1.117  0.00  0.00    +0.000 C 
ATOM     14  C   UNL     1       7.142  -5.359   2.269  0.00  0.00    +0.000 C 
ATOM     15  C   UNL     1       8.661  -5.337   2.441  0.00  0.00    +0.000 C 
ATOM     16  C   UNL     1       9.189  -3.911   2.592  0.00  0.00    +0.000 C 
ATOM     17  C   UNL     1       8.732  -3.011   1.443  0.00  0.00    +0.000 C 
ENDBRANCH  10  11
ENDBRANCH   6  10
TORSDOF 2
