MODEL 1
REMARK VINA RESULT:      -4.9      0.000      0.000
REMARK  Name = *****
REMARK  3 active torsions:
REMARK  status: ('A' for Active; 'I' for Inactive)
REMARK    1  A    between atoms: C_4  and  N_7
REMARK    2  A    between atoms: N_7  and  C_8
REMARK    3  A    between atoms: C_8  and  C_10
REMARK                            x       y       z     vdW  Elec       q    Type
REMARK                         _______ _______ _______ _____ _____    ______ ____
ROOT
ATOM      1  C   UNL     1      88.858  64.334  86.623  0.00  0.00    +0.000 C 
ATOM      2  S   UNL     1      88.653  63.602  85.128  0.00  0.00    +0.000 S 
ENDROOT
BRANCH   1   3
ATOM      3  C   UNL     1      88.973  65.820  86.674  0.00  0.00    +0.000 A 
ATOM      4  C   UNL     1      90.092  66.494  86.162  0.00  0.00    +0.000 A 
ATOM      5  C   UNL     1      90.149  67.889  86.219  0.00  0.00    +0.000 A 
ATOM      6  C   UNL     1      89.090  68.603  86.778  0.00  0.00    +0.000 A 
ATOM      7  C   UNL     1      87.970  67.940  87.281  0.00  0.00    +0.000 A 
ATOM      8  C   UNL     1      87.908  66.547  87.227  0.00  0.00    +0.000 A 
ATOM      9 CL   UNL     1      89.161  70.320  86.843  0.00  0.00    +0.000 Cl
ATOM     10 CL   UNL     1      91.422  65.659  85.445  0.00  0.00    +0.000 Cl
ENDBRANCH   1   3
BRANCH   1  11
ATOM     11  N   UNL     1      88.938  63.769  87.889  0.00  0.00    +0.000 N 
ATOM     12  H   UNL     1      89.860  63.602  88.188  0.00  0.00    +0.000 HD
BRANCH  11  16
ATOM     13  C   UNL     1      85.911  62.461  90.544  0.00  0.00    +0.000 A 
ATOM     14  C   UNL     1      86.767  63.480  90.952  0.00  0.00    +0.000 A 
ATOM     15  C   UNL     1      87.783  63.939  90.102  0.00  0.00    +0.000 A 
ATOM     16  C   UNL     1      87.959  63.383  88.837  0.00  0.00    +0.000 A 
ATOM     17  C   UNL     1      87.080  62.363  88.435  0.00  0.00    +0.000 A 
ATOM     18  C   UNL     1      86.066  61.903  89.280  0.00  0.00    +0.000 A 
ENDBRANCH  11  16
ENDBRANCH   1  11
TORSDOF 3
ENDMDL
