MODEL 1
REMARK VINA RESULT:      -5.0      0.000      0.000
REMARK  Name = *****
REMARK  4 active torsions:
REMARK  status: ('A' for Active; 'I' for Inactive)
REMARK    1  A    between atoms: C_4  and  O_7
REMARK    2  A    between atoms: O_7  and  C_8
REMARK    3  A    between atoms: C_8  and  C_10
REMARK    4  A    between atoms: C_12  and  C_17
REMARK                            x       y       z     vdW  Elec       q    Type
REMARK                         _______ _______ _______ _____ _____    ______ ____
ROOT
ATOM      1  C   UNL     1     101.628 127.539  83.146  0.00  0.00    +0.000 A 
ATOM      2  C   UNL     1     101.274 128.808  83.636  0.00  0.00    +0.000 A 
ATOM      3  C   UNL     1      99.937 129.243  83.605  0.00  0.00    +0.000 A 
ATOM      4  C   UNL     1      98.962 128.395  83.062  0.00  0.00    +0.000 A 
ATOM      5  C   UNL     1      99.321 127.141  82.578  0.00  0.00    +0.000 A 
ATOM      6  C   UNL     1     100.639 126.705  82.616  0.00  0.00    +0.000 A 
ATOM      7  F   UNL     1      98.376 126.342  82.067  0.00  0.00    +0.000 F 
ENDROOT
BRANCH   3   8
ATOM      8  C   UNL     1      99.562 130.616  84.109  0.00  0.00    +0.000 C 
ATOM      9  F   UNL     1      98.470 130.604  84.920  0.00  0.00    +0.000 F 
ATOM     10  F   UNL     1     100.563 131.188  84.830  0.00  0.00    +0.000 F 
ATOM     11  F   UNL     1      99.273 131.489  83.105  0.00  0.00    +0.000 F 
ENDBRANCH   3   8
BRANCH   1  12
ATOM     12  C   UNL     1     103.028 127.036  83.164  0.00  0.00    +0.000 C 
ATOM     13  O   UNL     1     104.004 127.764  83.086  0.00  0.00    +0.000 OA
BRANCH  12  14
ATOM     14  O   UNL     1     103.044 125.685  83.274  0.00  0.00    +0.000 OA
BRANCH  14  18
ATOM     15  C   UNL     1     104.781 122.704  80.806  0.00  0.00    +0.000 C 
ATOM     16  C   UNL     1     104.667 124.114  80.236  0.00  0.00    +0.000 C 
ATOM     17  C   UNL     1     103.696 124.970  81.043  0.00  0.00    +0.000 C 
ATOM     18  C   UNL     1     104.067 125.000  82.528  0.00  0.00    +0.000 C 
ATOM     19  C   UNL     1     104.167 123.579  83.090  0.00  0.00    +0.000 C 
ATOM     20  C   UNL     1     105.140 122.721  82.290  0.00  0.00    +0.000 C 
ENDBRANCH  14  18
ENDBRANCH  12  14
ENDBRANCH   1  12
TORSDOF 4
ENDMDL
