REMARK  Name = *****
REMARK  3 active torsions:
REMARK  status: ('A' for Active; 'I' for Inactive)
REMARK    1  A    between atoms: C_3  and  O_6
REMARK    2  A    between atoms: O_6  and  C_7
REMARK    3  A    between atoms: C_7  and  C_9
REMARK                            x       y       z     vdW  Elec       q    Type
REMARK                         _______ _______ _______ _____ _____    ______ ____
ROOT
ATOM      1  C   UNL     1      -2.708  -2.214   0.783  0.00  0.00    +0.000 C 
ATOM      2  O   UNL     1      -2.552  -2.908  -0.206  0.00  0.00    +0.000 OA
ENDROOT
BRANCH   1   3
ATOM      3  C   UNL     1      -3.558  -2.572   1.935  0.00  0.00    +0.000 A 
ATOM      4  C   UNL     1      -3.439  -3.812   2.571  0.00  0.00    +0.000 A 
ATOM      5  C   UNL     1      -4.284  -4.129   3.640  0.00  0.00    +0.000 A 
ATOM      6  C   UNL     1      -5.240  -3.209   4.067  0.00  0.00    +0.000 A 
ATOM      7  C   UNL     1      -5.363  -1.970   3.440  0.00  0.00    +0.000 A 
ATOM      8  C   UNL     1      -4.523  -1.650   2.372  0.00  0.00    +0.000 A 
ATOM      9 CL   UNL     1      -6.276  -3.603   5.383  0.00  0.00    +0.000 Cl
ATOM     10 CL   UNL     1      -2.243  -4.978   2.131  0.00  0.00    +0.000 Cl
ENDBRANCH   1   3
BRANCH   1  11
ATOM     11  O   UNL     1      -2.149  -1.004   1.027  0.00  0.00    +0.000 OA
BRANCH  11  14
ATOM     12  C   UNL     1       1.142  -0.135  -0.148  0.00  0.00    +0.000 C 
ATOM     13  C   UNL     1       0.105  -1.231   0.094  0.00  0.00    +0.000 C 
ATOM     14  C   UNL     1      -1.265  -0.548   0.004  0.00  0.00    +0.000 C 
ATOM     15  C   UNL     1      -0.924   0.884   0.272  0.00  0.00    +0.000 C 
ATOM     16  C   UNL     1       0.391   1.111   0.184  0.00  0.00    +0.000 C 
ENDBRANCH  11  14
ENDBRANCH   1  11
TORSDOF 3
