MODEL 1
REMARK VINA RESULT:      -3.7      0.000      0.000
REMARK  Name = *****
REMARK  3 active torsions:
REMARK  status: ('A' for Active; 'I' for Inactive)
REMARK    1  A    between atoms: C_5  and  O_8
REMARK    2  A    between atoms: O_8  and  O_9
REMARK    3  A    between atoms: O_9  and  C_10
REMARK                            x       y       z     vdW  Elec       q    Type
REMARK                         _______ _______ _______ _____ _____    ______ ____
ROOT
ATOM      1  O   UNL     1     102.313 127.697  84.395  0.00  0.00    +0.000 OA
ENDROOT
BRANCH   1   6
ATOM      2  C   UNL     1      99.092 129.598  83.200  0.00  0.00    +0.000 C 
ATOM      3  C   UNL     1      98.656 128.176  82.865  0.00  0.00    +0.000 C 
ATOM      4  C   UNL     1      99.787 127.166  82.703  0.00  0.00    +0.000 C 
ATOM      5  C   UNL     1     100.206 126.537  84.033  0.00  0.00    +0.000 C 
ATOM      6  C   UNL     1     101.023 127.437  84.964  0.00  0.00    +0.000 C 
ATOM      7  C   UNL     1     100.359 128.779  85.294  0.00  0.00    +0.000 C 
ATOM      8  C   UNL     1     100.292 129.764  84.126  0.00  0.00    +0.000 C 
ENDBRANCH   1   6
BRANCH   1   9
ATOM      9  O   UNL     1     102.903 126.393  84.103  0.00  0.00    +0.000 OA
BRANCH   9  10
ATOM     10  C   UNL     1     103.616 126.552  82.873  0.00  0.00    +0.000 C 
ATOM     11  C   UNL     1     103.507 128.017  82.452  0.00  0.00    +0.000 C 
ATOM     12  C   UNL     1     104.131 128.259  81.082  0.00  0.00    +0.000 C 
ATOM     13  C   UNL     1     103.538 127.331  80.024  0.00  0.00    +0.000 C 
ATOM     14  C   UNL     1     103.635 125.865  80.439  0.00  0.00    +0.000 C 
ATOM     15  C   UNL     1     103.013 125.629  81.812  0.00  0.00    +0.000 C 
ENDBRANCH   9  10
ENDBRANCH   1   9
TORSDOF 3
ENDMDL
