MODEL 1
REMARK VINA RESULT:      -4.6      0.000      0.000
REMARK  Name = *****
REMARK  3 active torsions:
REMARK  status: ('A' for Active; 'I' for Inactive)
REMARK    1  A    between atoms: C_1  and  C_2
REMARK    2  A    between atoms: C_6  and  C_7
REMARK    3  A    between atoms: C_8  and  C_9
REMARK                            x       y       z     vdW  Elec       q    Type
REMARK                         _______ _______ _______ _____ _____    ______ ____
ROOT
ATOM      1  C   UNL     1     101.756 126.284  82.164  0.00  0.00    +0.000 C 
ATOM      2  C   UNL     1     102.669 125.612  81.769  0.00  0.00    +0.000 C 
ENDROOT
BRANCH   2   3
ATOM      3  C   UNL     1     103.756 124.809  81.300  0.00  0.00    +0.000 A 
ATOM      4  C   UNL     1     104.347 125.087  80.063  0.00  0.00    +0.000 A 
ATOM      5  C   UNL     1     105.408 124.303  79.606  0.00  0.00    +0.000 A 
ATOM      6  C   UNL     1     105.868 123.248  80.388  0.00  0.00    +0.000 A 
ATOM      7  C   UNL     1     105.288 122.963  81.619  0.00  0.00    +0.000 A 
ATOM      8  C   UNL     1     104.227 123.746  82.078  0.00  0.00    +0.000 A 
ATOM      9  F   UNL     1     106.885 122.497  79.948  0.00  0.00    +0.000 F 
ENDBRANCH   2   3
BRANCH   1  15
ATOM     10  C   UNL     1     101.222 128.041  84.886  0.00  0.00    +0.000 C 
ATOM     11  C   UNL     1     100.836 128.333  83.439  0.00  0.00    +0.000 C 
ATOM     12  C   UNL     1      99.435 128.958  83.328  0.00  0.00    +0.000 C 
ATOM     13  C   UNL     1      98.483 127.813  82.984  0.00  0.00    +0.000 C 
ATOM     14  C   UNL     1      99.394 126.798  82.380  0.00  0.00    +0.000 C 
ATOM     15  C   UNL     1     100.679 127.079  82.627  0.00  0.00    +0.000 C 
ENDBRANCH   1  15
TORSDOF 2
ENDMDL
