MODEL 1
REMARK VINA RESULT:      -4.8      0.000      0.000
REMARK  Name = *****
REMARK  3 active torsions:
REMARK  status: ('A' for Active; 'I' for Inactive)
REMARK    1  A    between atoms: C_4  and  C_7
REMARK    2  A    between atoms: C_7  and  C_9
REMARK    3  A    between atoms: C_9  and  C_10
REMARK                            x       y       z     vdW  Elec       q    Type
REMARK                         _______ _______ _______ _____ _____    ______ ____
ROOT
ATOM      1  C   UNL     1     100.220 127.803  83.554  0.00  0.00    +0.000 C 
ATOM      2  C   UNL     1      99.494 127.277  84.830  0.00  0.00    +0.000 C 
ATOM      3  C   UNL     1      98.662 128.589  84.826  0.00  0.00    +0.000 C 
ATOM      4  C   UNL     1      98.910 128.616  83.288  0.00  0.00    +0.000 C 
ATOM      5  F   UNL     1      99.060 129.845  82.740  0.00  0.00    +0.000 F 
ATOM      6  F   UNL     1      97.963 127.978  82.553  0.00  0.00    +0.000 F 
ATOM      7  F   UNL     1      97.370 128.474  85.223  0.00  0.00    +0.000 F 
ATOM      8  F   UNL     1      99.181 129.624  85.534  0.00  0.00    +0.000 F 
ATOM      9  F   UNL     1      98.781 126.134  84.667  0.00  0.00    +0.000 F 
ATOM     10  F   UNL     1     100.283 127.065  85.911  0.00  0.00    +0.000 F 
ATOM     11 CL   UNL     1     101.745 128.756  83.857  0.00  0.00    +0.000 Cl
ENDROOT
BRANCH   1  12
ATOM     12  C   UNL     1     100.501 126.665  82.564  0.00  0.00    +0.000 C 
BRANCH  12  13
ATOM     13  C   UNL     1     101.806 125.956  82.849  0.00  0.00    +0.000 C 
ATOM     14  O   UNL     1     102.005 125.444  83.948  0.00  0.00    +0.000 OA
BRANCH  13  18
ATOM     15  C   UNL     1     104.886 125.961  79.868  0.00  0.00    +0.000 A 
ATOM     16  C   UNL     1     104.637 124.793  80.587  0.00  0.00    +0.000 A 
ATOM     17  C   UNL     1     103.638 124.768  81.565  0.00  0.00    +0.000 A 
ATOM     18  C   UNL     1     102.879 125.917  81.817  0.00  0.00    +0.000 A 
ATOM     19  C   UNL     1     103.147 127.093  81.102  0.00  0.00    +0.000 A 
ATOM     20  C   UNL     1     104.144 127.112  80.127  0.00  0.00    +0.000 A 
ENDBRANCH  13  18
ENDBRANCH  12  13
ENDBRANCH   1  12
TORSDOF 3
ENDMDL
