MODEL 1
REMARK VINA RESULT:      -3.8      0.000      0.000
REMARK  Name = *****
REMARK  3 active torsions:
REMARK  status: ('A' for Active; 'I' for Inactive)
REMARK    1  A    between atoms: C_4  and  C_7
REMARK    2  A    between atoms: C_7  and  C_8
REMARK    3  A    between atoms: C_8  and  C_9
REMARK                            x       y       z     vdW  Elec       q    Type
REMARK                         _______ _______ _______ _____ _____    ______ ____
ROOT
ATOM      1  C   UNL     1      88.199  70.512  87.693  0.00  0.00    +0.000 C 
ATOM      2 CL   UNL     1      88.456  70.626  89.471  0.00  0.00    +0.000 Cl
ENDROOT
BRANCH   1   3
ATOM      3  C   UNL     1      86.871  71.151  87.339  0.00  0.00    +0.000 A 
ATOM      4  C   UNL     1      86.500  71.399  86.007  0.00  0.00    +0.000 A 
ATOM      5  C   UNL     1      85.283  72.014  85.709  0.00  0.00    +0.000 A 
ATOM      6  C   UNL     1      84.420  72.391  86.736  0.00  0.00    +0.000 A 
ATOM      7  C   UNL     1      84.774  72.153  88.062  0.00  0.00    +0.000 A 
ATOM      8  C   UNL     1      85.990  71.536  88.362  0.00  0.00    +0.000 A 
ENDBRANCH   1   3
BRANCH   1   9
ATOM      9  C   UNL     1      88.324  69.041  87.261  0.00  0.00    +0.000 C 
BRANCH   9  13
ATOM     10  C   UNL     1      88.716  67.421  83.752  0.00  0.00    +0.000 C 
ATOM     11  C   UNL     1      88.604  66.591  85.022  0.00  0.00    +0.000 C 
ATOM     12  S   UNL     1      89.923  66.942  86.218  0.00  0.00    +0.000 S 
ATOM     13  C   UNL     1      89.636  68.719  86.525  0.00  0.00    +0.000 C 
ATOM     14  S   UNL     1      89.803  69.677  84.978  0.00  0.00    +0.000 S 
ATOM     15  C   UNL     1      88.505  68.913  83.965  0.00  0.00    +0.000 C 
ENDBRANCH   9  13
ENDBRANCH   1   9
TORSDOF 3
ENDMDL
