MODEL 1
REMARK VINA RESULT:      -4.7      0.000      0.000
REMARK  Name = *****
REMARK  4 active torsions:
REMARK  status: ('A' for Active; 'I' for Inactive)
REMARK    1  A    between atoms: C_4  and  C_7
REMARK    2  A    between atoms: C_7  and  C_8
REMARK    3  A    between atoms: C_8  and  C_9
REMARK    4  A    between atoms: C_10  and  C_15
REMARK                            x       y       z     vdW  Elec       q    Type
REMARK                         _______ _______ _______ _____ _____    ______ ____
ROOT
ATOM      1  C   UNL     1      85.614  59.445  91.051  0.00  0.00    +0.000 C 
ENDROOT
BRANCH   1   2
ATOM      2  C   UNL     1      84.892  58.129  90.899  0.00  0.00    +0.000 A 
ATOM      3  C   UNL     1      85.542  56.936  90.578  0.00  0.00    +0.000 A 
ATOM      4  N   UNL     1      84.878  55.767  90.429  0.00  0.00    +0.000 NA
ATOM      5  N   UNL     1      83.523  55.728  90.594  0.00  0.00    +0.000 NA
ATOM      6  C   UNL     1      82.862  56.859  90.902  0.00  0.00    +0.000 A 
ATOM      7  C   UNL     1      83.504  58.074  91.059  0.00  0.00    +0.000 A 
BRANCH   3   8
ATOM      8  C   UNL     1      86.959  56.848  90.376  0.00  0.00    +0.000 C 
ATOM      9  N   UNL     1      88.099  56.787  90.160  0.00  0.00    +0.000 NA
ENDBRANCH   3   8
ENDBRANCH   1   2
BRANCH   1  10
ATOM     10  C   UNL     1      84.845  60.606  90.411  0.00  0.00    +0.000 C 
BRANCH  10  14
ATOM     11  C   UNL     1      87.509  63.811  89.306  0.00  0.00    +0.000 A 
ATOM     12  C   UNL     1      87.258  62.772  88.411  0.00  0.00    +0.000 A 
ATOM     13  C   UNL     1      86.391  61.737  88.766  0.00  0.00    +0.000 A 
ATOM     14  C   UNL     1      85.766  61.734  90.021  0.00  0.00    +0.000 A 
ATOM     15  C   UNL     1      86.026  62.782  90.914  0.00  0.00    +0.000 A 
ATOM     16  C   UNL     1      86.892  63.816  90.555  0.00  0.00    +0.000 A 
ENDBRANCH  10  14
ENDBRANCH   1  10
TORSDOF 4
ENDMDL
