MODEL 1
REMARK VINA RESULT:      -4.6      0.000      0.000
REMARK  Name = *****
REMARK  3 active torsions:
REMARK  status: ('A' for Active; 'I' for Inactive)
REMARK    1  A    between atoms: C_3  and  O_8
REMARK    2  A    between atoms: O_8  and  C_9
REMARK    3  A    between atoms: C_9  and  C_11
REMARK                            x       y       z     vdW  Elec       q    Type
REMARK                         _______ _______ _______ _____ _____    ______ ____
ROOT
ATOM      1  C   UNL     1      88.909  68.507  86.300  0.00  0.00    +0.000 C 
ATOM      2  O   UNL     1      88.367  68.581  85.208  0.00  0.00    +0.000 OA
ENDROOT
BRANCH   1   3
ATOM      3  C   UNL     1      88.294  69.069  87.526  0.00  0.00    +0.000 A 
ATOM      4  C   UNL     1      88.759  70.229  88.150  0.00  0.00    +0.000 A 
ATOM      5  C   UNL     1      88.127  70.707  89.300  0.00  0.00    +0.000 A 
ATOM      6  C   UNL     1      87.022  70.039  89.831  0.00  0.00    +0.000 A 
ATOM      7  C   UNL     1      86.546  68.886  89.208  0.00  0.00    +0.000 A 
ATOM      8  C   UNL     1      87.177  68.405  88.059  0.00  0.00    +0.000 A 
ATOM      9 CL   UNL     1      88.694  72.136  90.079  0.00  0.00    +0.000 Cl
ATOM     10  F   UNL     1      89.799  70.912  87.648  0.00  0.00    +0.000 F 
ENDBRANCH   1   3
BRANCH   1  11
ATOM     11  O   UNL     1      90.097  67.871  86.598  0.00  0.00    +0.000 OA
BRANCH  11  14
ATOM     12  C   UNL     1      89.296  64.290  86.443  0.00  0.00    +0.000 A 
ATOM     13  C   UNL     1      89.220  65.653  86.738  0.00  0.00    +0.000 A 
ATOM     14  C   UNL     1      90.183  66.522  86.224  0.00  0.00    +0.000 A 
ATOM     15  C   UNL     1      91.241  66.051  85.451  0.00  0.00    +0.000 A 
ATOM     16  C   UNL     1      91.302  64.693  85.167  0.00  0.00    +0.000 A 
ATOM     17  C   UNL     1      90.340  63.810  85.652  0.00  0.00    +0.000 A 
ATOM     18  F   UNL     1      92.309  64.220  84.419  0.00  0.00    +0.000 F 
ENDBRANCH  11  14
ENDBRANCH   1  11
TORSDOF 3
ENDMDL
