MODEL 1
REMARK VINA RESULT:      -4.3      0.000      0.000
REMARK  Name = *****
REMARK  5 active torsions:
REMARK  status: ('A' for Active; 'I' for Inactive)
REMARK    1  A    between atoms: C_1  and  O_2
REMARK    2  A    between atoms: O_2  and  C_3
REMARK    3  A    between atoms: C_3  and  C_4
REMARK    4  A    between atoms: C_3  and  C_10
REMARK    5  A    between atoms: C_10  and  C_11
REMARK                            x       y       z     vdW  Elec       q    Type
REMARK                         _______ _______ _______ _____ _____    ______ ____
ROOT
ATOM      1  C   UNL     1      88.230  69.451  87.401  0.00  0.00    +0.000 C 
ENDROOT
BRANCH   1   2
ATOM      2  C   UNL     1      88.994  69.587  86.091  0.00  0.00    +0.000 A 
ATOM      3  C   UNL     1      88.996  68.559  85.135  0.00  0.00    +0.000 A 
ATOM      4  C   UNL     1      89.686  68.706  83.932  0.00  0.00    +0.000 A 
ATOM      5  C   UNL     1      90.384  69.883  83.667  0.00  0.00    +0.000 A 
ATOM      6  C   UNL     1      90.390  70.914  84.605  0.00  0.00    +0.000 A 
ATOM      7  C   UNL     1      89.699  70.769  85.809  0.00  0.00    +0.000 A 
ENDBRANCH   1   2
BRANCH   1   9
ATOM      8  C   UNL     1      86.974  67.597  88.228  0.00  0.00    +0.000 C 
ATOM      9  O   UNL     1      87.070  68.616  87.239  0.00  0.00    +0.000 OA
ENDBRANCH   1   9
BRANCH   1  10
ATOM     10  C   UNL     1      87.857  70.848  87.972  0.00  0.00    +0.000 C 
ATOM     11 BR   UNL     1      88.106  70.843  89.933  0.00  0.00    +0.000 Br
BRANCH  10  12
ATOM     12  C   UNL     1      86.485  71.410  87.663  0.00  0.00    +0.000 A 
ATOM     13  C   UNL     1      86.052  71.658  86.350  0.00  0.00    +0.000 A 
ATOM     14  C   UNL     1      84.785  72.189  86.100  0.00  0.00    +0.000 A 
ATOM     15  C   UNL     1      83.930  72.483  87.158  0.00  0.00    +0.000 A 
ATOM     16  C   UNL     1      84.340  72.246  88.467  0.00  0.00    +0.000 A 
ATOM     17  C   UNL     1      85.608  71.715  88.718  0.00  0.00    +0.000 A 
ENDBRANCH  10  12
ENDBRANCH   1  10
TORSDOF 4
ENDMDL
