MODEL 1
REMARK VINA RESULT:      -5.1      0.000      0.000
REMARK  Name = *****
REMARK  5 active torsions:
REMARK  status: ('A' for Active; 'I' for Inactive)
REMARK    1  A    between atoms: C_1  and  C_2
REMARK    2  A    between atoms: C_2  and  O_4
REMARK    3  A    between atoms: O_4  and  C_5
REMARK    4  A    between atoms: C_9  and  C_11
REMARK    5  A    between atoms: C_12  and  C_13
REMARK                            x       y       z     vdW  Elec       q    Type
REMARK                         _______ _______ _______ _____ _____    ______ ____
ROOT
ATOM      1  C   UNL     1      98.918 127.713  82.803  0.00  0.00    +0.000 A 
ATOM      2  C   UNL     1      99.313 128.891  83.433  0.00  0.00    +0.000 A 
ATOM      3  C   UNL     1     100.667 129.110  83.674  0.00  0.00    +0.000 A 
ATOM      4  C   UNL     1     101.609 128.142  83.307  0.00  0.00    +0.000 A 
ATOM      5  C   UNL     1     101.207 126.938  82.708  0.00  0.00    +0.000 A 
ATOM      6  C   UNL     1      99.846 126.733  82.452  0.00  0.00    +0.000 A 
ENDROOT
BRANCH   5   7
ATOM      7  C   UNL     1     102.172 125.912  82.292  0.00  0.00    +0.000 C 
ATOM      8  C   UNL     1     102.973 126.034  81.220  0.00  0.00    +0.000 C 
BRANCH   8   9
ATOM      9  C   UNL     1     103.951 125.015  80.811  0.00  0.00    +0.000 A 
ATOM     10  C   UNL     1     104.791 125.187  79.702  0.00  0.00    +0.000 A 
ATOM     11  C   UNL     1     105.730 124.209  79.365  0.00  0.00    +0.000 A 
ATOM     12  C   UNL     1     105.848 123.056  80.137  0.00  0.00    +0.000 A 
ATOM     13  C   UNL     1     105.030 122.882  81.252  0.00  0.00    +0.000 A 
ATOM     14  C   UNL     1     104.091 123.859  81.590  0.00  0.00    +0.000 A 
ENDBRANCH   8   9
ENDBRANCH   5   7
BRANCH   1  15
ATOM     15  O   UNL     1      97.564 127.430  82.589  0.00  0.00    +0.000 OA
BRANCH  15  17
ATOM     16  C   UNL     1      97.032 126.642  84.737  0.00  0.00    +0.000 C 
ATOM     17  C   UNL     1      97.072 126.322  83.272  0.00  0.00    +0.000 C 
ATOM     18  O   UNL     1      96.732 125.249  82.793  0.00  0.00    +0.000 OA
ENDBRANCH  15  17
ENDBRANCH   1  15
TORSDOF 4
ENDMDL
