MODEL 1
REMARK VINA RESULT:      -5.0      0.000      0.000
REMARK  Name = *****
REMARK  4 active torsions:
REMARK  status: ('A' for Active; 'I' for Inactive)
REMARK    1  A    between atoms: C_6  and  O_7
REMARK    2  A    between atoms: O_7  and  C_8
REMARK    3  A    between atoms: C_8  and  C_10
REMARK    4  A    between atoms: C_13  and  C_16
REMARK                            x       y       z     vdW  Elec       q    Type
REMARK                         _______ _______ _______ _____ _____    ______ ____
ROOT
ATOM      1  C   UNL     1      88.593  66.164  86.689  0.00  0.00    +0.000 A 
ATOM      2  C   UNL     1      87.582  66.873  87.345  0.00  0.00    +0.000 A 
ATOM      3  C   UNL     1      87.717  68.245  87.544  0.00  0.00    +0.000 A 
ATOM      4  C   UNL     1      88.841  68.941  87.104  0.00  0.00    +0.000 A 
ATOM      5  C   UNL     1      89.855  68.231  86.447  0.00  0.00    +0.000 A 
ATOM      6  C   UNL     1      89.731  66.853  86.240  0.00  0.00    +0.000 A 
ATOM      7  F   UNL     1      86.733  68.901  88.174  0.00  0.00    +0.000 F 
ENDROOT
BRANCH   4   8
ATOM      8  C   UNL     1      88.929  70.420  87.348  0.00  0.00    +0.000 C 
ATOM      9  F   UNL     1      87.882  71.106  86.817  0.00  0.00    +0.000 F 
ATOM     10  F   UNL     1      88.968  70.738  88.669  0.00  0.00    +0.000 F 
ATOM     11  F   UNL     1      90.048  70.982  86.804  0.00  0.00    +0.000 F 
ENDBRANCH   4   8
BRANCH   1  12
ATOM     12  C   UNL     1      88.517  64.698  86.439  0.00  0.00    +0.000 C 
ATOM     13  O   UNL     1      88.067  64.224  85.406  0.00  0.00    +0.000 OA
BRANCH  12  14
ATOM     14  O   UNL     1      89.020  64.012  87.528  0.00  0.00    +0.000 OA
BRANCH  14  20
ATOM     15  C   UNL     1      87.166  62.549  88.113  0.00  0.00    +0.000 A 
ATOM     16  C   UNL     1      86.265  62.091  89.076  0.00  0.00    +0.000 A 
ATOM     17  C   UNL     1      86.285  62.640  90.359  0.00  0.00    +0.000 A 
ATOM     18  C   UNL     1      87.200  63.640  90.692  0.00  0.00    +0.000 A 
ATOM     19  C   UNL     1      88.102  64.102  89.732  0.00  0.00    +0.000 A 
ATOM     20  C   UNL     1      88.063  63.564  88.446  0.00  0.00    +0.000 A 
ATOM     21 CL   UNL     1      85.176  62.071  91.547  0.00  0.00    +0.000 Cl
ENDBRANCH  14  20
ENDBRANCH  12  14
ENDBRANCH   1  12
TORSDOF 4
ENDMDL
