MODEL 1
REMARK VINA RESULT:      -4.9      0.000      0.000
REMARK  Name = *****
REMARK  2 active torsions:
REMARK  status: ('A' for Active; 'I' for Inactive)
REMARK    1  A    between atoms: C_5  and  C_7
REMARK    2  A    between atoms: C_8  and  C_9
REMARK                            x       y       z     vdW  Elec       q    Type
REMARK                         _______ _______ _______ _____ _____    ______ ____
ROOT
ATOM      1  C   UNL     1     101.818 126.108  82.501  0.00  0.00    +0.000 C 
ATOM      2  C   UNL     1     102.754 126.200  81.544  0.00  0.00    +0.000 C 
ATOM      3  F   UNL     1     102.812 127.310  80.770  0.00  0.00    +0.000 F 
ENDROOT
BRANCH   2   4
ATOM      4  C   UNL     1     103.797 125.187  81.296  0.00  0.00    +0.000 A 
ATOM      5  C   UNL     1     104.487 125.217  80.075  0.00  0.00    +0.000 A 
ATOM      6  C   UNL     1     105.475 124.269  79.781  0.00  0.00    +0.000 A 
ATOM      7  C   UNL     1     105.779 123.269  80.709  0.00  0.00    +0.000 A 
ATOM      8  C   UNL     1     105.090 123.221  81.922  0.00  0.00    +0.000 A 
ATOM      9  C   UNL     1     104.105 124.171  82.212  0.00  0.00    +0.000 A 
ATOM     10 CL   UNL     1     106.983 122.065  80.418  0.00  0.00    +0.000 Cl
ATOM     11 CL   UNL     1     106.278 124.391  78.255  0.00  0.00    +0.000 Cl
ENDBRANCH   2   4
BRANCH   1  16
ATOM     12  C   UNL     1      99.977 129.209  83.622  0.00  0.00    +0.000 A 
ATOM     13  C   UNL     1      98.703 128.857  83.198  0.00  0.00    +0.000 A 
ATOM     14  C   UNL     1      98.541 127.631  82.578  0.00  0.00    +0.000 A 
ATOM     15  N   UNL     1      99.548 126.755  82.366  0.00  0.00    +0.000 NA
ATOM     16  C   UNL     1     100.783 127.101  82.804  0.00  0.00    +0.000 A 
ATOM     17  C   UNL     1     101.035 128.324  83.418  0.00  0.00    +0.000 A 
ENDBRANCH   1  16
TORSDOF 2
ENDMDL
