MODEL 1
REMARK VINA RESULT:      -5.2      0.000      0.000
REMARK  Name = *****
REMARK  2 active torsions:
REMARK  status: ('A' for Active; 'I' for Inactive)
REMARK    1  A    between atoms: C_1  and  C_2
REMARK    2  A    between atoms: C_9  and  C_11
REMARK                            x       y       z     vdW  Elec       q    Type
REMARK                         _______ _______ _______ _____ _____    ______ ____
ROOT
ATOM      1  C   UNL     1      99.144 130.651  84.430  0.00  0.00    +0.000 C 
ATOM      2  C   UNL     1      99.619 129.386  83.773  0.00  0.00    +0.000 A 
ATOM      3  C   UNL     1     100.983 129.036  83.809  0.00  0.00    +0.000 A 
ATOM      4  C   UNL     1     101.385 127.845  83.187  0.00  0.00    +0.000 A 
ATOM      5  C   UNL     1     100.432 127.059  82.565  0.00  0.00    +0.000 A 
ATOM      6  C   UNL     1      99.078 127.357  82.502  0.00  0.00    +0.000 A 
ATOM      7  C   UNL     1      98.689 128.548  83.127  0.00  0.00    +0.000 A 
ATOM      8  O   UNL     1     101.065 125.970  82.044  0.00  0.00    +0.000 OA
ATOM      9  C   UNL     1     102.383 126.157  82.384  0.00  0.00    +0.000 A 
ATOM     10  N   UNL     1     102.621 127.264  83.066  0.00  0.00    +0.000 NA
ENDROOT
BRANCH   9  11
ATOM     11  C   UNL     1     103.325 125.125  81.953  0.00  0.00    +0.000 A 
ATOM     12  C   UNL     1     103.733 125.001  80.616  0.00  0.00    +0.000 A 
ATOM     13  C   UNL     1     104.635 124.001  80.233  0.00  0.00    +0.000 A 
ATOM     14  C   UNL     1     105.135 123.118  81.186  0.00  0.00    +0.000 A 
ATOM     15  C   UNL     1     104.743 123.224  82.518  0.00  0.00    +0.000 A 
ATOM     16  C   UNL     1     103.841 124.224  82.898  0.00  0.00    +0.000 A 
ATOM     17 CL   UNL     1     106.243 121.890  80.714  0.00  0.00    +0.000 Cl
ENDBRANCH   9  11
TORSDOF 1
ENDMDL
