MODEL 1
REMARK VINA RESULT:      -4.6      0.000      0.000
REMARK  Name = *****
REMARK  3 active torsions:
REMARK  status: ('A' for Active; 'I' for Inactive)
REMARK    1  A    between atoms: C_1  and  N_2
REMARK    2  A    between atoms: N_2  and  C_11
REMARK    3  A    between atoms: N_4  and  C_5
REMARK                            x       y       z     vdW  Elec       q    Type
REMARK                         _______ _______ _______ _____ _____    ______ ____
ROOT
ATOM      1  C   UNL     1      89.993  63.837  85.721  0.00  0.00    +0.000 C 
ATOM      2  N   UNL     1      89.088  64.669  86.511  0.00  0.00    +0.000 N 
ATOM      3  C   UNL     1      89.164  66.043  86.387  0.00  0.00    +0.000 C 
ATOM      4  N   UNL     1      89.876  66.699  85.525  0.00  0.00    +0.000 NA
ENDROOT
BRANCH   2   5
ATOM      5  C   UNL     1      88.315  64.028  87.505  0.00  0.00    +0.000 A 
ATOM      6  C   UNL     1      88.428  64.354  88.869  0.00  0.00    +0.000 A 
ATOM      7  C   UNL     1      87.652  63.715  89.845  0.00  0.00    +0.000 A 
ATOM      8  C   UNL     1      86.746  62.729  89.473  0.00  0.00    +0.000 A 
ATOM      9  C   UNL     1      86.611  62.378  88.135  0.00  0.00    +0.000 A 
ATOM     10  C   UNL     1      87.389  63.023  87.165  0.00  0.00    +0.000 A 
ATOM     11 CL   UNL     1      85.793  61.943  90.668  0.00  0.00    +0.000 Cl
ENDBRANCH   2   5
BRANCH   4  12
ATOM     12  C   UNL     1      89.801  68.095  85.607  0.00  0.00    +0.000 A 
ATOM     13  C   UNL     1      89.572  68.726  86.833  0.00  0.00    +0.000 A 
ATOM     14  C   UNL     1      89.509  70.119  86.911  0.00  0.00    +0.000 A 
ATOM     15  C   UNL     1      89.686  70.889  85.761  0.00  0.00    +0.000 A 
ATOM     16  C   UNL     1      89.932  70.268  84.538  0.00  0.00    +0.000 A 
ATOM     17  C   UNL     1      89.992  68.874  84.464  0.00  0.00    +0.000 A 
ENDBRANCH   4  12
TORSDOF 2
ENDMDL
