MODEL 1
REMARK VINA RESULT:      -4.9      0.000      0.000
REMARK  Name = *****
REMARK  4 active torsions:
REMARK  status: ('A' for Active; 'I' for Inactive)
REMARK    1  A    between atoms: C_1  and  C_2
REMARK    2  A    between atoms: C_2  and  C_3
REMARK    3  A    between atoms: C_3  and  C_11
REMARK    4  A    between atoms: C_4  and  C_5
REMARK                            x       y       z     vdW  Elec       q    Type
REMARK                         _______ _______ _______ _____ _____    ______ ____
ROOT
ATOM      1  C   UNL     1     102.900 125.977  81.558  0.00  0.00    +0.000 C 
ATOM      2  C   UNL     1     101.901 125.976  82.466  0.00  0.00    +0.000 C 
ENDROOT
BRANCH   2   3
ATOM      3  C   UNL     1     100.877 127.004  82.715  0.00  0.00    +0.000 A 
ATOM      4  C   UNL     1     101.224 128.168  83.398  0.00  0.00    +0.000 A 
ATOM      5  C   UNL     1     100.240 129.120  83.658  0.00  0.00    +0.000 A 
ATOM      6  C   UNL     1      98.938 128.882  83.239  0.00  0.00    +0.000 A 
ATOM      7  C   UNL     1      98.675 127.696  82.576  0.00  0.00    +0.000 A 
ATOM      8  N   UNL     1      99.611 126.759  82.312  0.00  0.00    +0.000 NA
ENDBRANCH   2   3
BRANCH   1   9
ATOM      9  C   UNL     1     103.781 124.790  81.522  0.00  0.00    +0.000 A 
ATOM     10  C   UNL     1     104.373 124.386  80.318  0.00  0.00    +0.000 A 
ATOM     11  C   UNL     1     105.198 123.261  80.279  0.00  0.00    +0.000 A 
ATOM     12  C   UNL     1     105.435 122.529  81.442  0.00  0.00    +0.000 A 
ATOM     13  C   UNL     1     104.847 122.921  82.644  0.00  0.00    +0.000 A 
ATOM     14  C   UNL     1     104.022 124.047  82.685  0.00  0.00    +0.000 A 
ENDBRANCH   1   9
BRANCH   1  16
ATOM     15  C   UNL     1     104.235 128.090  81.245  0.00  0.00    +0.000 C 
ATOM     16  C   UNL     1     103.270 127.096  80.612  0.00  0.00    +0.000 C 
ENDBRANCH   1  16
TORSDOF 3
ENDMDL
