MODEL 1
REMARK VINA RESULT:      -4.7      0.000      0.000
REMARK  Name = *****
REMARK  5 active torsions:
REMARK  status: ('A' for Active; 'I' for Inactive)
REMARK    1  A    between atoms: C_1  and  S_2
REMARK    2  A    between atoms: S_2  and  C_3
REMARK    3  A    between atoms: S_2  and  C_12
REMARK    4  A    between atoms: C_3  and  C_4
REMARK    5  A    between atoms: C_4  and  C_6
REMARK                            x       y       z     vdW  Elec       q    Type
REMARK                         _______ _______ _______ _____ _____    ______ ____
ROOT
ATOM      1  C   UNL     1     100.556 126.938  82.367  0.00  0.00    +0.000 C 
ENDROOT
BRANCH   1   3
ATOM      2  C   UNL     1     102.634 128.030  83.669  0.00  0.00    +0.000 C 
ATOM      3  S   UNL     1     101.722 126.467  83.648  0.00  0.00    +0.000 S 
BRANCH   3   4
ATOM      4  C   UNL     1     102.829 125.492  82.617  0.00  0.00    +0.000 A 
ATOM      5  C   UNL     1     102.968 125.682  81.237  0.00  0.00    +0.000 A 
ATOM      6  C   UNL     1     103.845 124.882  80.500  0.00  0.00    +0.000 A 
ATOM      7  C   UNL     1     104.588 123.888  81.136  0.00  0.00    +0.000 A 
ATOM      8  C   UNL     1     104.456 123.694  82.509  0.00  0.00    +0.000 A 
ATOM      9  C   UNL     1     103.578 124.493  83.245  0.00  0.00    +0.000 A 
ENDBRANCH   3   4
ENDBRANCH   1   3
BRANCH   1  10
ATOM     10  C   UNL     1      99.177 127.390  82.703  0.00  0.00    +0.000 C 
ATOM     11  O   UNL     1      98.261 126.817  82.131  0.00  0.00    +0.000 OA
BRANCH  10  12
ATOM     12  C   UNL     1      98.974 128.466  83.701  0.00  0.00    +0.000 A 
ATOM     13  C   UNL     1      98.346 128.221  84.928  0.00  0.00    +0.000 A 
ATOM     14  C   UNL     1      98.169 129.266  85.840  0.00  0.00    +0.000 A 
ATOM     15  C   UNL     1      98.617 130.549  85.530  0.00  0.00    +0.000 A 
ATOM     16  C   UNL     1      99.245 130.796  84.310  0.00  0.00    +0.000 A 
ATOM     17  C   UNL     1      99.424 129.756  83.395  0.00  0.00    +0.000 A 
ENDBRANCH  10  12
ENDBRANCH   1  10
TORSDOF 4
ENDMDL
