REMARK  Name = *****
REMARK  5 active torsions:
REMARK  status: ('A' for Active; 'I' for Inactive)
REMARK    1  A    between atoms: C_1  and  O_2
REMARK    2  A    between atoms: O_2  and  P_3
REMARK    3  A    between atoms: P_3  and  C_5
REMARK    4  A    between atoms: P_3  and  O_11
REMARK    5  A    between atoms: O_11  and  C_12
REMARK                            x       y       z     vdW  Elec       q    Type
REMARK                         _______ _______ _______ _____ _____    ______ ____
ROOT
ATOM      1  P   UNL     1       3.236   1.251   0.070  0.00  0.00    +0.000 P 
ATOM      2  S   UNL     1       4.372  -0.336   0.241  0.00  0.00    +0.000 S 
ENDROOT
BRANCH   1   3
ATOM      3  C   UNL     1       2.508   1.748  -1.493  0.00  0.00    +0.000 A 
ATOM      4  C   UNL     1       1.768   2.939  -1.576  0.00  0.00    +0.000 A 
ATOM      5  C   UNL     1       1.192   3.339  -2.782  0.00  0.00    +0.000 A 
ATOM      6  C   UNL     1       1.345   2.551  -3.920  0.00  0.00    +0.000 A 
ATOM      7  C   UNL     1       2.071   1.364  -3.854  0.00  0.00    +0.000 A 
ATOM      8  C   UNL     1       2.649   0.963  -2.648  0.00  0.00    +0.000 A 
ENDBRANCH   1   3
BRANCH   1  10
ATOM      9  C   UNL     1       1.018   0.128   0.924  0.00  0.00    +0.000 C 
ATOM     10  O   UNL     1       1.944   1.189   1.065  0.00  0.00    +0.000 OA
ENDBRANCH   1  10
BRANCH   1  11
ATOM     11  O   UNL     1       3.914   2.602   0.653  0.00  0.00    +0.000 OA
BRANCH  11  12
ATOM     12  C   UNL     1       4.976   3.296   0.139  0.00  0.00    +0.000 A 
ATOM     13  C   UNL     1       5.688   2.895  -0.992  0.00  0.00    +0.000 A 
ATOM     14  C   UNL     1       6.761   3.663  -1.456  0.00  0.00    +0.000 A 
ATOM     15  C   UNL     1       7.130   4.833  -0.795  0.00  0.00    +0.000 A 
ATOM     16  C   UNL     1       6.423   5.241   0.335  0.00  0.00    +0.000 A 
ATOM     17  C   UNL     1       5.351   4.475   0.799  0.00  0.00    +0.000 A 
ATOM     18 CL   UNL     1       4.499   5.031   2.197  0.00  0.00    +0.000 Cl
ENDBRANCH  11  12
ENDBRANCH   1  11
TORSDOF 4
