MODEL 1
REMARK VINA RESULT:      -5.2      0.000      0.000
REMARK  Name = *****
REMARK  1 active torsions:
REMARK  status: ('A' for Active; 'I' for Inactive)
REMARK    1  A    between atoms: C_3  and  C_11
REMARK                            x       y       z     vdW  Elec       q    Type
REMARK                         _______ _______ _______ _____ _____    ______ ____
ROOT
ATOM      1  C   UNL     1     103.671 126.916  83.820  0.00  0.00    +0.000 C 
ATOM      2  C   UNL     1     103.089 125.546  83.613  0.00  0.00    +0.000 C 
ATOM      3  C   UNL     1     102.648 126.707  82.716  0.00  0.00    +0.000 C 
ATOM      4  C   UNL     1     103.127 126.429  81.278  0.00  0.00    +0.000 C 
ATOM      5  C   UNL     1     103.772 125.064  81.369  0.00  0.00    +0.000 A 
ATOM      6  C   UNL     1     104.336 124.338  80.331  0.00  0.00    +0.000 A 
ATOM      7  C   UNL     1     104.891 123.091  80.623  0.00  0.00    +0.000 A 
ATOM      8  C   UNL     1     104.877 122.593  81.934  0.00  0.00    +0.000 A 
ATOM      9  C   UNL     1     104.308 123.335  82.972  0.00  0.00    +0.000 A 
ATOM     10  C   UNL     1     103.751 124.574  82.689  0.00  0.00    +0.000 A 
ENDROOT
BRANCH   3  11
ATOM     11  C   UNL     1     101.274 127.323  82.866  0.00  0.00    +0.000 A 
ATOM     12  C   UNL     1     101.099 128.570  83.489  0.00  0.00    +0.000 A 
ATOM     13  C   UNL     1      99.834 129.148  83.620  0.00  0.00    +0.000 A 
ATOM     14  C   UNL     1      98.713 128.490  83.124  0.00  0.00    +0.000 A 
ATOM     15  C   UNL     1      98.858 127.256  82.495  0.00  0.00    +0.000 A 
ATOM     16  C   UNL     1     100.126 126.683  82.369  0.00  0.00    +0.000 A 
ENDBRANCH   3  11
TORSDOF 1
ENDMDL
