MODEL 1
REMARK VINA RESULT:      -4.0      0.000      0.000
REMARK  Name = *****
REMARK  5 active torsions:
REMARK  status: ('A' for Active; 'I' for Inactive)
REMARK    1  A    between atoms: C_2  and  C_3
REMARK    2  A    between atoms: C_3  and  C_4
REMARK    3  A    between atoms: C_3  and  O_9
REMARK    4  A    between atoms: O_9  and  C_10
REMARK    5  A    between atoms: C_10  and  C_11
REMARK                            x       y       z     vdW  Elec       q    Type
REMARK                         _______ _______ _______ _____ _____    ______ ____
ROOT
ATOM      1  C   UNL     1      89.643  66.970  86.199  0.00  0.00    +0.000 C 
ENDROOT
BRANCH   1   2
ATOM      2  C   UNL     1      88.940  66.288  87.383  0.00  0.00    +0.000 C 
ATOM      3  C   UNL     1      88.729  64.787  87.168  0.00  0.00    +0.000 C 
ATOM      4  C   UNL     1      87.693  64.396  88.218  0.00  0.00    +0.000 C 
ATOM      5  C   UNL     1      86.928  65.676  88.554  0.00  0.00    +0.000 C 
ATOM      6  C   UNL     1      87.510  66.762  87.657  0.00  0.00    +0.000 C 
ENDBRANCH   1   2
BRANCH   1   8
ATOM      7  C   UNL     1      91.664  65.284  85.176  0.00  0.00    +0.000 C 
ATOM      8  C   UNL     1      90.731  66.063  85.648  0.00  0.00    +0.000 C 
ENDBRANCH   1   8
BRANCH   1   9
ATOM      9  O   UNL     1      90.213  68.209  86.623  0.00  0.00    +0.000 OA
BRANCH   9  10
ATOM     10  C   UNL     1      89.725  69.325  85.888  0.00  0.00    +0.000 C 
BRANCH  10  11
ATOM     11  C   UNL     1      88.704  70.038  86.734  0.00  0.00    +0.000 A 
ATOM     12  C   UNL     1      88.893  70.178  88.117  0.00  0.00    +0.000 A 
ATOM     13  C   UNL     1      87.940  70.833  88.899  0.00  0.00    +0.000 A 
ATOM     14  C   UNL     1      86.787  71.347  88.309  0.00  0.00    +0.000 A 
ATOM     15  C   UNL     1      86.581  71.201  86.939  0.00  0.00    +0.000 A 
ATOM     16  C   UNL     1      87.532  70.547  86.155  0.00  0.00    +0.000 A 
ENDBRANCH  10  11
ENDBRANCH   9  10
ENDBRANCH   1   9
TORSDOF 5
ENDMDL
