MODEL 1
REMARK VINA RESULT:      -4.9      0.000      0.000
REMARK  Name = *****
REMARK  2 active torsions:
REMARK  status: ('A' for Active; 'I' for Inactive)
REMARK    1  A    between atoms: C_9  and  C_10
REMARK    2  A    between atoms: C_10  and  C_11
REMARK                            x       y       z     vdW  Elec       q    Type
REMARK                         _______ _______ _______ _____ _____    ______ ____
ROOT
ATOM      1  C   UNL     1      86.611  71.621  89.405  0.00  0.00    +0.000 C 
ATOM      2  C   UNL     1      85.128  71.977  89.229  0.00  0.00    +0.000 C 
ATOM      3  C   UNL     1      85.033  72.082  87.741  0.00  0.00    +0.000 A 
ATOM      4  C   UNL     1      84.030  72.675  86.993  0.00  0.00    +0.000 A 
ATOM      5  C   UNL     1      84.126  72.628  85.600  0.00  0.00    +0.000 A 
ATOM      6  C   UNL     1      85.210  71.986  84.979  0.00  0.00    +0.000 A 
ATOM      7  C   UNL     1      86.209  71.380  85.742  0.00  0.00    +0.000 A 
ATOM      8  C   UNL     1      86.108  71.435  87.123  0.00  0.00    +0.000 A 
ATOM      9  C   UNL     1      87.040  70.834  88.145  0.00  0.00    +0.000 C 
ENDROOT
BRANCH   9  10
ATOM     10  C   UNL     1      86.831  69.315  88.260  0.00  0.00    +0.000 C 
BRANCH  10  11
ATOM     11  C   UNL     1      87.896  68.508  87.555  0.00  0.00    +0.000 A 
ATOM     12  C   UNL     1      88.977  69.146  86.932  0.00  0.00    +0.000 A 
ATOM     13  C   UNL     1      89.959  68.400  86.278  0.00  0.00    +0.000 A 
ATOM     14  C   UNL     1      89.872  67.011  86.241  0.00  0.00    +0.000 A 
ATOM     15  C   UNL     1      88.803  66.365  86.860  0.00  0.00    +0.000 A 
ATOM     16  C   UNL     1      87.821  67.109  87.515  0.00  0.00    +0.000 A 
ENDBRANCH  10  11
ENDBRANCH   9  10
TORSDOF 2
ENDMDL
