REMARK  Name = *****
REMARK  3 active torsions:
REMARK  status: ('A' for Active; 'I' for Inactive)
REMARK    1  A    between atoms: C_5  and  C_6
REMARK    2  A    between atoms: C_5  and  S_8
REMARK    3  A    between atoms: S_8  and  C_9
REMARK                            x       y       z     vdW  Elec       q    Type
REMARK                         _______ _______ _______ _____ _____    ______ ____
ROOT
ATOM      1  C   UNL     1       2.011   0.081  -0.201  0.00  0.00    +0.000 C 
ATOM      2  C   UNL     1       1.299  -1.269  -0.279  0.00  0.00    +0.000 C 
ATOM      3  C   UNL     1      -0.100  -1.145  -0.890  0.00  0.00    +0.000 C 
ATOM      4  C   UNL     1      -0.927  -0.121  -0.125  0.00  0.00    +0.000 C 
ATOM      5  C   UNL     1      -2.105  -0.386   0.486  0.00  0.00    +0.000 C 
ATOM      6  C   UNL     1      -0.236   1.233  -0.138  0.00  0.00    +0.000 C 
ATOM      7  C   UNL     1       1.151   1.134   0.498  0.00  0.00    +0.000 C 
ENDROOT
BRANCH   5   8
ATOM      8  C   UNL     1      -2.885   0.629   1.269  0.00  0.00    +0.000 C 
ATOM      9  O   UNL     1      -2.392   1.553   1.905  0.00  0.00    +0.000 OA
ENDBRANCH   5   8
BRANCH   5  10
ATOM     10  S   UNL     1      -2.908  -1.934   0.379  0.00  0.00    +0.000 S 
BRANCH  10  11
ATOM     11  C   UNL     1      -2.933  -2.392   2.105  0.00  0.00    +0.000 A 
ATOM     12  C   UNL     1      -4.154  -2.717   2.705  0.00  0.00    +0.000 A 
ATOM     13  C   UNL     1      -4.204  -3.085   4.051  0.00  0.00    +0.000 A 
ATOM     14  C   UNL     1      -3.032  -3.138   4.804  0.00  0.00    +0.000 A 
ATOM     15  C   UNL     1      -1.809  -2.828   4.210  0.00  0.00    +0.000 A 
ATOM     16  C   UNL     1      -1.758  -2.461   2.864  0.00  0.00    +0.000 A 
ENDBRANCH  10  11
ENDBRANCH   5  10
TORSDOF 3
