MODEL 1
REMARK VINA RESULT:      -4.2      0.000      0.000
REMARK  Name = *****
REMARK  4 active torsions:
REMARK  status: ('A' for Active; 'I' for Inactive)
REMARK    1  A    between atoms: C_1  and  O_2
REMARK    2  A    between atoms: O_2  and  C_3
REMARK    3  A    between atoms: C_3  and  S_10
REMARK    4  A    between atoms: S_10  and  C_11
REMARK                            x       y       z     vdW  Elec       q    Type
REMARK                         _______ _______ _______ _____ _____    ______ ____
ROOT
ATOM      1  C   UNL     1      89.046  67.242  86.432  0.00  0.00    +0.000 C 
ATOM      2  C   UNL     1      88.535  68.476  86.633  0.00  0.00    +0.000 C 
ATOM      3  C   UNL     1      89.413  69.659  86.998  0.00  0.00    +0.000 C 
ATOM      4  C   UNL     1      88.960  70.279  88.320  0.00  0.00    +0.000 C 
ATOM      5  C   UNL     1      87.479  70.655  88.295  0.00  0.00    +0.000 C 
ATOM      6  C   UNL     1      86.605  69.471  87.882  0.00  0.00    +0.000 C 
ATOM      7  C   UNL     1      87.070  68.860  86.559  0.00  0.00    +0.000 C 
ENDROOT
BRANCH   1   9
ATOM      8  C   UNL     1      90.893  66.084  85.620  0.00  0.00    +0.000 C 
ATOM      9  O   UNL     1      90.412  67.037  86.567  0.00  0.00    +0.000 OA
ENDBRANCH   1   9
BRANCH   1  10
ATOM     10  S   UNL     1      88.059  65.837  86.119  0.00  0.00    +0.000 S 
BRANCH  10  11
ATOM     11  C   UNL     1      87.908  65.203  87.782  0.00  0.00    +0.000 A 
ATOM     12  C   UNL     1      86.911  65.720  88.618  0.00  0.00    +0.000 A 
ATOM     13  C   UNL     1      86.759  65.238  89.921  0.00  0.00    +0.000 A 
ATOM     14  C   UNL     1      87.597  64.229  90.392  0.00  0.00    +0.000 A 
ATOM     15  C   UNL     1      88.583  63.699  89.562  0.00  0.00    +0.000 A 
ATOM     16  C   UNL     1      88.734  64.181  88.260  0.00  0.00    +0.000 A 
ENDBRANCH  10  11
ENDBRANCH   1  10
TORSDOF 3
ENDMDL
