MODEL 1
REMARK VINA RESULT:      -4.5      0.000      0.000
REMARK  Name = *****
REMARK  4 active torsions:
REMARK  status: ('A' for Active; 'I' for Inactive)
REMARK    1  A    between atoms: C_3  and  C_8
REMARK    2  A    between atoms: C_8  and  C_9
REMARK    3  A    between atoms: C_9  and  C_10
REMARK    4  A    between atoms: C_10  and  C_12
REMARK                            x       y       z     vdW  Elec       q    Type
REMARK                         _______ _______ _______ _____ _____    ______ ____
ROOT
ATOM      1  C   UNL     1      88.753  67.265  85.840  0.00  0.00    +0.000 C 
ATOM      2  O   UNL     1      88.320  66.994  84.722  0.00  0.00    +0.000 OA
ENDROOT
BRANCH   1   3
ATOM      3  C   UNL     1      88.142  66.601  87.033  0.00  0.00    +0.000 A 
ATOM      4  C   UNL     1      88.705  65.464  87.628  0.00  0.00    +0.000 A 
ATOM      5  C   UNL     1      88.090  64.886  88.743  0.00  0.00    +0.000 A 
ATOM      6  C   UNL     1      86.920  65.436  89.263  0.00  0.00    +0.000 A 
ATOM      7  C   UNL     1      86.352  66.564  88.681  0.00  0.00    +0.000 A 
ATOM      8  C   UNL     1      86.962  67.145  87.566  0.00  0.00    +0.000 A 
ATOM      9  F   UNL     1      86.321  64.891  90.331  0.00  0.00    +0.000 F 
ATOM     10 CL   UNL     1      88.794  63.488  89.461  0.00  0.00    +0.000 Cl
ENDBRANCH   1   3
BRANCH   1  11
ATOM     11  C   UNL     1      89.888  68.248  86.053  0.00  0.00    +0.000 C 
BRANCH  11  12
ATOM     12  C   UNL     1      89.467  69.678  85.714  0.00  0.00    +0.000 C 
BRANCH  12  15
ATOM     13  C   UNL     1      88.186  70.749  89.143  0.00  0.00    +0.000 A 
ATOM     14  C   UNL     1      89.002  70.227  88.138  0.00  0.00    +0.000 A 
ATOM     15  C   UNL     1      88.595  70.265  86.798  0.00  0.00    +0.000 A 
ATOM     16  C   UNL     1      87.350  70.827  86.480  0.00  0.00    +0.000 A 
ATOM     17  C   UNL     1      86.538  71.346  87.489  0.00  0.00    +0.000 A 
ATOM     18  C   UNL     1      86.951  71.310  88.819  0.00  0.00    +0.000 A 
ATOM     19 CL   UNL     1      85.012  72.033  87.087  0.00  0.00    +0.000 Cl
ENDBRANCH  12  15
ENDBRANCH  11  12
ENDBRANCH   1  11
TORSDOF 4
ENDMDL
