MODEL 1
REMARK VINA RESULT:      -5.0      0.000      0.000
REMARK  Name = *****
REMARK  2 active torsions:
REMARK  status: ('A' for Active; 'I' for Inactive)
REMARK    1  A    between atoms: C_4  and  O_7
REMARK    2  A    between atoms: O_7  and  C_8
REMARK                            x       y       z     vdW  Elec       q    Type
REMARK                         _______ _______ _______ _____ _____    ______ ____
ROOT
ATOM      1  C   UNL     1     100.989 127.325  83.159  0.00  0.00    +0.000 A 
ATOM      2  N   UNL     1      99.994 126.587  82.610  0.00  0.00    +0.000 NA
ATOM      3  C   UNL     1      98.795 127.185  82.488  0.00  0.00    +0.000 A 
ATOM      4  C   UNL     1      98.535 128.483  82.896  0.00  0.00    +0.000 A 
ATOM      5  C   UNL     1      99.567 129.231  83.476  0.00  0.00    +0.000 A 
ATOM      6  C   UNL     1      99.358 130.551  83.910  0.00  0.00    +0.000 A 
ATOM      7  C   UNL     1     100.393 131.286  84.488  0.00  0.00    +0.000 A 
ATOM      8  C   UNL     1     101.652 130.714  84.643  0.00  0.00    +0.000 A 
ATOM      9  C   UNL     1     101.876 129.404  84.217  0.00  0.00    +0.000 A 
ATOM     10  C   UNL     1     100.841 128.645  83.627  0.00  0.00    +0.000 A 
ENDROOT
BRANCH   1  11
ATOM     11  O   UNL     1     102.227 126.716  83.336  0.00  0.00    +0.000 OA
BRANCH  11  15
ATOM     12  C   UNL     1     104.334 125.294  80.039  0.00  0.00    +0.000 A 
ATOM     13  C   UNL     1     103.909 126.624  80.048  0.00  0.00    +0.000 A 
ATOM     14  C   UNL     1     103.185 127.120  81.134  0.00  0.00    +0.000 A 
ATOM     15  C   UNL     1     102.875 126.277  82.204  0.00  0.00    +0.000 A 
ATOM     16  C   UNL     1     103.317 124.953  82.205  0.00  0.00    +0.000 A 
ATOM     17  C   UNL     1     104.041 124.460  81.118  0.00  0.00    +0.000 A 
ENDBRANCH  11  15
ENDBRANCH   1  11
TORSDOF 2
ENDMDL
