MODEL 1
REMARK VINA RESULT:      -4.7      0.000      0.000
REMARK  Name = *****
REMARK  4 active torsions:
REMARK  status: ('A' for Active; 'I' for Inactive)
REMARK    1  A    between atoms: C_1  and  C_2
REMARK    2  A    between atoms: C_4  and  N_8
REMARK    3  A    between atoms: N_8  and  O_18
REMARK    4  A    between atoms: C_9  and  C_11
REMARK                            x       y       z     vdW  Elec       q    Type
REMARK                         _______ _______ _______ _____ _____    ______ ____
ROOT
ATOM      1  N   UNL     1      88.431  63.961  87.861  0.00  0.00    +0.000 N 
ATOM      2  C   UNL     1      87.056  63.738  87.878  0.00  0.00    +0.000 C 
ATOM      3  O   UNL     1      86.250  64.070  87.011  0.00  0.00    +0.000 OA
ENDROOT
BRANCH   1   7
ATOM      4  C   UNL     1      89.894  68.429  86.161  0.00  0.00    +0.000 C 
ATOM      5  C   UNL     1      89.900  66.931  86.066  0.00  0.00    +0.000 A 
ATOM      6  C   UNL     1      89.169  66.162  86.990  0.00  0.00    +0.000 A 
ATOM      7  C   UNL     1      89.176  64.760  86.947  0.00  0.00    +0.000 A 
ATOM      8  C   UNL     1      89.963  64.144  85.959  0.00  0.00    +0.000 A 
ATOM      9  C   UNL     1      90.707  64.897  85.048  0.00  0.00    +0.000 A 
ATOM     10  C   UNL     1      90.678  66.286  85.103  0.00  0.00    +0.000 A 
ENDBRANCH   1   7
BRANCH   2  11
ATOM     11  C   UNL     1      86.486  62.997  89.036  0.00  0.00    +0.000 A 
ATOM     12  C   UNL     1      86.173  63.644  90.239  0.00  0.00    +0.000 A 
ATOM     13  C   UNL     1      85.607  62.922  91.292  0.00  0.00    +0.000 A 
ATOM     14  C   UNL     1      85.340  61.562  91.137  0.00  0.00    +0.000 A 
ATOM     15  C   UNL     1      85.625  60.916  89.935  0.00  0.00    +0.000 A 
ATOM     16  C   UNL     1      86.193  61.635  88.880  0.00  0.00    +0.000 A 
ATOM     17 CL   UNL     1      84.642  60.675  92.437  0.00  0.00    +0.000 Cl
ENDBRANCH   2  11
BRANCH   1  18
ATOM     18  O   UNL     1      89.203  63.335  88.870  0.00  0.00    +0.000 OA
ATOM     19  H   UNL     1      88.619  62.842  89.466  0.00  0.00    +0.000 HD
ENDBRANCH   1  18
TORSDOF 3
ENDMDL
