REMARK  Name = *****
REMARK  3 active torsions:
REMARK  status: ('A' for Active; 'I' for Inactive)
REMARK    1  A    between atoms: C_4  and  C_7
REMARK    2  A    between atoms: C_7  and  O_9
REMARK    3  A    between atoms: O_9  and  C_10
REMARK                            x       y       z     vdW  Elec       q    Type
REMARK                         _______ _______ _______ _____ _____    ______ ____
ROOT
ATOM      1  C   UNL     1       2.142  -1.168  -1.026  0.00  0.00    +0.000 C 
ATOM      2  O   UNL     1       2.772  -0.489  -1.826  0.00  0.00    +0.000 OA
ENDROOT
BRANCH   1   6
ATOM      3  C   UNL     1      -1.411   0.921   0.377  0.00  0.00    +0.000 C 
ATOM      4  C   UNL     1      -1.446  -0.602   0.302  0.00  0.00    +0.000 C 
ATOM      5  C   UNL     1      -0.317  -1.153  -0.565  0.00  0.00    +0.000 C 
ATOM      6  C   UNL     1       1.053  -0.648  -0.101  0.00  0.00    +0.000 C 
ATOM      7  C   UNL     1       1.079   0.885  -0.032  0.00  0.00    +0.000 C 
ATOM      8  C   UNL     1      -0.049   1.428   0.842  0.00  0.00    +0.000 C 
ENDBRANCH   1   6
BRANCH   1   9
ATOM      9  O   UNL     1       2.303  -2.535  -0.800  0.00  0.00    +0.000 OA
BRANCH   9  10
ATOM     10  C   UNL     1       3.260  -3.170  -1.598  0.00  0.00    +0.000 A 
ATOM     11  C   UNL     1       3.094  -3.270  -2.980  0.00  0.00    +0.000 A 
ATOM     12  C   UNL     1       4.044  -3.961  -3.733  0.00  0.00    +0.000 A 
ATOM     13  C   UNL     1       5.135  -4.556  -3.097  0.00  0.00    +0.000 A 
ATOM     14  C   UNL     1       5.283  -4.471  -1.711  0.00  0.00    +0.000 A 
ATOM     15  C   UNL     1       4.336  -3.780  -0.954  0.00  0.00    +0.000 A 
ATOM     16 CL   UNL     1       6.303  -5.411  -4.027  0.00  0.00    +0.000 Cl
ENDBRANCH   9  10
ENDBRANCH   1   9
TORSDOF 3
