MODEL 1
REMARK VINA RESULT:      -4.7      0.000      0.000
REMARK  Name = *****
REMARK  4 active torsions:
REMARK  status: ('A' for Active; 'I' for Inactive)
REMARK    1  A    between atoms: C_1  and  C_2
REMARK    2  A    between atoms: C_5  and  O_8
REMARK    3  A    between atoms: O_8  and  C_9
REMARK    4  A    between atoms: C_9  and  C_11
REMARK                            x       y       z     vdW  Elec       q    Type
REMARK                         _______ _______ _______ _____ _____    ______ ____
ROOT
ATOM      1  O   UNL     1      88.544  69.922  86.870  0.00  0.00    +0.000 OA
ENDROOT
BRANCH   1   6
ATOM      2  C   UNL     1      89.130  64.279  86.833  0.00  0.00    +0.000 C 
ATOM      3  C   UNL     1      88.976  65.771  86.882  0.00  0.00    +0.000 A 
ATOM      4  C   UNL     1      87.808  66.345  87.401  0.00  0.00    +0.000 A 
ATOM      5  C   UNL     1      87.648  67.732  87.417  0.00  0.00    +0.000 A 
ATOM      6  C   UNL     1      88.662  68.552  86.918  0.00  0.00    +0.000 A 
ATOM      7  C   UNL     1      89.810  67.990  86.362  0.00  0.00    +0.000 A 
ATOM      8  C   UNL     1      89.967  66.603  86.347  0.00  0.00    +0.000 A 
ENDBRANCH   1   6
BRANCH   1   9
ATOM      9  C   UNL     1      87.956  70.591  87.937  0.00  0.00    +0.000 C 
ATOM     10  C   UNL     1      88.518  70.705  89.154  0.00  0.00    +0.000 C 
BRANCH   9  11
ATOM     11  C   UNL     1      86.674  71.245  87.601  0.00  0.00    +0.000 A 
ATOM     12  C   UNL     1      86.290  71.483  86.272  0.00  0.00    +0.000 A 
ATOM     13  C   UNL     1      85.066  72.093  85.978  0.00  0.00    +0.000 A 
ATOM     14  C   UNL     1      84.207  72.468  87.008  0.00  0.00    +0.000 A 
ATOM     15  C   UNL     1      84.567  72.227  88.332  0.00  0.00    +0.000 A 
ATOM     16  C   UNL     1      85.790  71.618  88.626  0.00  0.00    +0.000 A 
ENDBRANCH   9  11
ENDBRANCH   1   9
TORSDOF 3
ENDMDL
