MODEL 1
REMARK VINA RESULT:      -4.7      0.000      0.000
REMARK  Name = *****
REMARK  3 active torsions:
REMARK  status: ('A' for Active; 'I' for Inactive)
REMARK    1  A    between atoms: C_4  and  C_7
REMARK    2  A    between atoms: C_7  and  N_9
REMARK    3  A    between atoms: N_9  and  C_10
REMARK                            x       y       z     vdW  Elec       q    Type
REMARK                         _______ _______ _______ _____ _____    ______ ____
ROOT
ATOM      1  N   UNL     1      88.529  69.905  87.166  0.00  0.00    +0.000 N 
ATOM      2  H   UNL     1      88.976  70.455  86.484  0.00  0.00    +0.000 HD
ENDROOT
BRANCH   1   3
ATOM      3  C   UNL     1      88.726  68.514  86.996  0.00  0.00    +0.000 A 
ATOM      4  C   UNL     1      89.813  67.923  86.353  0.00  0.00    +0.000 A 
ATOM      5  C   UNL     1      89.920  66.527  86.257  0.00  0.00    +0.000 A 
ATOM      6  C   UNL     1      88.937  65.706  86.815  0.00  0.00    +0.000 A 
ATOM      7  C   UNL     1      87.856  66.286  87.478  0.00  0.00    +0.000 A 
ATOM      8  C   UNL     1      87.758  67.678  87.572  0.00  0.00    +0.000 A 
ATOM      9 CL   UNL     1      89.003  63.983  86.736  0.00  0.00    +0.000 Cl
ATOM     10 CL   UNL     1      91.305  65.880  85.447  0.00  0.00    +0.000 Cl
ENDBRANCH   1   3
BRANCH   1  11
ATOM     11  C   UNL     1      87.825  70.644  88.111  0.00  0.00    +0.000 C 
ATOM     12  S   UNL     1      88.198  70.925  89.721  0.00  0.00    +0.000 S 
BRANCH  11  16
ATOM     13  C   UNL     1      84.320  72.431  86.423  0.00  0.00    +0.000 A 
ATOM     14  C   UNL     1      85.336  71.976  85.580  0.00  0.00    +0.000 A 
ATOM     15  C   UNL     1      86.488  71.402  86.120  0.00  0.00    +0.000 A 
ATOM     16  C   UNL     1      86.620  71.288  87.509  0.00  0.00    +0.000 A 
ATOM     17  C   UNL     1      85.598  71.740  88.354  0.00  0.00    +0.000 A 
ATOM     18  C   UNL     1      84.450  72.313  87.808  0.00  0.00    +0.000 A 
ENDBRANCH  11  16
ENDBRANCH   1  11
TORSDOF 3
ENDMDL
