MODEL 1
REMARK VINA RESULT:      -4.6      0.000      0.000
REMARK  Name = *****
REMARK  2 active torsions:
REMARK  status: ('A' for Active; 'I' for Inactive)
REMARK    1  A    between atoms: C_5  and  C_8
REMARK    2  A    between atoms: C_9  and  C_10
REMARK                            x       y       z     vdW  Elec       q    Type
REMARK                         _______ _______ _______ _____ _____    ______ ____
ROOT
ATOM      1  C   UNL     1      89.582  68.980  86.708  0.00  0.00    +0.000 C 
ATOM      2  C   UNL     1      89.808  67.828  86.451  0.00  0.00    +0.000 C 
ENDROOT
BRANCH   1   7
ATOM      3  C   UNL     1      85.801  71.522  86.925  0.00  0.00    +0.000 C 
ATOM      4  C   UNL     1      87.015  71.007  87.149  0.00  0.00    +0.000 C 
ATOM      5  C   UNL     1      87.500  70.477  88.461  0.00  0.00    +0.000 C 
ATOM      6  O   UNL     1      88.932  70.526  88.398  0.00  0.00    +0.000 OA
ATOM      7  C   UNL     1      89.301  70.390  87.015  0.00  0.00    +0.000 C 
ATOM      8  C   UNL     1      88.125  70.908  86.228  0.00  0.00    +0.000 C 
ATOM      9  C   UNL     1      88.142  71.258  84.934  0.00  0.00    +0.000 C 
ENDBRANCH   1   7
BRANCH   2  10
ATOM     10  C   UNL     1      90.077  66.460  86.137  0.00  0.00    +0.000 A 
ATOM     11  C   UNL     1      91.229  66.122  85.417  0.00  0.00    +0.000 A 
ATOM     12  C   UNL     1      91.494  64.787  85.111  0.00  0.00    +0.000 A 
ATOM     13  C   UNL     1      90.606  63.800  85.525  0.00  0.00    +0.000 A 
ATOM     14  C   UNL     1      89.458  64.123  86.240  0.00  0.00    +0.000 A 
ATOM     15  C   UNL     1      89.193  65.458  86.549  0.00  0.00    +0.000 A 
ATOM     16  F   UNL     1      90.860  62.519  85.230  0.00  0.00    +0.000 F 
ENDBRANCH   2  10
TORSDOF 2
ENDMDL
