MODEL 1
REMARK VINA RESULT:      -4.2      0.000      0.000
REMARK  Name = *****
REMARK  5 active torsions:
REMARK  status: ('A' for Active; 'I' for Inactive)
REMARK    1  A    between atoms: C_1  and  C_2
REMARK    2  A    between atoms: C_5  and  N_8
REMARK    3  A    between atoms: C_9  and  C_10
REMARK    4  A    between atoms: C_9  and  O_16
REMARK    5  A    between atoms: O_16  and  C_17
REMARK                            x       y       z     vdW  Elec       q    Type
REMARK                         _______ _______ _______ _____ _____    ______ ____
ROOT
ATOM      1  N   UNL     1      89.983  68.989  84.807  0.00  0.00    +0.000 NA
ATOM      2  C   UNL     1      89.823  68.590  86.028  0.00  0.00    +0.000 C 
ENDROOT
BRANCH   1   7
ATOM      3  C   UNL     1      87.190  73.605  82.869  0.00  0.00    +0.000 C 
ATOM      4  C   UNL     1      87.926  72.391  83.352  0.00  0.00    +0.000 A 
ATOM      5  C   UNL     1      87.326  71.127  83.280  0.00  0.00    +0.000 A 
ATOM      6  C   UNL     1      87.998  69.996  83.758  0.00  0.00    +0.000 A 
ATOM      7  C   UNL     1      89.271  70.111  84.339  0.00  0.00    +0.000 A 
ATOM      8  C   UNL     1      89.867  71.376  84.396  0.00  0.00    +0.000 A 
ATOM      9  C   UNL     1      89.198  72.508  83.922  0.00  0.00    +0.000 A 
ATOM     10 CL   UNL     1      87.208  68.463  83.622  0.00  0.00    +0.000 Cl
ENDBRANCH   1   7
BRANCH   2  11
ATOM     11  C   UNL     1      88.945  69.123  87.083  0.00  0.00    +0.000 A 
ATOM     12  C   UNL     1      89.340  70.239  87.825  0.00  0.00    +0.000 A 
ATOM     13  C   UNL     1      88.504  70.727  88.831  0.00  0.00    +0.000 A 
ATOM     14  C   UNL     1      87.281  70.106  89.086  0.00  0.00    +0.000 A 
ATOM     15  C   UNL     1      86.885  68.997  88.336  0.00  0.00    +0.000 A 
ATOM     16  C   UNL     1      87.716  68.503  87.331  0.00  0.00    +0.000 A 
ENDBRANCH   2  11
BRANCH   2  17
ATOM     17  O   UNL     1      90.494  67.532  86.554  0.00  0.00    +0.000 OA
ATOM     18  C   UNL     1      90.525  66.350  85.748  0.00  0.00    +0.000 C 
ENDBRANCH   2  17
TORSDOF 3
ENDMDL
