MODEL 1
REMARK VINA RESULT:      -4.7      0.000      0.000
REMARK  Name = *****
REMARK  4 active torsions:
REMARK  status: ('A' for Active; 'I' for Inactive)
REMARK    1  A    between atoms: C_1  and  C_2
REMARK    2  A    between atoms: C_5  and  C_8
REMARK    3  A    between atoms: N_9  and  C_10
REMARK    4  A    between atoms: C_13  and  C_16
REMARK                            x       y       z     vdW  Elec       q    Type
REMARK                         _______ _______ _______ _____ _____    ______ ____
ROOT
ATOM      1  C   UNL     1      87.914  63.907  86.606  0.00  0.00    +0.000 C 
ATOM      2  N   UNL     1      87.643  63.099  87.587  0.00  0.00    +0.000 NA
ATOM      3 CL   UNL     1      87.767  63.182  85.031  0.00  0.00    +0.000 Cl
ENDROOT
BRANCH   1   8
ATOM      4  C   UNL     1      89.539  69.452  86.924  0.00  0.00    +0.000 C 
ATOM      5  C   UNL     1      89.108  68.019  86.817  0.00  0.00    +0.000 A 
ATOM      6  C   UNL     1      90.004  67.039  86.371  0.00  0.00    +0.000 A 
ATOM      7  C   UNL     1      89.612  65.700  86.302  0.00  0.00    +0.000 A 
ATOM      8  C   UNL     1      88.323  65.332  86.701  0.00  0.00    +0.000 A 
ATOM      9  C   UNL     1      87.422  66.302  87.148  0.00  0.00    +0.000 A 
ATOM     10  C   UNL     1      87.819  67.639  87.215  0.00  0.00    +0.000 A 
ENDBRANCH   1   8
BRANCH   2  11
ATOM     11  C   UNL     1      87.779  63.499  88.922  0.00  0.00    +0.000 A 
ATOM     12  C   UNL     1      86.635  63.777  89.671  0.00  0.00    +0.000 A 
ATOM     13  C   UNL     1      86.738  64.157  91.012  0.00  0.00    +0.000 A 
ATOM     14  C   UNL     1      87.991  64.237  91.631  0.00  0.00    +0.000 A 
ATOM     15  C   UNL     1      89.137  63.944  90.882  0.00  0.00    +0.000 A 
ATOM     16  C   UNL     1      89.029  63.563  89.542  0.00  0.00    +0.000 A 
ATOM     17  C   UNL     1      88.108  64.675  93.060  0.00  0.00    +0.000 C 
ENDBRANCH   2  11
TORSDOF 2
ENDMDL
