MODEL 1
REMARK VINA RESULT:      -4.3      0.000      0.000
REMARK  Name = *****
REMARK  5 active torsions:
REMARK  status: ('A' for Active; 'I' for Inactive)
REMARK    1  A    between atoms: C_1  and  C_2
REMARK    2  A    between atoms: C_5  and  N_8
REMARK    3  A    between atoms: N_8  and  N_9
REMARK    4  A    between atoms: N_9  and  C_10
REMARK    5  A    between atoms: C_10  and  C_11
REMARK                            x       y       z     vdW  Elec       q    Type
REMARK                         _______ _______ _______ _____ _____    ______ ____
ROOT
ATOM      1  N   UNL     1      89.663  70.093  87.200  0.00  0.00    +0.000 NA
ENDROOT
BRANCH   1   6
ATOM      2  C   UNL     1      84.424  72.294  86.702  0.00  0.00    +0.000 C 
ATOM      3  C   UNL     1      85.789  71.691  86.809  0.00  0.00    +0.000 A 
ATOM      4  C   UNL     1      86.568  71.479  85.670  0.00  0.00    +0.000 A 
ATOM      5  C   UNL     1      87.860  70.944  85.778  0.00  0.00    +0.000 A 
ATOM      6  C   UNL     1      88.425  70.611  87.017  0.00  0.00    +0.000 A 
ATOM      7  C   UNL     1      87.630  70.849  88.149  0.00  0.00    +0.000 A 
ATOM      8  C   UNL     1      86.338  71.383  88.055  0.00  0.00    +0.000 A 
ENDBRANCH   1   6
BRANCH   1   9
ATOM      9  N   UNL     1      89.819  68.706  86.769  0.00  0.00    +0.000 NA
BRANCH   9  10
ATOM     10  C   UNL     1      89.965  67.640  86.475  0.00  0.00    +0.000 C 
BRANCH  10  11
ATOM     11  C   UNL     1      90.145  66.273  86.100  0.00  0.00    +0.000 A 
ATOM     12  C   UNL     1      89.181  65.321  86.440  0.00  0.00    +0.000 A 
ATOM     13  C   UNL     1      89.356  63.985  86.075  0.00  0.00    +0.000 A 
ATOM     14  C   UNL     1      90.496  63.599  85.368  0.00  0.00    +0.000 A 
ATOM     15  C   UNL     1      91.461  64.548  85.028  0.00  0.00    +0.000 A 
ATOM     16  C   UNL     1      91.284  65.884  85.394  0.00  0.00    +0.000 A 
ENDBRANCH  10  11
ENDBRANCH   9  10
ENDBRANCH   1   9
TORSDOF 4
ENDMDL
