REMARK  Name = *****
REMARK  5 active torsions:
REMARK  status: ('A' for Active; 'I' for Inactive)
REMARK    1  A    between atoms: C_1  and  C_2
REMARK    2  A    between atoms: C_3  and  N_9
REMARK    3  A    between atoms: C_4  and  C_8
REMARK    4  A    between atoms: C_10  and  C_11
REMARK    5  A    between atoms: C_11  and  C_12
REMARK                            x       y       z     vdW  Elec       q    Type
REMARK                         _______ _______ _______ _____ _____    ______ ____
ROOT
ATOM      1  N   UNL     1       0.250   2.233   1.131  0.00  0.00    +0.000 NA
ATOM      2  C   UNL     1       0.879   3.145   0.461  0.00  0.00    +0.000 C 
ENDROOT
BRANCH   1   5
ATOM      3  C   UNL     1       2.464   0.433   1.627  0.00  0.00    +0.000 C 
ATOM      4  C   UNL     1       1.293   0.052   0.765  0.00  0.00    +0.000 A 
ATOM      5  C   UNL     1       0.232   0.954   0.542  0.00  0.00    +0.000 A 
ATOM      6  C   UNL     1      -0.868   0.559  -0.247  0.00  0.00    +0.000 A 
ATOM      7  C   UNL     1      -0.871  -0.709  -0.846  0.00  0.00    +0.000 A 
ATOM      8  C   UNL     1       0.194  -1.586  -0.650  0.00  0.00    +0.000 A 
ATOM      9  C   UNL     1       1.268  -1.210   0.153  0.00  0.00    +0.000 A 
ATOM     10  C   UNL     1      -2.029   1.488  -0.468  0.00  0.00    +0.000 C 
ENDBRANCH   1   5
BRANCH   2  11
ATOM     11  C   UNL     1       0.995   4.548   0.991  0.00  0.00    +0.000 C 
BRANCH  11  12
ATOM     12  C   UNL     1       2.415   4.865   1.388  0.00  0.00    +0.000 A 
ATOM     13  C   UNL     1       3.232   5.656   0.569  0.00  0.00    +0.000 A 
ATOM     14  C   UNL     1       4.553   5.924   0.938  0.00  0.00    +0.000 A 
ATOM     15  C   UNL     1       5.062   5.400   2.125  0.00  0.00    +0.000 A 
ATOM     16  C   UNL     1       4.263   4.608   2.946  0.00  0.00    +0.000 A 
ATOM     17  C   UNL     1       2.943   4.341   2.578  0.00  0.00    +0.000 A 
ATOM     18 CL   UNL     1       6.689   5.729   2.576  0.00  0.00    +0.000 Cl
ENDBRANCH  11  12
ENDBRANCH   2  11
TORSDOF 3
