REMARK  Name = *****
REMARK  5 active torsions:
REMARK  status: ('A' for Active; 'I' for Inactive)
REMARK    1  A    between atoms: C_1  and  C_2
REMARK    2  A    between atoms: C_2  and  C_3
REMARK    3  A    between atoms: C_2  and  N_9
REMARK    4  A    between atoms: N_9  and  C_10
REMARK    5  A    between atoms: N_9  and  C_11
REMARK                            x       y       z     vdW  Elec       q    Type
REMARK                         _______ _______ _______ _____ _____    ______ ____
ROOT
ATOM      1  C   UNL     1       0.448  -0.012  -0.112  0.00  0.00    +0.000 C 
ATOM      2  C   UNL     1       1.980  -0.073  -0.186  0.00  0.00    +0.000 C 
ENDROOT
BRANCH   2   3
ATOM      3  C   UNL     1       2.631  -1.250   0.541  0.00  0.00    +0.000 A 
ATOM      4  C   UNL     1       1.920  -2.381   0.970  0.00  0.00    +0.000 A 
ATOM      5  C   UNL     1       2.573  -3.428   1.629  0.00  0.00    +0.000 A 
ATOM      6  C   UNL     1       3.943  -3.361   1.867  0.00  0.00    +0.000 A 
ATOM      7  C   UNL     1       4.667  -2.250   1.444  0.00  0.00    +0.000 A 
ATOM      8  C   UNL     1       4.016  -1.204   0.787  0.00  0.00    +0.000 A 
ENDBRANCH   2   3
BRANCH   2   9
ATOM      9  N   UNL     1       2.392  -0.019  -1.608  0.00  0.00    +0.000 N 
ATOM     10  C   UNL     1       2.355  -1.259  -2.381  0.00  0.00    +0.000 C 
BRANCH   9  11
ATOM     11  C   UNL     1       3.212   1.027  -2.036  0.00  0.00    +0.000 A 
ATOM     12  C   UNL     1       2.985   2.347  -1.610  0.00  0.00    +0.000 A 
ATOM     13  C   UNL     1       3.788   3.413  -2.034  0.00  0.00    +0.000 A 
ATOM     14  C   UNL     1       4.844   3.184  -2.907  0.00  0.00    +0.000 A 
ATOM     15  C   UNL     1       5.087   1.893  -3.359  0.00  0.00    +0.000 A 
ATOM     16  C   UNL     1       4.277   0.833  -2.931  0.00  0.00    +0.000 A 
ENDBRANCH   9  11
ENDBRANCH   2   9
TORSDOF 3
