MODEL 1
REMARK VINA RESULT:      -5.0      0.000      0.000
REMARK  Name = *****
REMARK  5 active torsions:
REMARK  status: ('A' for Active; 'I' for Inactive)
REMARK    1  A    between atoms: C_1  and  C_2
REMARK    2  A    between atoms: C_2  and  C_3
REMARK    3  A    between atoms: C_2  and  O_11
REMARK    4  A    between atoms: O_11  and  C_12
REMARK    5  A    between atoms: C_12  and  C_14
REMARK                            x       y       z     vdW  Elec       q    Type
REMARK                         _______ _______ _______ _____ _____    ______ ____
ROOT
ATOM      1  C   UNL     1     102.919 128.396  83.220  0.00  0.00    +0.000 C 
ATOM      2  C   UNL     1     102.062 127.459  82.368  0.00  0.00    +0.000 C 
ENDROOT
BRANCH   2   3
ATOM      3  C   UNL     1     102.881 126.309  81.833  0.00  0.00    +0.000 A 
ATOM      4  C   UNL     1     103.149 125.168  82.595  0.00  0.00    +0.000 A 
ATOM      5  C   UNL     1     103.912 124.115  82.092  0.00  0.00    +0.000 A 
ATOM      6  C   UNL     1     104.430 124.187  80.800  0.00  0.00    +0.000 A 
ATOM      7  C   UNL     1     104.180 125.316  80.025  0.00  0.00    +0.000 A 
ATOM      8  C   UNL     1     103.415 126.361  80.545  0.00  0.00    +0.000 A 
ATOM      9  F   UNL     1     103.204 127.437  79.774  0.00  0.00    +0.000 F 
ATOM     10  F   UNL     1     102.675 125.066  83.845  0.00  0.00    +0.000 F 
ENDBRANCH   2   3
BRANCH   2  11
ATOM     11  O   UNL     1     100.993 126.909  83.160  0.00  0.00    +0.000 OA
BRANCH  11  12
ATOM     12  C   UNL     1      99.749 127.365  82.888  0.00  0.00    +0.000 C 
ATOM     13  O   UNL     1      99.016 126.965  81.998  0.00  0.00    +0.000 OA
BRANCH  12  14
ATOM     14  C   UNL     1      99.374 128.446  83.840  0.00  0.00    +0.000 A 
ATOM     15  C   UNL     1      99.500 129.776  83.414  0.00  0.00    +0.000 A 
ATOM     16  C   UNL     1      99.161 130.825  84.270  0.00  0.00    +0.000 A 
ATOM     17  C   UNL     1      98.696 130.553  85.556  0.00  0.00    +0.000 A 
ATOM     18  C   UNL     1      98.570 129.233  85.988  0.00  0.00    +0.000 A 
ATOM     19  C   UNL     1      98.907 128.181  85.134  0.00  0.00    +0.000 A 
ENDBRANCH  12  14
ENDBRANCH  11  12
ENDBRANCH   2  11
TORSDOF 4
ENDMDL
