MODEL 1
REMARK VINA RESULT:      -4.8      0.000      0.000
REMARK  Name = *****
REMARK  5 active torsions:
REMARK  status: ('A' for Active; 'I' for Inactive)
REMARK    1  A    between atoms: C_1  and  C_2
REMARK    2  A    between atoms: C_4  and  C_17
REMARK    3  A    between atoms: C_6  and  O_8
REMARK    4  A    between atoms: O_8  and  C_9
REMARK    5  A    between atoms: C_9  and  C_11
REMARK                            x       y       z     vdW  Elec       q    Type
REMARK                         _______ _______ _______ _____ _____    ______ ____
ROOT
ATOM      1  O   UNL     1      88.644  70.047  86.865  0.00  0.00    +0.000 OA
ENDROOT
BRANCH   1   7
ATOM      2  C   UNL     1      86.945  65.617  88.289  0.00  0.00    +0.000 C 
ATOM      3  C   UNL     1      87.924  66.471  87.539  0.00  0.00    +0.000 A 
ATOM      4  C   UNL     1      89.024  65.891  86.890  0.00  0.00    +0.000 A 
ATOM      5  C   UNL     1      89.963  66.680  86.208  0.00  0.00    +0.000 A 
ATOM      6  C   UNL     1      89.808  68.070  86.205  0.00  0.00    +0.000 A 
ATOM      7  C   UNL     1      88.712  68.646  86.846  0.00  0.00    +0.000 A 
ATOM      8  C   UNL     1      87.784  67.864  87.531  0.00  0.00    +0.000 A 
ATOM      9  C   UNL     1      91.151  66.047  85.551  0.00  0.00    +0.000 C 
ENDBRANCH   1   7
BRANCH   1  10
ATOM     10  C   UNL     1      87.840  70.640  85.908  0.00  0.00    +0.000 C 
ATOM     11  O   UNL     1      88.035  70.687  84.703  0.00  0.00    +0.000 OA
BRANCH  10  12
ATOM     12  C   UNL     1      86.648  71.247  86.563  0.00  0.00    +0.000 A 
ATOM     13  C   UNL     1      86.483  71.287  87.955  0.00  0.00    +0.000 A 
ATOM     14  C   UNL     1      85.341  71.870  88.511  0.00  0.00    +0.000 A 
ATOM     15  C   UNL     1      84.360  72.416  87.684  0.00  0.00    +0.000 A 
ATOM     16  C   UNL     1      84.516  72.381  86.299  0.00  0.00    +0.000 A 
ATOM     17  C   UNL     1      85.655  71.799  85.739  0.00  0.00    +0.000 A 
ENDBRANCH  10  12
ENDBRANCH   1  10
TORSDOF 3
ENDMDL
