MODEL 1
REMARK VINA RESULT:      -5.0      0.000      0.000
REMARK  Name = *****
REMARK  4 active torsions:
REMARK  status: ('A' for Active; 'I' for Inactive)
REMARK    1  A    between atoms: C_1  and  C_2
REMARK    2  A    between atoms: C_2  and  C_4
REMARK    3  A    between atoms: C_7  and  C_10
REMARK    4  A    between atoms: C_11  and  C_12
REMARK                            x       y       z     vdW  Elec       q    Type
REMARK                         _______ _______ _______ _____ _____    ______ ____
ROOT
ATOM      1  C   UNL     1     105.851 122.737  80.950  0.00  0.00    +0.000 A 
ATOM      2  C   UNL     1     105.573 123.600  79.887  0.00  0.00    +0.000 A 
ATOM      3  C   UNL     1     104.633 124.626  80.042  0.00  0.00    +0.000 A 
ATOM      4  C   UNL     1     103.946 124.807  81.253  0.00  0.00    +0.000 A 
ATOM      5  C   UNL     1     104.243 123.945  82.318  0.00  0.00    +0.000 A 
ATOM      6  C   UNL     1     105.183 122.918  82.167  0.00  0.00    +0.000 A 
ENDROOT
BRANCH   1   8
ATOM      7  C   UNL     1     106.596 120.349  81.600  0.00  0.00    +0.000 C 
ATOM      8  C   UNL     1     106.844 121.627  80.841  0.00  0.00    +0.000 C 
ATOM      9  O   UNL     1     107.845 121.766  80.140  0.00  0.00    +0.000 OA
ENDBRANCH   1   8
BRANCH   4  10
ATOM     10  C   UNL     1     102.978 125.913  81.360  0.00  0.00    +0.000 C 
ATOM     11  C   UNL     1     102.009 126.009  82.283  0.00  0.00    +0.000 C 
ATOM     12  F   UNL     1     103.062 126.878  80.415  0.00  0.00    +0.000 F 
BRANCH  11  13
ATOM     13  C   UNL     1     101.022 127.150  82.349  0.00  0.00    +0.000 C 
ATOM     14  C   UNL     1     101.341 128.061  83.544  0.00  0.00    +0.000 C 
ATOM     15  C   UNL     1     100.320 129.189  83.681  0.00  0.00    +0.000 C 
ATOM     16  C   UNL     1      98.894 128.650  83.761  0.00  0.00    +0.000 C 
ATOM     17  C   UNL     1      98.569 127.740  82.580  0.00  0.00    +0.000 C 
ATOM     18  C   UNL     1      99.586 126.609  82.444  0.00  0.00    +0.000 C 
ENDBRANCH  11  13
ENDBRANCH   4  10
TORSDOF 3
ENDMDL
