MODEL 1
REMARK VINA RESULT:      -4.7      0.000      0.000
REMARK  Name = *****
REMARK  5 active torsions:
REMARK  status: ('A' for Active; 'I' for Inactive)
REMARK    1  A    between atoms: C_1  and  C_2
REMARK    2  A    between atoms: C_5  and  C_8
REMARK    3  A    between atoms: C_8  and  O_10
REMARK    4  A    between atoms: O_10  and  C_11
REMARK    5  A    between atoms: C_16  and  C_17
REMARK                            x       y       z     vdW  Elec       q    Type
REMARK                         _______ _______ _______ _____ _____    ______ ____
ROOT
ATOM      1  C   UNL     1     103.161 126.744  81.834  0.00  0.00    +0.000 C 
ATOM      2  O   UNL     1     103.200 127.565  80.930  0.00  0.00    +0.000 OA
ENDROOT
BRANCH   1   7
ATOM      3  C   UNL     1     105.325 121.367  81.527  0.00  0.00    +0.000 C 
ATOM      4  C   UNL     1     104.744 122.748  81.584  0.00  0.00    +0.000 A 
ATOM      5  C   UNL     1     104.657 123.530  80.427  0.00  0.00    +0.000 A 
ATOM      6  C   UNL     1     104.143 124.831  80.484  0.00  0.00    +0.000 A 
ATOM      7  C   UNL     1     103.718 125.368  81.706  0.00  0.00    +0.000 A 
ATOM      8  C   UNL     1     103.819 124.590  82.868  0.00  0.00    +0.000 A 
ATOM      9  C   UNL     1     104.333 123.292  82.806  0.00  0.00    +0.000 A 
ENDBRANCH   1   7
BRANCH   1  10
ATOM     10  O   UNL     1     102.623 126.910  83.096  0.00  0.00    +0.000 OA
BRANCH  10  11
ATOM     11  C   UNL     1     101.309 127.390  83.084  0.00  0.00    +0.000 A 
ATOM     12  C   UNL     1     100.316 126.608  82.492  0.00  0.00    +0.000 A 
ATOM     13  C   UNL     1      99.011 127.093  82.429  0.00  0.00    +0.000 A 
ATOM     14  C   UNL     1      98.713 128.354  82.942  0.00  0.00    +0.000 A 
ATOM     15  C   UNL     1      99.718 129.139  83.516  0.00  0.00    +0.000 A 
ATOM     16  C   UNL     1     101.037 128.671  83.582  0.00  0.00    +0.000 A 
ATOM     17  C   UNL     1     102.112 129.509  84.206  0.00  0.00    +0.000 C 
ENDBRANCH  10  11
ENDBRANCH   1  10
TORSDOF 3
ENDMDL
