MODEL 1
REMARK VINA RESULT:      -4.9      0.000      0.000
REMARK  Name = *****
REMARK  2 active torsions:
REMARK  status: ('A' for Active; 'I' for Inactive)
REMARK    1  A    between atoms: C_3  and  C_9
REMARK    2  A    between atoms: N_10  and  C_11
REMARK                            x       y       z     vdW  Elec       q    Type
REMARK                         _______ _______ _______ _____ _____    ______ ____
ROOT
ATOM      1  C   UNL     1     102.104 126.186  82.215  0.00  0.00    +0.000 C 
ATOM      2  N   UNL     1     103.137 126.461  81.481  0.00  0.00    +0.000 NA
ENDROOT
BRANCH   1   5
ATOM      3  C   UNL     1     100.922 129.321  83.953  0.00  0.00    +0.000 A 
ATOM      4  C   UNL     1     101.774 128.333  83.456  0.00  0.00    +0.000 A 
ATOM      5  C   UNL     1     101.237 127.248  82.754  0.00  0.00    +0.000 A 
ATOM      6  C   UNL     1      99.859 127.159  82.556  0.00  0.00    +0.000 A 
ATOM      7  C   UNL     1      99.006 128.140  83.050  0.00  0.00    +0.000 A 
ATOM      8  C   UNL     1      99.548 129.215  83.744  0.00  0.00    +0.000 A 
ATOM      9  F   UNL     1      98.736 130.165  84.224  0.00  0.00    +0.000 F 
ATOM     10  F   UNL     1      99.332 126.124  81.886  0.00  0.00    +0.000 F 
ENDBRANCH   1   5
BRANCH   2  11
ATOM     11  C   UNL     1     103.883 125.364  81.029  0.00  0.00    +0.000 A 
ATOM     12  C   UNL     1     104.629 125.464  79.854  0.00  0.00    +0.000 A 
ATOM     13  C   UNL     1     105.387 124.379  79.422  0.00  0.00    +0.000 A 
ATOM     14  C   UNL     1     105.423 123.195  80.143  0.00  0.00    +0.000 A 
ATOM     15  C   UNL     1     104.691 123.110  81.319  0.00  0.00    +0.000 A 
ATOM     16  C   UNL     1     103.926 124.181  81.771  0.00  0.00    +0.000 A 
ATOM     17  F   UNL     1     104.721 121.976  82.032  0.00  0.00    +0.000 F 
ATOM     18  F   UNL     1     106.095 124.482  78.289  0.00  0.00    +0.000 F 
ENDBRANCH   2  11
TORSDOF 2
ENDMDL
