MODEL 1
REMARK VINA RESULT:      -4.4      0.000      0.000
REMARK  Name = *****
REMARK  5 active torsions:
REMARK  status: ('A' for Active; 'I' for Inactive)
REMARK    1  A    between atoms: C_1  and  C_2
REMARK    2  A    between atoms: C_5  and  C_8
REMARK    3  A    between atoms: C_8  and  C_10
REMARK    4  A    between atoms: C_10  and  C_11
REMARK    5  A    between atoms: C_11  and  C_12
REMARK                            x       y       z     vdW  Elec       q    Type
REMARK                         _______ _______ _______ _____ _____    ______ ____
ROOT
ATOM      1  C   UNL     1      88.655  70.148  86.901  0.00  0.00    +0.000 C 
ATOM      2  O   UNL     1      89.680  70.810  86.739  0.00  0.00    +0.000 OA
ENDROOT
BRANCH   1   7
ATOM      3  C   UNL     1      83.527  72.867  87.229  0.00  0.00    +0.000 C 
ATOM      4  C   UNL     1      84.840  72.142  87.159  0.00  0.00    +0.000 A 
ATOM      5  C   UNL     1      85.456  71.913  85.926  0.00  0.00    +0.000 A 
ATOM      6  C   UNL     1      86.693  71.264  85.863  0.00  0.00    +0.000 A 
ATOM      7  C   UNL     1      87.339  70.846  87.034  0.00  0.00    +0.000 A 
ATOM      8  C   UNL     1      86.728  71.086  88.269  0.00  0.00    +0.000 A 
ATOM      9  C   UNL     1      85.490  71.736  88.330  0.00  0.00    +0.000 A 
ENDBRANCH   1   7
BRANCH   1  10
ATOM     10  C   UNL     1      88.718  68.638  86.936  0.00  0.00    +0.000 C 
BRANCH  10  11
ATOM     11  C   UNL     1      90.004  68.155  86.277  0.00  0.00    +0.000 C 
BRANCH  11  12
ATOM     12  C   UNL     1      90.016  66.664  86.122  0.00  0.00    +0.000 A 
ATOM     13  C   UNL     1      90.954  65.881  85.479  0.00  0.00    +0.000 A 
ATOM     14  C   UNL     1      90.632  64.495  85.536  0.00  0.00    +0.000 A 
ATOM     15  C   UNL     1      89.459  64.266  86.219  0.00  0.00    +0.000 A 
ATOM     16  S   UNL     1      88.753  65.715  86.787  0.00  0.00    +0.000 S 
ENDBRANCH  11  12
ENDBRANCH  10  11
ENDBRANCH   1  10
TORSDOF 4
ENDMDL
