MODEL 1
REMARK VINA RESULT:      -4.4      0.000      0.000
REMARK  Name = *****
REMARK  2 active torsions:
REMARK  status: ('A' for Active; 'I' for Inactive)
REMARK    1  A    between atoms: C_1  and  C_2
REMARK    2  A    between atoms: N_9  and  C_11
REMARK                            x       y       z     vdW  Elec       q    Type
REMARK                         _______ _______ _______ _____ _____    ______ ____
ROOT
ATOM      1  C   UNL     1      90.055  71.077  84.825  0.00  0.00    +0.000 C 
ATOM      2  C   UNL     1      89.092  69.976  85.285  0.00  0.00    +0.000 C 
ATOM      3  C   UNL     1      88.924  68.898  84.198  0.00  0.00    +0.000 C 
ATOM      4  C   UNL     1      89.951  67.781  84.355  0.00  0.00    +0.000 C 
ATOM      5  C   UNL     1      89.829  67.069  85.703  0.00  0.00    +0.000 C 
ATOM      6  C   UNL     1      89.144  67.910  86.780  0.00  0.00    +0.000 C 
ATOM      7  C   UNL     1      89.511  69.395  86.654  0.00  0.00    +0.000 C 
ATOM      8  C   UNL     1      88.754  70.256  87.664  0.00  0.00    +0.000 C 
ATOM      9  N   UNL     1      87.622  70.744  86.861  0.00  0.00    +0.000 N 
ATOM     10  N   UNL     1      87.768  70.598  85.535  0.00  0.00    +0.000 NA
ENDROOT
BRANCH   9  11
ATOM     11  C   UNL     1      86.460  71.344  87.398  0.00  0.00    +0.000 A 
ATOM     12  C   UNL     1      86.274  71.449  88.785  0.00  0.00    +0.000 A 
ATOM     13  C   UNL     1      85.118  72.046  89.299  0.00  0.00    +0.000 A 
ATOM     14  C   UNL     1      84.144  72.542  88.437  0.00  0.00    +0.000 A 
ATOM     15  C   UNL     1      84.318  72.447  87.059  0.00  0.00    +0.000 A 
ATOM     16  C   UNL     1      85.472  71.853  86.539  0.00  0.00    +0.000 A 
ENDBRANCH   9  11
TORSDOF 1
ENDMDL
