MODEL 1
REMARK VINA RESULT:      -4.4      0.000      0.000
REMARK  Name = *****
REMARK  5 active torsions:
REMARK  status: ('A' for Active; 'I' for Inactive)
REMARK    1  A    between atoms: C_1  and  C_2
REMARK    2  A    between atoms: C_4  and  C_17
REMARK    3  A    between atoms: C_5  and  O_8
REMARK    4  A    between atoms: O_8  and  C_9
REMARK    5  A    between atoms: C_9  and  C_11
REMARK                            x       y       z     vdW  Elec       q    Type
REMARK                         _______ _______ _______ _____ _____    ______ ____
ROOT
ATOM      1  O   UNL     1      88.616  69.186  85.298  0.00  0.00    +0.000 OA
ENDROOT
BRANCH   1   6
ATOM      2  C   UNL     1      90.731  73.858  82.841  0.00  0.00    +0.000 C 
ATOM      3  C   UNL     1      90.166  72.617  83.468  0.00  0.00    +0.000 A 
ATOM      4  C   UNL     1      88.869  72.626  84.006  0.00  0.00    +0.000 A 
ATOM      5  C   UNL     1      88.337  71.486  84.627  0.00  0.00    +0.000 A 
ATOM      6  C   UNL     1      89.146  70.349  84.726  0.00  0.00    +0.000 A 
ATOM      7  C   UNL     1      90.435  70.319  84.192  0.00  0.00    +0.000 A 
ATOM      8  C   UNL     1      90.946  71.459  83.575  0.00  0.00    +0.000 A 
ATOM      9  C   UNL     1      86.948  71.504  85.192  0.00  0.00    +0.000 C 
ENDBRANCH   1   6
BRANCH   1  10
ATOM     10  C   UNL     1      89.249  68.783  86.459  0.00  0.00    +0.000 C 
ATOM     11  O   UNL     1      90.224  68.052  86.556  0.00  0.00    +0.000 OA
BRANCH  10  12
ATOM     12  C   UNL     1      88.559  69.379  87.638  0.00  0.00    +0.000 A 
ATOM     13  C   UNL     1      89.034  70.522  88.297  0.00  0.00    +0.000 A 
ATOM     14  C   UNL     1      88.344  71.033  89.399  0.00  0.00    +0.000 A 
ATOM     15  C   UNL     1      87.180  70.410  89.848  0.00  0.00    +0.000 A 
ATOM     16  C   UNL     1      86.702  69.273  89.199  0.00  0.00    +0.000 A 
ATOM     17  C   UNL     1      87.389  68.758  88.097  0.00  0.00    +0.000 A 
ENDBRANCH  10  12
ENDBRANCH   1  10
TORSDOF 3
ENDMDL
