MODEL 1
REMARK VINA RESULT:      -4.2      0.000      0.000
REMARK  Name = *****
REMARK  2 active torsions:
REMARK  status: ('A' for Active; 'I' for Inactive)
REMARK    1  A    between atoms: C_4  and  C_6
REMARK    2  A    between atoms: N_7  and  C_8
REMARK                            x       y       z     vdW  Elec       q    Type
REMARK                         _______ _______ _______ _____ _____    ______ ____
ROOT
ATOM      1  C   UNL     1     103.567 125.321  81.158  0.00  0.00    +0.000 A 
ATOM      2  C   UNL     1     104.301 125.329  79.971  0.00  0.00    +0.000 A 
ATOM      3  C   UNL     1     105.308 124.383  79.756  0.00  0.00    +0.000 A 
ATOM      4  C   UNL     1     105.577 123.415  80.730  0.00  0.00    +0.000 A 
ATOM      5  C   UNL     1     104.832 123.395  81.913  0.00  0.00    +0.000 A 
ATOM      6  C   UNL     1     103.827 124.342  82.121  0.00  0.00    +0.000 A 
ATOM      7 CL   UNL     1     106.807 122.219  80.535  0.00  0.00    +0.000 Cl
ATOM      8 CL   UNL     1     106.182 124.465  78.267  0.00  0.00    +0.000 Cl
ENDROOT
BRANCH   1  10
ATOM      9  C   UNL     1     101.772 126.044  82.380  0.00  0.00    +0.000 C 
ATOM     10  N   UNL     1     102.544 126.254  81.359  0.00  0.00    +0.000 NA
BRANCH   9  14
ATOM     11  C   UNL     1      98.584 127.939  82.822  0.00  0.00    +0.000 A 
ATOM     12  C   UNL     1      99.362 128.853  83.497  0.00  0.00    +0.000 A 
ATOM     13  S   UNL     1     101.005 128.378  83.554  0.00  0.00    +0.000 S 
ATOM     14  C   UNL     1     100.687 126.945  82.676  0.00  0.00    +0.000 A 
ATOM     15  C   UNL     1      99.350 126.835  82.348  0.00  0.00    +0.000 A 
ENDBRANCH   9  14
ENDBRANCH   1  10
TORSDOF 2
ENDMDL
