REMARK  Name = *****
REMARK  3 active torsions:
REMARK  status: ('A' for Active; 'I' for Inactive)
REMARK    1  A    between atoms: C_1  and  C_2
REMARK    2  A    between atoms: C_5  and  N_8
REMARK    3  A    between atoms: C_9  and  C_10
REMARK                            x       y       z     vdW  Elec       q    Type
REMARK                         _______ _______ _______ _____ _____    ______ ____
ROOT
ATOM      1  N   UNL     1      -3.263   0.090   0.281  0.00  0.00    +0.000 NA
ATOM      2  C   UNL     1      -3.903   0.775  -0.615  0.00  0.00    +0.000 C 
ENDROOT
BRANCH   1   7
ATOM      3  C   UNL     1       2.437   0.050  -0.121  0.00  0.00    +0.000 C 
ATOM      4  C   UNL     1       0.940   0.078  -0.044  0.00  0.00    +0.000 A 
ATOM      5  C   UNL     1       0.284   1.125   0.615  0.00  0.00    +0.000 A 
ATOM      6  C   UNL     1      -1.110   1.131   0.719  0.00  0.00    +0.000 A 
ATOM      7  C   UNL     1      -1.866   0.095   0.167  0.00  0.00    +0.000 A 
ATOM      8  C   UNL     1      -1.212  -0.965  -0.463  0.00  0.00    +0.000 A 
ATOM      9  C   UNL     1       0.182  -0.976  -0.568  0.00  0.00    +0.000 A 
ENDBRANCH   1   7
BRANCH   2  10
ATOM     10  C   UNL     1      -5.373   0.860  -0.618  0.00  0.00    +0.000 A 
ATOM     11  C   UNL     1      -6.139   0.186   0.338  0.00  0.00    +0.000 A 
ATOM     12  C   UNL     1      -7.532   0.287   0.307  0.00  0.00    +0.000 A 
ATOM     13  C   UNL     1      -8.158   1.058  -0.675  0.00  0.00    +0.000 A 
ATOM     14  C   UNL     1      -7.391   1.730  -1.628  0.00  0.00    +0.000 A 
ATOM     15  C   UNL     1      -6.003   1.627  -1.595  0.00  0.00    +0.000 A 
ATOM     16  F   UNL     1      -5.286   2.281  -2.520  0.00  0.00    +0.000 F 
ENDBRANCH   2  10
TORSDOF 2
