REMARK  Name = *****
REMARK  3 active torsions:
REMARK  status: ('A' for Active; 'I' for Inactive)
REMARK    1  A    between atoms: C_4  and  N_7
REMARK    2  A    between atoms: C_8  and  C_10
REMARK    3  A    between atoms: C_15  and  O_16
REMARK                            x       y       z     vdW  Elec       q    Type
REMARK                         _______ _______ _______ _____ _____    ______ ____
ROOT
ATOM      1  N   UNL     1      -2.829   0.122  -0.158  0.00  0.00    +0.000 N 
ATOM      2  C   UNL     1      -3.727  -0.869  -0.507  0.00  0.00    +0.000 C 
ATOM      3  O   UNL     1      -3.444  -1.976  -0.954  0.00  0.00    +0.000 OA
ATOM      4  H   UNL     1      -3.219   0.971   0.152  0.00  0.00    +0.000 HD
ENDROOT
BRANCH   1   8
ATOM      5  C   UNL     1       1.389   0.116  -0.190  0.00  0.00    +0.000 A 
ATOM      6  C   UNL     1       0.708  -1.028  -0.598  0.00  0.00    +0.000 A 
ATOM      7  C   UNL     1      -0.691  -1.055  -0.599  0.00  0.00    +0.000 A 
ATOM      8  C   UNL     1      -1.420   0.064  -0.191  0.00  0.00    +0.000 A 
ATOM      9  C   UNL     1      -0.725   1.210   0.219  0.00  0.00    +0.000 A 
ATOM     10  C   UNL     1       0.672   1.236   0.219  0.00  0.00    +0.000 A 
ENDBRANCH   1   8
BRANCH   2  11
ATOM     11  C   UNL     1      -5.176  -0.524  -0.355  0.00  0.00    +0.000 A 
ATOM     12  C   UNL     1      -6.089  -1.212  -1.171  0.00  0.00    +0.000 A 
ATOM     13  C   UNL     1      -7.457  -0.937  -1.104  0.00  0.00    +0.000 A 
ATOM     14  C   UNL     1      -7.932   0.030  -0.221  0.00  0.00    +0.000 A 
ATOM     15  C   UNL     1      -7.040   0.713   0.605  0.00  0.00    +0.000 A 
ATOM     16  C   UNL     1      -5.671   0.422   0.553  0.00  0.00    +0.000 A 
BRANCH  16  17
ATOM     17  O   UNL     1      -4.842   1.131   1.384  0.00  0.00    +0.000 OA
ATOM     18 BR   UNL     1      -4.676   0.363   3.018  0.00  0.00    +0.000 Br
ENDBRANCH  16  17
ENDBRANCH   2  11
TORSDOF 3
