MODEL 1
REMARK VINA RESULT:      -4.8      0.000      0.000
REMARK  Name = *****
REMARK  4 active torsions:
REMARK  status: ('A' for Active; 'I' for Inactive)
REMARK    1  A    between atoms: C_3  and  C_19
REMARK    2  A    between atoms: C_6  and  C_7
REMARK    3  A    between atoms: C_8  and  C_9
REMARK    4  A    between atoms: C_12  and  C_15
REMARK                            x       y       z     vdW  Elec       q    Type
REMARK                         _______ _______ _______ _____ _____    ______ ____
ROOT
ATOM      1  C   UNL     1      88.053  65.130  87.752  0.00  0.00    +0.000 C 
ATOM      2  C   UNL     1      87.087  65.038  88.680  0.00  0.00    +0.000 C 
ENDROOT
BRANCH   1   8
ATOM      3  C   UNL     1      89.726  66.504  86.460  0.00  0.00    +0.000 A 
ATOM      4  C   UNL     1      90.139  67.736  85.940  0.00  0.00    +0.000 A 
ATOM      5  C   UNL     1      89.366  68.882  86.147  0.00  0.00    +0.000 A 
ATOM      6  C   UNL     1      88.184  68.793  86.886  0.00  0.00    +0.000 A 
ATOM      7  C   UNL     1      87.773  67.560  87.405  0.00  0.00    +0.000 A 
ATOM      8  C   UNL     1      88.529  66.400  87.182  0.00  0.00    +0.000 A 
BRANCH   5   9
ATOM      9  C   UNL     1      89.784  70.142  85.606  0.00  0.00    +0.000 C 
ATOM     10  N   UNL     1      90.125  71.161  85.168  0.00  0.00    +0.000 NA
ENDBRANCH   5   9
ENDBRANCH   1   8
BRANCH   2  11
ATOM     11  C   UNL     1      86.648  63.776  89.295  0.00  0.00    +0.000 A 
ATOM     12  C   UNL     1      86.064  63.728  90.567  0.00  0.00    +0.000 A 
ATOM     13  C   UNL     1      85.595  62.520  91.095  0.00  0.00    +0.000 A 
ATOM     14  C   UNL     1      85.691  61.334  90.355  0.00  0.00    +0.000 A 
ATOM     15  C   UNL     1      86.269  61.381  89.079  0.00  0.00    +0.000 A 
ATOM     16  C   UNL     1      86.737  62.591  88.553  0.00  0.00    +0.000 A 
BRANCH  14  17
ATOM     17  C   UNL     1      85.170  60.027  90.901  0.00  0.00    +0.000 C 
ATOM     18  F   UNL     1      85.057  60.008  92.259  0.00  0.00    +0.000 F 
ATOM     19  F   UNL     1      83.934  59.719  90.421  0.00  0.00    +0.000 F 
ATOM     20  F   UNL     1      85.969  58.972  90.580  0.00  0.00    +0.000 F 
ENDBRANCH  14  17
ENDBRANCH   2  11
TORSDOF 4
ENDMDL
