MODEL 1
REMARK VINA RESULT:      -4.6      0.000      0.000
REMARK  Name = *****
REMARK  5 active torsions:
REMARK  status: ('A' for Active; 'I' for Inactive)
REMARK    1  A    between atoms: C_1  and  C_2
REMARK    2  A    between atoms: C_3  and  C_16
REMARK    3  A    between atoms: C_5  and  O_8
REMARK    4  A    between atoms: O_8  and  C_9
REMARK    5  A    between atoms: C_9  and  C_10
REMARK                            x       y       z     vdW  Elec       q    Type
REMARK                         _______ _______ _______ _____ _____    ______ ____
ROOT
ATOM      1  C   UNL     1      88.973  64.149  86.525  0.00  0.00    +0.000 C 
ATOM      2  C   UNL     1      88.957  65.649  86.642  0.00  0.00    +0.000 A 
ATOM      3  C   UNL     1      90.009  66.439  86.135  0.00  0.00    +0.000 A 
ATOM      4  C   UNL     1      89.950  67.840  86.270  0.00  0.00    +0.000 A 
ATOM      5  C   UNL     1      88.863  68.456  86.891  0.00  0.00    +0.000 A 
ATOM      6  C   UNL     1      87.824  67.667  87.381  0.00  0.00    +0.000 A 
ATOM      7  C   UNL     1      87.868  66.278  87.260  0.00  0.00    +0.000 A 
ATOM      8  C   UNL     1      91.201  65.815  85.464  0.00  0.00    +0.000 C 
ENDROOT
BRANCH   5   9
ATOM      9  O   UNL     1      88.693  69.800  87.080  0.00  0.00    +0.000 OA
BRANCH   9  10
ATOM     10  C   UNL     1      88.120  70.540  86.006  0.00  0.00    +0.000 C 
BRANCH  10  11
ATOM     11  C   UNL     1      86.835  71.163  86.495  0.00  0.00    +0.000 A 
ATOM     12  C   UNL     1      85.909  71.694  85.586  0.00  0.00    +0.000 A 
ATOM     13  C   UNL     1      84.728  72.282  86.043  0.00  0.00    +0.000 A 
ATOM     14  C   UNL     1      84.466  72.353  87.410  0.00  0.00    +0.000 A 
ATOM     15  C   UNL     1      85.388  71.842  88.322  0.00  0.00    +0.000 A 
ATOM     16  C   UNL     1      86.569  71.254  87.869  0.00  0.00    +0.000 A 
ENDBRANCH  10  11
ENDBRANCH   9  10
ENDBRANCH   5   9
TORSDOF 3
ENDMDL
