MODEL 1
REMARK VINA RESULT:      -4.3      0.000      0.000
REMARK  Name = *****
REMARK  4 active torsions:
REMARK  status: ('A' for Active; 'I' for Inactive)
REMARK    1  A    between atoms: C_4  and  O_7
REMARK    2  A    between atoms: O_7  and  C_8
REMARK    3  A    between atoms: C_8  and  C_9
REMARK    4  A    between atoms: C_14  and  C_15
REMARK                            x       y       z     vdW  Elec       q    Type
REMARK                         _______ _______ _______ _____ _____    ______ ____
ROOT
ATOM      1  C   UNL     1      88.466  66.514  86.513  0.00  0.00    +0.000 A 
ATOM      2  C   UNL     1      87.704  67.255  87.437  0.00  0.00    +0.000 A 
ATOM      3  C   UNL     1      88.003  68.590  87.718  0.00  0.00    +0.000 A 
ATOM      4  C   UNL     1      89.063  69.215  87.074  0.00  0.00    +0.000 A 
ATOM      5  C   UNL     1      89.825  68.508  86.144  0.00  0.00    +0.000 A 
ATOM      6  C   UNL     1      89.538  67.161  85.856  0.00  0.00    +0.000 A 
ENDROOT
BRANCH   6   7
ATOM      7  C   UNL     1      90.381  66.452  84.834  0.00  0.00    +0.000 C 
ATOM      8  O   UNL     1      90.111  66.621  83.647  0.00  0.00    +0.000 OA
ATOM      9 CL   UNL     1      91.690  65.418  85.376  0.00  0.00    +0.000 Cl
ENDBRANCH   6   7
BRANCH   1  10
ATOM     10  C   UNL     1      88.121  65.059  86.230  0.00  0.00    +0.000 C 
BRANCH  10  11
ATOM     11  O   UNL     1      88.792  64.176  87.135  0.00  0.00    +0.000 OA
BRANCH  11  15
ATOM     12  C   UNL     1      86.426  62.584  90.170  0.00  0.00    +0.000 A 
ATOM     13  C   UNL     1      87.332  63.591  90.500  0.00  0.00    +0.000 A 
ATOM     14  C   UNL     1      88.151  64.152  89.513  0.00  0.00    +0.000 A 
ATOM     15  C   UNL     1      88.062  63.709  88.193  0.00  0.00    +0.000 A 
ATOM     16  C   UNL     1      87.148  62.700  87.871  0.00  0.00    +0.000 A 
ATOM     17  C   UNL     1      86.334  62.137  88.855  0.00  0.00    +0.000 A 
ENDBRANCH  11  15
ENDBRANCH  10  11
ENDBRANCH   1  10
TORSDOF 4
ENDMDL
