MODEL 1
REMARK VINA RESULT:      -5.3      0.000      0.000
REMARK  Name = *****
REMARK  4 active torsions:
REMARK  status: ('A' for Active; 'I' for Inactive)
REMARK    1  A    between atoms: C_4  and  C_19
REMARK    2  A    between atoms: C_5  and  C_7
REMARK    3  A    between atoms: C_8  and  C_9
REMARK    4  A    between atoms: C_11  and  C_15
REMARK                            x       y       z     vdW  Elec       q    Type
REMARK                         _______ _______ _______ _____ _____    ______ ____
ROOT
ATOM      1  C   UNL     1     102.186 126.048  82.189  0.00  0.00    +0.000 C 
ATOM      2  C   UNL     1     102.974 126.229  81.117  0.00  0.00    +0.000 C 
ENDROOT
BRANCH   1   7
ATOM      3  C   UNL     1      98.830 127.632  82.734  0.00  0.00    +0.000 A 
ATOM      4  C   UNL     1      99.149 128.810  83.402  0.00  0.00    +0.000 A 
ATOM      5  C   UNL     1     100.481 129.106  83.689  0.00  0.00    +0.000 A 
ATOM      6  C   UNL     1     101.506 128.226  83.305  0.00  0.00    +0.000 A 
ATOM      7  C   UNL     1     101.188 127.038  82.618  0.00  0.00    +0.000 A 
ATOM      8  C   UNL     1      99.841 126.750  82.348  0.00  0.00    +0.000 A 
BRANCH   6   9
ATOM      9  C   UNL     1     102.858 128.570  83.644  0.00  0.00    +0.000 C 
ATOM     10  N   UNL     1     103.953 128.826  83.936  0.00  0.00    +0.000 NA
ENDBRANCH   6   9
ENDBRANCH   1   7
BRANCH   2  11
ATOM     11  C   UNL     1     103.982 125.251  80.694  0.00  0.00    +0.000 A 
ATOM     12  C   UNL     1     104.015 123.951  81.213  0.00  0.00    +0.000 A 
ATOM     13  C   UNL     1     104.979 123.024  80.778  0.00  0.00    +0.000 A 
ATOM     14  C   UNL     1     105.899 123.412  79.793  0.00  0.00    +0.000 A 
ATOM     15  C   UNL     1     105.864 124.702  79.264  0.00  0.00    +0.000 A 
ATOM     16  C   UNL     1     104.907 125.615  79.710  0.00  0.00    +0.000 A 
BRANCH  13  17
ATOM     17  C   UNL     1     104.993 121.621  81.329  0.00  0.00    +0.000 C 
ATOM     18  F   UNL     1     104.815 121.574  82.680  0.00  0.00    +0.000 F 
ATOM     19  F   UNL     1     104.008 120.846  80.796  0.00  0.00    +0.000 F 
ATOM     20  F   UNL     1     106.160 120.962  81.088  0.00  0.00    +0.000 F 
ENDBRANCH  13  17
ENDBRANCH   2  11
TORSDOF 4
ENDMDL
