MODEL 1
REMARK VINA RESULT:      -4.4      0.000      0.000
REMARK  Name = *****
REMARK  4 active torsions:
REMARK  status: ('A' for Active; 'I' for Inactive)
REMARK    1  A    between atoms: C_4  and  C_7
REMARK    2  A    between atoms: C_7  and  S_8
REMARK    3  A    between atoms: S_8  and  N_9
REMARK    4  A    between atoms: S_8  and  C_12
REMARK                            x       y       z     vdW  Elec       q    Type
REMARK                         _______ _______ _______ _____ _____    ______ ____
ROOT
ATOM      1  S   UNL     1     103.333 126.249  82.439  0.00  0.00    +0.000 S 
ATOM      2  O   UNL     1     104.357 126.838  83.287  0.00  0.00    +0.000 OA
ENDROOT
BRANCH   1   3
ATOM      3  C   UNL     1     104.000 124.632  82.029  0.00  0.00    +0.000 A 
ATOM      4  C   UNL     1     104.154 123.716  83.077  0.00  0.00    +0.000 A 
ATOM      5  C   UNL     1     104.656 122.442  82.815  0.00  0.00    +0.000 A 
ATOM      6  C   UNL     1     105.001 122.084  81.512  0.00  0.00    +0.000 A 
ATOM      7  C   UNL     1     104.846 122.998  80.469  0.00  0.00    +0.000 A 
ATOM      8  C   UNL     1     104.344 124.276  80.721  0.00  0.00    +0.000 A 
ENDBRANCH   1   3
BRANCH   1   9
ATOM      9  N   UNL     1     102.857 126.849  81.092  0.00  0.00    +0.000 NA
ATOM     10 CL   UNL     1     103.853 127.896  80.164  0.00  0.00    +0.000 Cl
ENDBRANCH   1   9
BRANCH   1  11
ATOM     11  C   UNL     1     101.924 125.927  83.493  0.00  0.00    +0.000 C 
BRANCH  11  15
ATOM     12  C   UNL     1      99.029 129.109  83.137  0.00  0.00    +0.000 A 
ATOM     13  C   UNL     1      98.753 127.852  82.603  0.00  0.00    +0.000 A 
ATOM     14  C   UNL     1      99.689 126.822  82.715  0.00  0.00    +0.000 A 
ATOM     15  C   UNL     1     100.912 127.038  83.365  0.00  0.00    +0.000 A 
ATOM     16  C   UNL     1     101.180 128.309  83.895  0.00  0.00    +0.000 A 
ATOM     17  C   UNL     1     100.244 129.338  83.781  0.00  0.00    +0.000 A 
ENDBRANCH  11  15
ENDBRANCH   1  11
TORSDOF 4
ENDMDL
