MODEL 1
REMARK VINA RESULT:      -4.9      0.000      0.000
REMARK  Name = *****
REMARK  6 active torsions:
REMARK  status: ('A' for Active; 'I' for Inactive)
REMARK    1  A    between atoms: C_1  and  O_2
REMARK    2  A    between atoms: O_2  and  C_3
REMARK    3  A    between atoms: C_5  and  C_11
REMARK    4  A    between atoms: C_6  and  O_9
REMARK    5  A    between atoms: O_9  and  C_10
REMARK    6  A    between atoms: C_12  and  C_13
REMARK                            x       y       z     vdW  Elec       q    Type
REMARK                         _______ _______ _______ _____ _____    ______ ____
ROOT
ATOM      1  C   UNL     1      98.899 127.483  82.800  0.00  0.00    +0.000 A 
ATOM      2  C   UNL     1      99.967 126.640  82.475  0.00  0.00    +0.000 A 
ATOM      3  C   UNL     1     101.298 127.041  82.695  0.00  0.00    +0.000 A 
ATOM      4  C   UNL     1     101.531 128.293  83.288  0.00  0.00    +0.000 A 
ATOM      5  C   UNL     1     100.471 129.149  83.589  0.00  0.00    +0.000 A 
ATOM      6  C   UNL     1      99.161 128.740  83.349  0.00  0.00    +0.000 A 
ENDROOT
BRANCH   1   8
ATOM      7  C   UNL     1      97.004 126.213  83.472  0.00  0.00    +0.000 C 
ATOM      8  O   UNL     1      97.572 127.204  82.625  0.00  0.00    +0.000 OA
ENDBRANCH   1   8
BRANCH   4   9
ATOM      9  O   UNL     1     102.802 128.745  83.540  0.00  0.00    +0.000 OA
ATOM     10  C   UNL     1     102.755 129.874  84.413  0.00  0.00    +0.000 C 
ENDBRANCH   4   9
BRANCH   3  11
ATOM     11  C   UNL     1     102.363 126.091  82.330  0.00  0.00    +0.000 C 
ATOM     12  C   UNL     1     102.875 125.994  81.093  0.00  0.00    +0.000 C 
BRANCH  12  13
ATOM     13  C   UNL     1     103.947 125.058  80.732  0.00  0.00    +0.000 A 
ATOM     14  C   UNL     1     104.781 125.369  79.651  0.00  0.00    +0.000 A 
ATOM     15  C   UNL     1     105.794 124.488  79.272  0.00  0.00    +0.000 A 
ATOM     16  C   UNL     1     105.979 123.286  79.951  0.00  0.00    +0.000 A 
ATOM     17  C   UNL     1     105.142 122.960  81.017  0.00  0.00    +0.000 A 
ATOM     18  C   UNL     1     104.127 123.841  81.403  0.00  0.00    +0.000 A 
ATOM     19 CL   UNL     1     106.824 124.889  77.952  0.00  0.00    +0.000 Cl
ENDBRANCH  12  13
ENDBRANCH   3  11
TORSDOF 4
ENDMDL
