MODEL 1
REMARK VINA RESULT:      -4.2      0.000      0.000
REMARK  Name = *****
REMARK  3 active torsions:
REMARK  status: ('A' for Active; 'I' for Inactive)
REMARK    1  A    between atoms: C_1  and  C_2
REMARK    2  A    between atoms: C_5  and  C_7
REMARK    3  A    between atoms: C_8  and  C_9
REMARK                            x       y       z     vdW  Elec       q    Type
REMARK                         _______ _______ _______ _____ _____    ______ ____
ROOT
ATOM      1  C   UNL     1      97.578 117.585  79.991  0.00  0.00    +0.000 C 
ATOM      2  C   UNL     1      98.022 118.510  80.615  0.00  0.00    +0.000 C 
ENDROOT
BRANCH   1   7
ATOM      3  C   UNL     1      94.997 113.276  78.339  0.00  0.00    +0.000 C 
ATOM      4  C   UNL     1      95.869 114.480  78.438  0.00  0.00    +0.000 A 
ATOM      5  C   UNL     1      96.687 115.031  77.473  0.00  0.00    +0.000 A 
ATOM      6  C   UNL     1      97.370 116.190  77.946  0.00  0.00    +0.000 A 
ATOM      7  C   UNL     1      97.051 116.485  79.252  0.00  0.00    +0.000 A 
ATOM      8  S   UNL     1      95.936 115.367  79.901  0.00  0.00    +0.000 S 
ENDBRANCH   1   7
BRANCH   2   9
ATOM      9  C   UNL     1      98.569 119.646  81.385  0.00  0.00    +0.000 C 
ATOM     10  C   UNL     1      98.942 119.217  82.811  0.00  0.00    +0.000 C 
ATOM     11  C   UNL     1      97.723 118.983  83.703  0.00  0.00    +0.000 C 
ATOM     12  C   UNL     1      96.788 120.187  83.708  0.00  0.00    +0.000 C 
ATOM     13  C   UNL     1      96.374 120.586  82.295  0.00  0.00    +0.000 C 
ATOM     14  C   UNL     1      97.588 120.826  81.398  0.00  0.00    +0.000 C 
ENDBRANCH   2   9
TORSDOF 2
ENDMDL
