REMARK  Name = *****
REMARK  3 active torsions:
REMARK  status: ('A' for Active; 'I' for Inactive)
REMARK    1  A    between atoms: C_4  and  C_7
REMARK    2  A    between atoms: C_8  and  C_9
REMARK    3  A    between atoms: C_8  and  C_11
REMARK                            x       y       z     vdW  Elec       q    Type
REMARK                         _______ _______ _______ _____ _____    ______ ____
ROOT
ATOM      1  C   UNL     1      -2.752   0.395  -0.392  0.00  0.00    +0.000 C 
ATOM      2  C   UNL     1      -3.725  -0.518  -0.196  0.00  0.00    +0.000 C 
ENDROOT
BRANCH   2   3
ATOM      3  C   UNL     1      -5.130  -0.115  -0.411  0.00  0.00    +0.000 A 
ATOM      4  C   UNL     1      -6.050  -0.153   0.648  0.00  0.00    +0.000 A 
ATOM      5  C   UNL     1      -7.382   0.221   0.445  0.00  0.00    +0.000 A 
ATOM      6  C   UNL     1      -7.811   0.633  -0.817  0.00  0.00    +0.000 A 
ATOM      7  C   UNL     1      -6.909   0.670  -1.878  0.00  0.00    +0.000 A 
ATOM      8  C   UNL     1      -5.583   0.297  -1.671  0.00  0.00    +0.000 A 
ATOM      9  F   UNL     1      -4.739   0.335  -2.714  0.00  0.00    +0.000 F 
ENDBRANCH   2   3
BRANCH   1  13
ATOM     10  C   UNL     1       1.440  -0.196   0.154  0.00  0.00    +0.000 A 
ATOM     11  C   UNL     1       0.757  -0.944  -0.804  0.00  0.00    +0.000 A 
ATOM     12  C   UNL     1      -0.615  -0.760  -0.988  0.00  0.00    +0.000 A 
ATOM     13  C   UNL     1      -1.314   0.169  -0.207  0.00  0.00    +0.000 A 
ATOM     14  C   UNL     1      -0.619   0.924   0.745  0.00  0.00    +0.000 A 
ATOM     15  C   UNL     1       0.753   0.739   0.927  0.00  0.00    +0.000 A 
ENDBRANCH   1  13
BRANCH   2  16
ATOM     16  C   UNL     1      -3.460  -1.848   0.257  0.00  0.00    +0.000 C 
ATOM     17  N   UNL     1      -3.272  -2.932   0.629  0.00  0.00    +0.000 NA
ENDBRANCH   2  16
TORSDOF 3
