MODEL 1
REMARK VINA RESULT:      -4.5      0.000      0.000
REMARK  Name = *****
REMARK  6 active torsions:
REMARK  status: ('A' for Active; 'I' for Inactive)
REMARK    1  A    between atoms: C_1  and  C_2
REMARK    2  A    between atoms: N_5  and  C_9
REMARK    3  A    between atoms: C_9  and  C_10
REMARK    4  A    between atoms: C_9  and  C_17
REMARK    5  A    between atoms: C_10  and  C_11
REMARK    6  A    between atoms: C_17  and  C_19
REMARK                            x       y       z     vdW  Elec       q    Type
REMARK                         _______ _______ _______ _____ _____    ______ ____
ROOT
ATOM      1  C   UNL     1     103.785 127.498  81.800  0.00  0.00    +0.000 C 
ENDROOT
BRANCH   1   6
ATOM      2  C   UNL     1     104.983 122.919  80.343  0.00  0.00    +0.000 C 
ATOM      3  C   UNL     1     105.432 124.363  80.473  0.00  0.00    +0.000 C 
ATOM      4  C   UNL     1     104.284 125.316  80.744  0.00  0.00    +0.000 C 
ATOM      5  O   UNL     1     103.142 125.113  80.347  0.00  0.00    +0.000 OA
ATOM      6  N   UNL     1     104.706 126.384  81.514  0.00  0.00    +0.000 N 
ATOM      7  C   UNL     1     105.566 125.938  82.479  0.00  0.00    +0.000 C 
ATOM      8  O   UNL     1     105.641 126.291  83.643  0.00  0.00    +0.000 OA
ATOM      9  S   UNL     1     106.527 124.594  81.890  0.00  0.00    +0.000 S 
ENDBRANCH   1   6
BRANCH   1  10
ATOM     10  C   UNL     1     104.519 128.849  81.737  0.00  0.00    +0.000 C 
ATOM     11  C   UNL     1     104.739 129.650  82.796  0.00  0.00    +0.000 C 
ATOM     12  C   UNL     1     105.030 129.232  80.373  0.00  0.00    +0.000 C 
ENDBRANCH   1  10
BRANCH   1  13
ATOM     13  C   UNL     1     102.964 127.409  83.128  0.00  0.00    +0.000 C 
BRANCH  13  14
ATOM     14  C   UNL     1     101.465 127.619  83.034  0.00  0.00    +0.000 A 
ATOM     15  C   UNL     1     100.642 126.644  82.450  0.00  0.00    +0.000 A 
ATOM     16  C   UNL     1      99.262 126.837  82.352  0.00  0.00    +0.000 A 
ATOM     17  C   UNL     1      98.685 128.002  82.850  0.00  0.00    +0.000 A 
ATOM     18  C   UNL     1      99.484 128.967  83.457  0.00  0.00    +0.000 A 
ATOM     19  C   UNL     1     100.863 128.773  83.554  0.00  0.00    +0.000 A 
ENDBRANCH  13  14
ENDBRANCH   1  13
TORSDOF 4
ENDMDL
