MODEL 1
REMARK VINA RESULT:      -4.6      0.000      0.000
REMARK  Name = *****
REMARK  2 active torsions:
REMARK  status: ('A' for Active; 'I' for Inactive)
REMARK    1  A    between atoms: C_4  and  C_7
REMARK    2  A    between atoms: C_8  and  C_11
REMARK                            x       y       z     vdW  Elec       q    Type
REMARK                         _______ _______ _______ _____ _____    ______ ____
ROOT
ATOM      1  C   UNL     1      86.727  69.511  87.499  0.00  0.00    +0.000 C 
ATOM      2  C   UNL     1      86.831  70.983  87.127  0.00  0.00    +0.000 C 
ATOM      3  C   UNL     1      86.857  70.558  88.577  0.00  0.00    +0.000 C 
ATOM      4 BR   UNL     1      88.486  70.845  89.533  0.00  0.00    +0.000 Br
ENDROOT
BRANCH   1   8
ATOM      5  C   UNL     1      89.873  66.720  86.425  0.00  0.00    +0.000 A 
ATOM      6  C   UNL     1      88.743  66.277  87.107  0.00  0.00    +0.000 A 
ATOM      7  C   UNL     1      87.737  67.182  87.454  0.00  0.00    +0.000 A 
ATOM      8  C   UNL     1      87.837  68.549  87.141  0.00  0.00    +0.000 A 
ATOM      9  C   UNL     1      88.981  68.965  86.439  0.00  0.00    +0.000 A 
ATOM     10  C   UNL     1      89.991  68.065  86.088  0.00  0.00    +0.000 A 
ENDBRANCH   1   8
BRANCH   2  11
ATOM     11  C   UNL     1      85.625  71.710  86.577  0.00  0.00    +0.000 A 
ATOM     12  C   UNL     1      84.641  72.235  87.432  0.00  0.00    +0.000 A 
ATOM     13  C   UNL     1      83.530  72.919  86.930  0.00  0.00    +0.000 A 
ATOM     14  C   UNL     1      83.385  73.097  85.558  0.00  0.00    +0.000 A 
ATOM     15  C   UNL     1      84.352  72.598  84.690  0.00  0.00    +0.000 A 
ATOM     16  C   UNL     1      85.461  71.916  85.198  0.00  0.00    +0.000 A 
ENDBRANCH   2  11
TORSDOF 2
ENDMDL
