MODEL 1
REMARK VINA RESULT:      -4.9      0.000      0.000
REMARK  Name = *****
REMARK  2 active torsions:
REMARK  status: ('A' for Active; 'I' for Inactive)
REMARK    1  A    between atoms: C_4  and  C_7
REMARK    2  A    between atoms: C_7  and  C_8
REMARK                            x       y       z     vdW  Elec       q    Type
REMARK                         _______ _______ _______ _____ _____    ______ ____
ROOT
ATOM      1  C   UNL     1      88.817  68.779  87.064  0.00  0.00    +0.000 A 
ATOM      2  C   UNL     1      89.896  68.198  86.376  0.00  0.00    +0.000 A 
ATOM      3  C   UNL     1      89.947  66.801  86.144  0.00  0.00    +0.000 A 
ATOM      4  C   UNL     1      88.892  66.015  86.615  0.00  0.00    +0.000 A 
ATOM      5  C   UNL     1      87.801  66.581  87.299  0.00  0.00    +0.000 A 
ATOM      6  C   UNL     1      87.778  67.963  87.513  0.00  0.00    +0.000 A 
ATOM      7  S   UNL     1      89.133  64.350  86.239  0.00  0.00    +0.000 S 
ATOM      8  C   UNL     1      90.616  64.663  85.460  0.00  0.00    +0.000 A 
ATOM      9  C   UNL     1      90.935  66.001  85.478  0.00  0.00    +0.000 A 
ENDROOT
BRANCH   1  10
ATOM     10  C   UNL     1      88.772  70.274  87.288  0.00  0.00    +0.000 C 
BRANCH  10  14
ATOM     11  C   UNL     1      84.977  72.086  86.309  0.00  0.00    +0.000 A 
ATOM     12  C   UNL     1      85.856  71.714  85.292  0.00  0.00    +0.000 A 
ATOM     13  C   UNL     1      87.082  71.126  85.608  0.00  0.00    +0.000 A 
ATOM     14  C   UNL     1      87.439  70.898  86.944  0.00  0.00    +0.000 A 
ATOM     15  C   UNL     1      86.549  71.280  87.959  0.00  0.00    +0.000 A 
ATOM     16  C   UNL     1      85.323  71.870  87.641  0.00  0.00    +0.000 A 
ENDBRANCH  10  14
ENDBRANCH   1  10
TORSDOF 2
ENDMDL
