MODEL 1
REMARK VINA RESULT:      -4.1      0.000      0.000
REMARK  Name = *****
REMARK  3 active torsions:
REMARK  status: ('A' for Active; 'I' for Inactive)
REMARK    1  A    between atoms: C_4  and  C_7
REMARK    2  A    between atoms: C_7  and  O_8
REMARK    3  A    between atoms: O_8  and  C_9
REMARK                            x       y       z     vdW  Elec       q    Type
REMARK                         _______ _______ _______ _____ _____    ______ ____
ROOT
ATOM      1  O   UNL     1      87.380  64.306  86.694  0.00  0.00    +0.000 OA
ENDROOT
BRANCH   1   2
ATOM      2  C   UNL     1      88.513  64.993  86.353  0.00  0.00    +0.000 A 
ATOM      3  C   UNL     1      88.752  66.315  86.750  0.00  0.00    +0.000 A 
ATOM      4  C   UNL     1      89.952  66.938  86.398  0.00  0.00    +0.000 A 
ATOM      5  C   UNL     1      90.916  66.237  85.669  0.00  0.00    +0.000 A 
ATOM      6  C   UNL     1      90.681  64.912  85.300  0.00  0.00    +0.000 A 
ATOM      7  C   UNL     1      89.486  64.285  85.645  0.00  0.00    +0.000 A 
ATOM      8 CL   UNL     1      91.877  64.049  84.415  0.00  0.00    +0.000 Cl
ATOM      9 CL   UNL     1      87.612  67.206  87.687  0.00  0.00    +0.000 Cl
ENDBRANCH   1   2
BRANCH   1  10
ATOM     10  C   UNL     1      87.663  63.181  87.540  0.00  0.00    +0.000 C 
BRANCH  10  14
ATOM     11  C   UNL     1      87.931  64.357  91.689  0.00  0.00    +0.000 A 
ATOM     12  C   UNL     1      86.702  64.398  91.035  0.00  0.00    +0.000 A 
ATOM     13  C   UNL     1      86.610  64.028  89.693  0.00  0.00    +0.000 A 
ATOM     14  C   UNL     1      87.751  63.623  88.984  0.00  0.00    +0.000 A 
ATOM     15  C   UNL     1      88.980  63.572  89.658  0.00  0.00    +0.000 A 
ATOM     16  C   UNL     1      89.069  63.942  91.002  0.00  0.00    +0.000 A 
ENDBRANCH  10  14
ENDBRANCH   1  10
TORSDOF 3
ENDMDL
