MODEL 1
REMARK VINA RESULT:      -5.2      0.000      0.000
REMARK  Name = *****
REMARK  4 active torsions:
REMARK  status: ('A' for Active; 'I' for Inactive)
REMARK    1  A    between atoms: C_1  and  C_2
REMARK    2  A    between atoms: C_4  and  C_18
REMARK    3  A    between atoms: C_5  and  C_8
REMARK    4  A    between atoms: C_14  and  C_17
REMARK                            x       y       z     vdW  Elec       q    Type
REMARK                         _______ _______ _______ _____ _____    ______ ____
ROOT
ATOM      1  C   UNL     1     102.225 126.933  82.547  0.00  0.00    +0.000 A 
ATOM      2  N   UNL     1     102.637 126.813  81.296  0.00  0.00    +0.000 NA
ATOM      3  C   UNL     1     103.345 125.639  81.290  0.00  0.00    +0.000 A 
ATOM      4  C   UNL     1     103.336 125.078  82.555  0.00  0.00    +0.000 A 
ATOM      5  O   UNL     1     102.624 125.905  83.371  0.00  0.00    +0.000 OA
ATOM      6  C   UNL     1     103.956 123.883  82.897  0.00  0.00    +0.000 A 
ATOM      7  C   UNL     1     104.625 123.213  81.858  0.00  0.00    +0.000 A 
ATOM      8  C   UNL     1     104.668 123.766  80.565  0.00  0.00    +0.000 A 
ATOM      9  C   UNL     1     104.027 124.980  80.262  0.00  0.00    +0.000 A 
ATOM     10  C   UNL     1     105.345 121.924  82.137  0.00  0.00    +0.000 C 
ENDROOT
BRANCH   1  15
ATOM     11  C   UNL     1      99.136 131.185  85.011  0.00  0.00    +0.000 C 
ATOM     12  C   UNL     1      99.925 130.065  84.402  0.00  0.00    +0.000 A 
ATOM     13  C   UNL     1      99.276 129.022  83.732  0.00  0.00    +0.000 A 
ATOM     14  C   UNL     1      99.999 127.975  83.126  0.00  0.00    +0.000 A 
ATOM     15  C   UNL     1     101.411 127.984  83.174  0.00  0.00    +0.000 A 
ATOM     16  C   UNL     1     102.049 129.048  83.839  0.00  0.00    +0.000 A 
ATOM     17  C   UNL     1     101.319 130.077  84.441  0.00  0.00    +0.000 A 
ATOM     18  C   UNL     1      99.223 126.882  82.437  0.00  0.00    +0.000 C 
ENDBRANCH   1  15
TORSDOF 1
ENDMDL
