REMARK  Name = *****
REMARK  4 active torsions:
REMARK  status: ('A' for Active; 'I' for Inactive)
REMARK    1  A    between atoms: C_4  and  C_7
REMARK    2  A    between atoms: C_7  and  S_8
REMARK    3  A    between atoms: S_8  and  N_9
REMARK    4  A    between atoms: S_8  and  C_12
REMARK                            x       y       z     vdW  Elec       q    Type
REMARK                         _______ _______ _______ _____ _____    ______ ____
ROOT
ATOM      1  S   UNL     1      -3.666  -1.122  -0.920  0.00  0.00    +0.000 S 
ATOM      2  O   UNL     1      -3.453  -2.293  -0.083  0.00  0.00    +0.000 OA
ENDROOT
BRANCH   1   3
ATOM      3  C   UNL     1      -5.431  -0.817  -0.781  0.00  0.00    +0.000 A 
ATOM      4  C   UNL     1      -6.284  -1.922  -0.894  0.00  0.00    +0.000 A 
ATOM      5  C   UNL     1      -7.663  -1.746  -0.782  0.00  0.00    +0.000 A 
ATOM      6  C   UNL     1      -8.187  -0.473  -0.557  0.00  0.00    +0.000 A 
ATOM      7  C   UNL     1      -7.334   0.626  -0.444  0.00  0.00    +0.000 A 
ATOM      8  C   UNL     1      -5.952   0.460  -0.554  0.00  0.00    +0.000 A 
ENDBRANCH   1   3
BRANCH   1   9
ATOM      9  N   UNL     1      -3.358  -1.061  -2.437  0.00  0.00    +0.000 NA
ATOM     10 CL   UNL     1      -3.782   0.300  -3.395  0.00  0.00    +0.000 Cl
ENDBRANCH   1   9
BRANCH   1  11
ATOM     11  C   UNL     1      -2.880   0.250  -0.084  0.00  0.00    +0.000 C 
BRANCH  11  15
ATOM     12  C   UNL     1       1.389  -0.356   0.105  0.00  0.00    +0.000 A 
ATOM     13  C   UNL     1       0.836   0.385  -0.937  0.00  0.00    +0.000 A 
ATOM     14  C   UNL     1      -0.545   0.580  -1.001  0.00  0.00    +0.000 A 
ATOM     15  C   UNL     1      -1.388   0.037  -0.021  0.00  0.00    +0.000 A 
ATOM     16  C   UNL     1      -0.819  -0.711   1.020  0.00  0.00    +0.000 A 
ATOM     17  C   UNL     1       0.562  -0.906   1.082  0.00  0.00    +0.000 A 
ENDBRANCH  11  15
ENDBRANCH   1  11
TORSDOF 4
