REMARK  Name = *****
REMARK  5 active torsions:
REMARK  status: ('A' for Active; 'I' for Inactive)
REMARK    1  A    between atoms: C_1  and  C_2
REMARK    2  A    between atoms: C_5  and  C_8
REMARK    3  A    between atoms: C_8  and  C_9
REMARK    4  A    between atoms: C_8  and  C_10
REMARK    5  A    between atoms: C_10  and  C_12
REMARK                            x       y       z     vdW  Elec       q    Type
REMARK                         _______ _______ _______ _____ _____    ______ ____
ROOT
ATOM      1  C   UNL     1      -3.082   0.204  -0.132  0.00  0.00    +0.000 C 
ATOM      2  C   UNL     1      -4.261  -0.508   0.541  0.00  0.00    +0.000 C 
ENDROOT
BRANCH   1   7
ATOM      3  C   UNL     1       2.319  -0.787   1.899  0.00  0.00    +0.000 C 
ATOM      4  C   UNL     1       0.927  -0.521   1.407  0.00  0.00    +0.000 A 
ATOM      5  C   UNL     1      -0.159  -1.229   1.927  0.00  0.00    +0.000 A 
ATOM      6  C   UNL     1      -1.453  -1.006   1.445  0.00  0.00    +0.000 A 
ATOM      7  C   UNL     1      -1.693  -0.066   0.433  0.00  0.00    +0.000 A 
ATOM      8  C   UNL     1      -0.588   0.612  -0.110  0.00  0.00    +0.000 A 
ATOM      9  C   UNL     1       0.704   0.390   0.372  0.00  0.00    +0.000 A 
ENDBRANCH   1   7
BRANCH   1  10
ATOM     10  C   UNL     1      -3.399   1.693  -0.306  0.00  0.00    +0.000 C 
ATOM     11  O   UNL     1      -3.486   2.178  -1.438  0.00  0.00    +0.000 OA
BRANCH  10  12
ATOM     12  C   UNL     1      -3.637   2.597   0.866  0.00  0.00    +0.000 A 
ATOM     13  C   UNL     1      -3.250   2.287   2.175  0.00  0.00    +0.000 A 
ATOM     14  C   UNL     1      -3.502   3.185   3.220  0.00  0.00    +0.000 A 
ATOM     15  C   UNL     1      -4.138   4.397   2.961  0.00  0.00    +0.000 A 
ATOM     16  C   UNL     1      -4.522   4.723   1.664  0.00  0.00    +0.000 A 
ATOM     17  C   UNL     1      -4.269   3.827   0.621  0.00  0.00    +0.000 A 
ATOM     18 CL   UNL     1      -4.445   5.495   4.248  0.00  0.00    +0.000 Cl
ENDBRANCH  10  12
ENDBRANCH   1  10
TORSDOF 3
