MODEL 1
REMARK VINA RESULT:      -4.9      0.000      0.000
REMARK  Name = *****
REMARK  4 active torsions:
REMARK  status: ('A' for Active; 'I' for Inactive)
REMARK    1  A    between atoms: C_1  and  O_2
REMARK    2  A    between atoms: O_2  and  C_3
REMARK    3  A    between atoms: C_6  and  C_9
REMARK    4  A    between atoms: C_10  and  C_11
REMARK                            x       y       z     vdW  Elec       q    Type
REMARK                         _______ _______ _______ _____ _____    ______ ____
ROOT
ATOM      1  C   UNL     1     103.069 125.713  81.515  0.00  0.00    +0.000 C 
ATOM      2  C   UNL     1     102.240 125.773  82.569  0.00  0.00    +0.000 C 
ENDROOT
BRANCH   2   3
ATOM      3  C   UNL     1     101.320 126.890  82.826  0.00  0.00    +0.000 A 
ATOM      4  C   UNL     1      99.948 126.811  82.549  0.00  0.00    +0.000 A 
ATOM      5  C   UNL     1      99.110 127.888  82.840  0.00  0.00    +0.000 A 
ATOM      6  C   UNL     1      99.616 129.044  83.414  0.00  0.00    +0.000 A 
ATOM      7  C   UNL     1     100.970 129.123  83.705  0.00  0.00    +0.000 A 
ATOM      8  C   UNL     1     101.823 128.056  83.423  0.00  0.00    +0.000 A 
ATOM      9  F   UNL     1     101.474 130.229  84.268  0.00  0.00    +0.000 F 
ATOM     10  F   UNL     1      98.803 130.073  83.691  0.00  0.00    +0.000 F 
ATOM     11  F   UNL     1      97.803 127.790  82.562  0.00  0.00    +0.000 F 
ENDBRANCH   2   3
BRANCH   1  15
ATOM     12  C   UNL     1     105.828 122.484  80.913  0.00  0.00    +0.000 A 
ATOM     13  C   UNL     1     105.593 123.394  79.882  0.00  0.00    +0.000 A 
ATOM     14  C   UNL     1     104.688 124.447  80.067  0.00  0.00    +0.000 A 
ATOM     15  C   UNL     1     104.000 124.601  81.276  0.00  0.00    +0.000 A 
ATOM     16  C   UNL     1     104.255 123.696  82.311  0.00  0.00    +0.000 A 
ATOM     17  C   UNL     1     105.158 122.643  82.127  0.00  0.00    +0.000 A 
BRANCH  12  19
ATOM     18  C   UNL     1     106.329 120.276  81.641  0.00  0.00    +0.000 C 
ATOM     19  O   UNL     1     106.681 121.416  80.866  0.00  0.00    +0.000 OA
ENDBRANCH  12  19
ENDBRANCH   1  15
TORSDOF 3
ENDMDL
