MODEL 1
REMARK VINA RESULT:      -4.5      0.000      0.000
REMARK  Name = *****
REMARK  5 active torsions:
REMARK  status: ('A' for Active; 'I' for Inactive)
REMARK    1  A    between atoms: C_4  and  C_7
REMARK    2  A    between atoms: C_7  and  O_8
REMARK    3  A    between atoms: O_8  and  C_9
REMARK    4  A    between atoms: C_9  and  C_10
REMARK    5  A    between atoms: C_9  and  C_16
REMARK                            x       y       z     vdW  Elec       q    Type
REMARK                         _______ _______ _______ _____ _____    ______ ____
ROOT
ATOM      1  C   UNL     1      99.944 127.426  83.377  0.00  0.00    +0.000 C 
ENDROOT
BRANCH   1   2
ATOM      2  C   UNL     1     100.247 128.861  83.778  0.00  0.00    +0.000 A 
ATOM      3  C   UNL     1     101.462 129.187  84.403  0.00  0.00    +0.000 A 
ATOM      4  C   UNL     1     101.751 130.508  84.749  0.00  0.00    +0.000 A 
ATOM      5  C   UNL     1     100.831 131.517  84.477  0.00  0.00    +0.000 A 
ATOM      6  C   UNL     1      99.619 131.208  83.863  0.00  0.00    +0.000 A 
ATOM      7  C   UNL     1      99.327 129.888  83.515  0.00  0.00    +0.000 A 
ENDBRANCH   1   2
BRANCH   1   8
ATOM      8  C   UNL     1      98.412 127.197  83.272  0.00  0.00    +0.000 C 
ATOM      9  O   UNL     1      97.832 127.026  82.202  0.00  0.00    +0.000 OA
ATOM     10 CL   UNL     1      97.642 127.112  84.842  0.00  0.00    +0.000 Cl
ENDBRANCH   1   8
BRANCH   1  11
ATOM     11  O   UNL     1     100.687 127.175  82.183  0.00  0.00    +0.000 OA
BRANCH  11  12
ATOM     12  C   UNL     1     101.562 126.056  82.294  0.00  0.00    +0.000 C 
BRANCH  12  16
ATOM     13  C   UNL     1     105.187 126.887  80.103  0.00  0.00    +0.000 A 
ATOM     14  C   UNL     1     104.655 125.600  80.102  0.00  0.00    +0.000 A 
ATOM     15  C   UNL     1     103.489 125.323  80.819  0.00  0.00    +0.000 A 
ATOM     16  C   UNL     1     102.848 126.331  81.555  0.00  0.00    +0.000 A 
ATOM     17  C   UNL     1     103.388 127.625  81.539  0.00  0.00    +0.000 A 
ATOM     18  C   UNL     1     104.554 127.900  80.820  0.00  0.00    +0.000 A 
ENDBRANCH  12  16
ENDBRANCH  11  12
ENDBRANCH   1  11
TORSDOF 5
ENDMDL
