MODEL 1
REMARK VINA RESULT:      -4.1      0.000      0.000
REMARK  Name = *****
REMARK  4 active torsions:
REMARK  status: ('A' for Active; 'I' for Inactive)
REMARK    1  A    between atoms: C_1  and  C_2
REMARK    2  A    between atoms: C_7  and  C_8
REMARK    3  A    between atoms: C_8  and  S_10
REMARK    4  A    between atoms: S_10  and  C_11
REMARK                            x       y       z     vdW  Elec       q    Type
REMARK                         _______ _______ _______ _____ _____    ______ ____
ROOT
ATOM      1  C   UNL     1      88.395  70.792  85.043  0.00  0.00    +0.000 C 
ATOM      2  O   UNL     1      89.421  71.454  84.951  0.00  0.00    +0.000 OA
ENDROOT
BRANCH   1   9
ATOM      3  C   UNL     1      88.891  70.199  87.962  0.00  0.00    +0.000 C 
ATOM      4  C   UNL     1      87.624  70.827  87.455  0.00  0.00    +0.000 A 
ATOM      5  C   UNL     1      86.624  71.180  88.375  0.00  0.00    +0.000 A 
ATOM      6  C   UNL     1      85.422  71.746  87.946  0.00  0.00    +0.000 A 
ATOM      7  C   UNL     1      85.197  71.971  86.591  0.00  0.00    +0.000 A 
ATOM      8  C   UNL     1      86.182  71.644  85.662  0.00  0.00    +0.000 A 
ATOM      9  C   UNL     1      87.400  71.097  86.091  0.00  0.00    +0.000 A 
ENDBRANCH   1   9
BRANCH   1  10
ATOM     10  S   UNL     1      88.045  69.371  84.066  0.00  0.00    +0.000 S 
BRANCH  10  11
ATOM     11  C   UNL     1      88.461  68.032  85.164  0.00  0.00    +0.000 A 
ATOM     12  C   UNL     1      89.805  67.685  85.338  0.00  0.00    +0.000 A 
ATOM     13  C   UNL     1      90.163  66.663  86.221  0.00  0.00    +0.000 A 
ATOM     14  C   UNL     1      89.181  65.988  86.943  0.00  0.00    +0.000 A 
ATOM     15  C   UNL     1      87.840  66.335  86.784  0.00  0.00    +0.000 A 
ATOM     16  C   UNL     1      87.482  67.358  85.901  0.00  0.00    +0.000 A 
ENDBRANCH  10  11
ENDBRANCH   1  10
TORSDOF 3
ENDMDL
