REMARK  Name = *****
REMARK  4 active torsions:
REMARK  status: ('A' for Active; 'I' for Inactive)
REMARK    1  A    between atoms: C_1  and  C_2
REMARK    2  A    between atoms: C_5  and  O_8
REMARK    3  A    between atoms: O_8  and  C_9
REMARK    4  A    between atoms: C_9  and  C_11
REMARK                            x       y       z     vdW  Elec       q    Type
REMARK                         _______ _______ _______ _____ _____    ______ ____
ROOT
ATOM      1  C   UNL     1      -2.701   0.845  -3.831  0.00  0.00    +0.000 A 
ATOM      2  C   UNL     1      -2.688   2.043  -4.540  0.00  0.00    +0.000 A 
ATOM      3  C   UNL     1      -2.545   2.029  -5.924  0.00  0.00    +0.000 A 
ATOM      4  C   UNL     1      -2.420   0.823  -6.601  0.00  0.00    +0.000 A 
ATOM      5  C   UNL     1      -2.441  -0.373  -5.895  0.00  0.00    +0.000 A 
ATOM      6  C   UNL     1      -2.583  -0.365  -4.512  0.00  0.00    +0.000 A 
ATOM      7  F   UNL     1      -2.628  -1.531  -3.852  0.00  0.00    +0.000 F 
ATOM      8  F   UNL     1      -2.328  -1.537  -6.548  0.00  0.00    +0.000 F 
ATOM      9  F   UNL     1      -2.281   0.813  -7.934  0.00  0.00    +0.000 F 
ATOM     10  F   UNL     1      -2.520   3.184  -6.604  0.00  0.00    +0.000 F 
ATOM     11  F   UNL     1      -2.784   3.218  -3.904  0.00  0.00    +0.000 F 
ENDROOT
BRANCH   1  12
ATOM     12  C   UNL     1      -2.870   0.874  -2.380  0.00  0.00    +0.000 C 
ATOM     13  O   UNL     1      -3.745   1.501  -1.813  0.00  0.00    +0.000 OA
BRANCH  12  14
ATOM     14  O   UNL     1      -1.878   0.146  -1.818  0.00  0.00    +0.000 OA
BRANCH  14  19
ATOM     15  C   UNL     1       2.506   0.070  -0.185  0.00  0.00    +0.000 C 
ATOM     16  C   UNL     1       1.039   0.044   0.243  0.00  0.00    +0.000 C 
ATOM     17  C   UNL     1       0.330   1.338  -0.178  0.00  0.00    +0.000 C 
ATOM     18  C   UNL     1      -1.154   1.314   0.194  0.00  0.00    +0.000 C 
ATOM     19  C   UNL     1      -1.873   0.087  -0.377  0.00  0.00    +0.000 C 
ATOM     20  C   UNL     1      -1.157  -1.204   0.030  0.00  0.00    +0.000 C 
ATOM     21  C   UNL     1       0.328  -1.185  -0.337  0.00  0.00    +0.000 C 
ENDBRANCH  14  19
ENDBRANCH  12  14
ENDBRANCH   1  12
TORSDOF 3
