MODEL 1
REMARK VINA RESULT:      -4.9      0.000      0.000
REMARK  Name = *****
REMARK  5 active torsions:
REMARK  status: ('A' for Active; 'I' for Inactive)
REMARK    1  A    between atoms: C_1  and  O_2
REMARK    2  A    between atoms: O_2  and  C_3
REMARK    3  A    between atoms: C_6  and  C_9
REMARK    4  A    between atoms: C_9  and  C_10
REMARK    5  A    between atoms: C_10  and  C_11
REMARK                            x       y       z     vdW  Elec       q    Type
REMARK                         _______ _______ _______ _____ _____    ______ ____
ROOT
ATOM      1  C   UNL     1      88.755  70.408  86.591  0.00  0.00    +0.000 C 
ATOM      2  F   UNL     1      87.923  70.978  87.523  0.00  0.00    +0.000 F 
ATOM      3  F   UNL     1      89.984  70.963  86.855  0.00  0.00    +0.000 F 
ENDROOT
BRANCH   1   7
ATOM      4  C   UNL     1      88.918  66.088  86.989  0.00  0.00    +0.000 A 
ATOM      5  C   UNL     1      89.986  66.784  86.422  0.00  0.00    +0.000 A 
ATOM      6  C   UNL     1      89.936  68.178  86.304  0.00  0.00    +0.000 A 
ATOM      7  C   UNL     1      88.815  68.896  86.749  0.00  0.00    +0.000 A 
ATOM      8  C   UNL     1      87.751  68.191  87.325  0.00  0.00    +0.000 A 
ATOM      9  C   UNL     1      87.806  66.800  87.441  0.00  0.00    +0.000 A 
BRANCH   4  11
ATOM     10  C   UNL     1      88.442  64.268  88.442  0.00  0.00    +0.000 C 
ATOM     11  O   UNL     1      88.839  64.734  87.159  0.00  0.00    +0.000 OA
ENDBRANCH   4  11
ENDBRANCH   1   7
BRANCH   1  12
ATOM     12  C   UNL     1      88.309  70.859  85.164  0.00  0.00    +0.000 C 
ATOM     13  F   UNL     1      87.737  69.783  84.529  0.00  0.00    +0.000 F 
ATOM     14  F   UNL     1      87.280  71.762  85.281  0.00  0.00    +0.000 F 
BRANCH  12  15
ATOM     15  C   UNL     1      89.450  71.421  84.330  0.00  0.00    +0.000 A 
ATOM     16  C   UNL     1      89.512  72.793  84.041  0.00  0.00    +0.000 A 
ATOM     17  C   UNL     1      90.543  73.306  83.255  0.00  0.00    +0.000 A 
ATOM     18  C   UNL     1      91.526  72.456  82.750  0.00  0.00    +0.000 A 
ATOM     19  C   UNL     1      91.480  71.092  83.034  0.00  0.00    +0.000 A 
ATOM     20  C   UNL     1      90.450  70.576  83.821  0.00  0.00    +0.000 A 
ENDBRANCH  12  15
ENDBRANCH   1  12
TORSDOF 4
ENDMDL
