MODEL 1
REMARK VINA RESULT:      -4.7      0.000      0.000
REMARK  Name = *****
REMARK  3 active torsions:
REMARK  status: ('A' for Active; 'I' for Inactive)
REMARK    1  A    between atoms: C_1  and  C_2
REMARK    2  A    between atoms: C_5  and  N_8
REMARK    3  A    between atoms: C_9  and  C_10
REMARK                            x       y       z     vdW  Elec       q    Type
REMARK                         _______ _______ _______ _____ _____    ______ ____
ROOT
ATOM      1  N   UNL     1     102.666 125.813  82.219  0.00  0.00    +0.000 NA
ATOM      2  C   UNL     1     103.413 125.955  81.160  0.00  0.00    +0.000 C 
ATOM      3 CL   UNL     1     103.368 127.418  80.215  0.00  0.00    +0.000 Cl
ENDROOT
BRANCH   1   8
ATOM      4  C   UNL     1      99.113 129.897  84.042  0.00  0.00    +0.000 C 
ATOM      5  C   UNL     1     100.049 128.842  83.535  0.00  0.00    +0.000 A 
ATOM      6  C   UNL     1      99.551 127.709  82.879  0.00  0.00    +0.000 A 
ATOM      7  C   UNL     1     100.422 126.710  82.435  0.00  0.00    +0.000 A 
ATOM      8  C   UNL     1     101.798 126.828  82.637  0.00  0.00    +0.000 A 
ATOM      9  C   UNL     1     102.293 127.940  83.322  0.00  0.00    +0.000 A 
ATOM     10  C   UNL     1     101.426 128.941  83.768  0.00  0.00    +0.000 A 
ENDBRANCH   1   8
BRANCH   2  11
ATOM     11  C   UNL     1     104.320 124.822  80.772  0.00  0.00    +0.000 A 
ATOM     12  C   UNL     1     105.215 124.932  79.699  0.00  0.00    +0.000 A 
ATOM     13  C   UNL     1     106.047 123.860  79.360  0.00  0.00    +0.000 A 
ATOM     14  C   UNL     1     105.993 122.674  80.089  0.00  0.00    +0.000 A 
ATOM     15  C   UNL     1     105.108 122.553  81.158  0.00  0.00    +0.000 A 
ATOM     16  C   UNL     1     104.274 123.621  81.499  0.00  0.00    +0.000 A 
ENDBRANCH   2  11
TORSDOF 2
ENDMDL
