REMARK  Name = *****
REMARK  4 active torsions:
REMARK  status: ('A' for Active; 'I' for Inactive)
REMARK    1  A    between atoms: C_3  and  C_7
REMARK    2  A    between atoms: C_7  and  O_9
REMARK    3  A    between atoms: O_9  and  C_10
REMARK    4  A    between atoms: C_10  and  C_11
REMARK                            x       y       z     vdW  Elec       q    Type
REMARK                         _______ _______ _______ _____ _____    ______ ____
ROOT
ATOM      1  C   UNL     1      -1.410   0.718  -1.947  0.00  0.00    +0.000 C 
ATOM      2  O   UNL     1      -1.686  -0.276  -2.609  0.00  0.00    +0.000 OA
ENDROOT
BRANCH   1   5
ATOM      3  C   UNL     1       1.042   1.596  -0.175  0.00  0.00    +0.000 C 
ATOM      4  C   UNL     1      -0.436   1.838   0.150  0.00  0.00    +0.000 C 
ATOM      5  C   UNL     1      -1.348   0.741  -0.422  0.00  0.00    +0.000 C 
ATOM      6  C   UNL     1      -0.921  -0.633   0.126  0.00  0.00    +0.000 C 
ATOM      7  C   UNL     1       0.569  -0.838   0.140  0.00  0.00    +0.000 C 
ATOM      8  C   UNL     1       1.448   0.162  -0.015  0.00  0.00    +0.000 C 
ENDBRANCH   1   5
BRANCH   1   9
ATOM      9  O   UNL     1      -1.216   1.960  -2.468  0.00  0.00    +0.000 OA
BRANCH   9  10
ATOM     10  C   UNL     1      -1.339   2.073  -3.890  0.00  0.00    +0.000 C 
BRANCH  10  11
ATOM     11  C   UNL     1      -2.702   2.616  -4.229  0.00  0.00    +0.000 A 
ATOM     12  C   UNL     1      -2.950   3.995  -4.187  0.00  0.00    +0.000 A 
ATOM     13  C   UNL     1      -4.220   4.494  -4.481  0.00  0.00    +0.000 A 
ATOM     14  C   UNL     1      -5.255   3.620  -4.810  0.00  0.00    +0.000 A 
ATOM     15  C   UNL     1      -5.023   2.246  -4.840  0.00  0.00    +0.000 A 
ATOM     16  C   UNL     1      -3.753   1.746  -4.547  0.00  0.00    +0.000 A 
ENDBRANCH  10  11
ENDBRANCH   9  10
ENDBRANCH   1   9
TORSDOF 4
