REMARK  Name = *****
REMARK  4 active torsions:
REMARK  status: ('A' for Active; 'I' for Inactive)
REMARK    1  A    between atoms: C_1  and  C_2
REMARK    2  A    between atoms: C_6  and  O_8
REMARK    3  A    between atoms: O_8  and  C_9
REMARK    4  A    between atoms: C_9  and  C_10
REMARK                            x       y       z     vdW  Elec       q    Type
REMARK                         _______ _______ _______ _____ _____    ______ ____
ROOT
ATOM      1  C   UNL     1       0.514  -2.008   1.127  0.00  0.00    +0.000 C 
ATOM      2  C   UNL     1      -0.241  -0.869   0.504  0.00  0.00    +0.000 A 
ATOM      3  C   UNL     1       0.373   0.045  -0.363  0.00  0.00    +0.000 A 
ATOM      4  C   UNL     1      -0.365   1.088  -0.930  0.00  0.00    +0.000 A 
ATOM      5  C   UNL     1      -1.725   1.233  -0.641  0.00  0.00    +0.000 A 
ATOM      6  C   UNL     1      -2.353   0.333   0.218  0.00  0.00    +0.000 A 
ATOM      7  C   UNL     1      -1.609  -0.711   0.780  0.00  0.00    +0.000 A 
ATOM      8 CL   UNL     1       2.047  -0.075  -0.770  0.00  0.00    +0.000 Cl
ENDROOT
BRANCH   6   9
ATOM      9  O   UNL     1      -3.668   0.354   0.588  0.00  0.00    +0.000 OA
BRANCH   9  10
ATOM     10  C   UNL     1      -4.473   1.413   0.077  0.00  0.00    +0.000 C 
BRANCH  10  11
ATOM     11  C   UNL     1      -5.863   1.261   0.643  0.00  0.00    +0.000 A 
ATOM     12  C   UNL     1      -6.252   1.977   1.784  0.00  0.00    +0.000 A 
ATOM     13  C   UNL     1      -7.535   1.822   2.314  0.00  0.00    +0.000 A 
ATOM     14  C   UNL     1      -8.436   0.944   1.715  0.00  0.00    +0.000 A 
ATOM     15  C   UNL     1      -8.055   0.215   0.590  0.00  0.00    +0.000 A 
ATOM     16  C   UNL     1      -6.774   0.369   0.058  0.00  0.00    +0.000 A 
ENDBRANCH  10  11
ENDBRANCH   9  10
ENDBRANCH   6   9
TORSDOF 3
