REMARK  Name = *****
REMARK  5 active torsions:
REMARK  status: ('A' for Active; 'I' for Inactive)
REMARK    1  A    between atoms: C_1  and  C_2
REMARK    2  A    between atoms: C_2  and  C_4
REMARK    3  A    between atoms: C_5  and  C_11
REMARK    4  A    between atoms: C_11  and  C_12
REMARK    5  A    between atoms: C_12  and  C_13
REMARK                            x       y       z     vdW  Elec       q    Type
REMARK                         _______ _______ _______ _____ _____    ______ ____
ROOT
ATOM      1  C   UNL     1       3.330   1.575  -1.292  0.00  0.00    +0.000 A 
ATOM      2  C   UNL     1       2.320   2.378  -1.853  0.00  0.00    +0.000 A 
ATOM      3  C   UNL     1       2.417   2.682  -3.218  0.00  0.00    +0.000 A 
ATOM      4  C   UNL     1       3.463   2.214  -4.009  0.00  0.00    +0.000 A 
ATOM      5  C   UNL     1       4.454   1.419  -3.443  0.00  0.00    +0.000 A 
ATOM      6  C   UNL     1       4.387   1.098  -2.087  0.00  0.00    +0.000 A 
ATOM      7  F   UNL     1       1.486   3.458  -3.792  0.00  0.00    +0.000 F 
ENDROOT
BRANCH   1   9
ATOM      8  C   UNL     1       4.570   1.383   0.940  0.00  0.00    +0.000 C 
ATOM      9  C   UNL     1       3.314   1.170   0.137  0.00  0.00    +0.000 C 
ATOM     10  O   UNL     1       2.322   0.622   0.609  0.00  0.00    +0.000 OA
ENDBRANCH   1   9
BRANCH   2  11
ATOM     11  C   UNL     1       1.181   2.979  -1.061  0.00  0.00    +0.000 C 
BRANCH  11  12
ATOM     12  C   UNL     1       1.371   4.472  -0.756  0.00  0.00    +0.000 C 
BRANCH  12  13
ATOM     13  C   UNL     1       2.531   4.759   0.168  0.00  0.00    +0.000 A 
ATOM     14  C   UNL     1       3.730   5.282  -0.335  0.00  0.00    +0.000 A 
ATOM     15  C   UNL     1       4.804   5.539   0.519  0.00  0.00    +0.000 A 
ATOM     16  C   UNL     1       4.690   5.274   1.882  0.00  0.00    +0.000 A 
ATOM     17  C   UNL     1       3.503   4.752   2.393  0.00  0.00    +0.000 A 
ATOM     18  C   UNL     1       2.429   4.492   1.540  0.00  0.00    +0.000 A 
ENDBRANCH  12  13
ENDBRANCH  11  12
ENDBRANCH   2  11
TORSDOF 4
