MODEL 1
REMARK VINA RESULT:      -4.7      0.000      0.000
REMARK  Name = *****
REMARK  4 active torsions:
REMARK  status: ('A' for Active; 'I' for Inactive)
REMARK    1  A    between atoms: C_4  and  C_7
REMARK    2  A    between atoms: C_7  and  C_8
REMARK    3  A    between atoms: C_8  and  C_9
REMARK    4  A    between atoms: C_8  and  C_11
REMARK                            x       y       z     vdW  Elec       q    Type
REMARK                         _______ _______ _______ _____ _____    ______ ____
ROOT
ATOM      1  C   UNL     1     102.963 126.984  81.369  0.00  0.00    +0.000 C 
ENDROOT
BRANCH   1   2
ATOM      2  C   UNL     1     103.580 125.591  81.475  0.00  0.00    +0.000 A 
ATOM      3  C   UNL     1     104.114 124.974  80.330  0.00  0.00    +0.000 A 
ATOM      4  C   UNL     1     104.676 123.698  80.408  0.00  0.00    +0.000 A 
ATOM      5  C   UNL     1     104.709 123.035  81.629  0.00  0.00    +0.000 A 
ATOM      6  C   UNL     1     104.191 123.625  82.774  0.00  0.00    +0.000 A 
ATOM      7  C   UNL     1     103.628 124.900  82.701  0.00  0.00    +0.000 A 
ATOM      8  F   UNL     1     105.249 121.812  81.700  0.00  0.00    +0.000 F 
ENDBRANCH   1   2
BRANCH   1   9
ATOM      9  C   UNL     1     103.896 127.932  80.720  0.00  0.00    +0.000 C 
ATOM     10  N   UNL     1     104.619 128.692  80.220  0.00  0.00    +0.000 NA
ENDBRANCH   1   9
BRANCH   1  11
ATOM     11  C   UNL     1     102.530 127.499  82.757  0.00  0.00    +0.000 C 
BRANCH  11  15
ATOM     12  C   UNL     1      98.256 127.923  83.177  0.00  0.00    +0.000 A 
ATOM     13  C   UNL     1      99.107 128.906  83.677  0.00  0.00    +0.000 A 
ATOM     14  C   UNL     1     100.489 128.773  83.535  0.00  0.00    +0.000 A 
ATOM     15  C   UNL     1     101.031 127.653  82.888  0.00  0.00    +0.000 A 
ATOM     16  C   UNL     1     100.166 126.670  82.390  0.00  0.00    +0.000 A 
ATOM     17  C   UNL     1      98.784 126.806  82.535  0.00  0.00    +0.000 A 
ENDBRANCH  11  15
ENDBRANCH   1  11
TORSDOF 4
ENDMDL
