MODEL 1
REMARK VINA RESULT:      -4.4      0.000      0.000
REMARK  Name = *****
REMARK  2 active torsions:
REMARK  status: ('A' for Active; 'I' for Inactive)
REMARK    1  A    between atoms: C_4  and  C_7
REMARK    2  A    between atoms: C_8  and  C_9
REMARK                            x       y       z     vdW  Elec       q    Type
REMARK                         _______ _______ _______ _____ _____    ______ ____
ROOT
ATOM      1  C   UNL     1     102.911 125.618  81.468  0.00  0.00    +0.000 C 
ATOM      2  C   UNL     1     102.026 126.262  81.960  0.00  0.00    +0.000 C 
ENDROOT
BRANCH   1   6
ATOM      3  C   UNL     1     106.271 123.437  79.902  0.00  0.00    +0.000 C 
ATOM      4  C   UNL     1     105.125 122.628  80.498  0.00  0.00    +0.000 C 
ATOM      5  C   UNL     1     104.274 123.487  81.436  0.00  0.00    +0.000 C 
ATOM      6  C   UNL     1     103.959 124.852  80.875  0.00  0.00    +0.000 C 
ATOM      7  C   UNL     1     104.625 125.358  79.821  0.00  0.00    +0.000 C 
ATOM      8  C   UNL     1     105.748 124.647  79.126  0.00  0.00    +0.000 C 
ENDBRANCH   1   6
BRANCH   2   9
ATOM      9  C   UNL     1     100.980 127.021  82.538  0.00  0.00    +0.000 C 
ATOM     10  C   UNL     1     101.175 128.110  83.289  0.00  0.00    +0.000 C 
ATOM     11  C   UNL     1      99.885 128.685  83.770  0.00  0.00    +0.000 C 
ATOM     12  C   UNL     1      98.850 127.970  82.903  0.00  0.00    +0.000 C 
ATOM     13  C   UNL     1      99.528 126.695  82.399  0.00  0.00    +0.000 C 
ENDBRANCH   2   9
TORSDOF 2
ENDMDL
