MODEL 1
REMARK VINA RESULT:      -4.3      0.000      0.000
REMARK  Name = *****
REMARK  5 active torsions:
REMARK  status: ('A' for Active; 'I' for Inactive)
REMARK    1  A    between atoms: N_2  and  C_3
REMARK    2  A    between atoms: C_6  and  C_9
REMARK    3  A    between atoms: C_9  and  C_10
REMARK    4  A    between atoms: C_10  and  C_11
REMARK    5  A    between atoms: C_13  and  N_17
REMARK                            x       y       z     vdW  Elec       q    Type
REMARK                         _______ _______ _______ _____ _____    ______ ____
ROOT
ATOM      1  C   UNL     1      88.158  70.474  87.916  0.00  0.00    +0.000 C 
ENDROOT
BRANCH   1   5
ATOM      2  C   UNL     1      84.664  72.322  86.239  0.00  0.00    +0.000 A 
ATOM      3  C   UNL     1      84.756  72.168  87.619  0.00  0.00    +0.000 A 
ATOM      4  C   UNL     1      85.894  71.570  88.161  0.00  0.00    +0.000 A 
ATOM      5  C   UNL     1      86.933  71.129  87.325  0.00  0.00    +0.000 A 
ATOM      6  C   UNL     1      86.814  71.290  85.936  0.00  0.00    +0.000 A 
ATOM      7  C   UNL     1      85.679  71.890  85.389  0.00  0.00    +0.000 A 
BRANCH   2   9
ATOM      8  C   UNL     1      82.580  73.426  85.241  0.00  0.00    +0.000 C 
ATOM      9  N   UNL     1      83.535  72.921  85.698  0.00  0.00    +0.000 NA
ENDBRANCH   2   9
ENDBRANCH   1   5
BRANCH   1  10
ATOM     10  C   UNL     1      89.077  69.896  86.835  0.00  0.00    +0.000 C 
BRANCH  10  11
ATOM     11  C   UNL     1      89.013  68.388  86.798  0.00  0.00    +0.000 A 
ATOM     12  C   UNL     1      90.023  67.649  86.173  0.00  0.00    +0.000 A 
ATOM     13  C   UNL     1      89.952  66.256  86.168  0.00  0.00    +0.000 A 
ATOM     14  C   UNL     1      88.901  65.576  86.777  0.00  0.00    +0.000 A 
ATOM     15  C   UNL     1      87.896  66.309  87.405  0.00  0.00    +0.000 A 
ATOM     16  C   UNL     1      87.952  67.707  87.417  0.00  0.00    +0.000 A 
BRANCH  13  17
ATOM     17  N   UNL     1      90.957  65.529  85.543  0.00  0.00    +0.000 NA
ATOM     18  C   UNL     1      91.805  64.917  85.016  0.00  0.00    +0.000 C 
ENDBRANCH  13  17
ENDBRANCH  10  11
ENDBRANCH   1  10
TORSDOF 5
ENDMDL
