REMARK  Name = *****
REMARK  2 active torsions:
REMARK  status: ('A' for Active; 'I' for Inactive)
REMARK    1  A    between atoms: C_4  and  C_7
REMARK    2  A    between atoms: N_8  and  C_9
REMARK                            x       y       z     vdW  Elec       q    Type
REMARK                         _______ _______ _______ _____ _____    ______ ____
ROOT
ATOM      1  C   UNL     1       2.846  -0.586  -0.259  0.00  0.00    +0.000 C 
ATOM      2  N   UNL     1       3.888  -0.459   0.497  0.00  0.00    +0.000 NA
ENDROOT
BRANCH   1   6
ATOM      3  C   UNL     1      -1.419   0.088  -0.244  0.00  0.00    +0.000 C 
ATOM      4  C   UNL     1      -0.873  -1.060   0.600  0.00  0.00    +0.000 C 
ATOM      5  C   UNL     1       0.556  -1.420   0.202  0.00  0.00    +0.000 C 
ATOM      6  C   UNL     1       1.478  -0.200   0.251  0.00  0.00    +0.000 C 
ATOM      7  C   UNL     1       0.928   0.949  -0.598  0.00  0.00    +0.000 C 
ATOM      8  C   UNL     1      -0.501   1.306  -0.199  0.00  0.00    +0.000 C 
ENDBRANCH   1   6
BRANCH   2   9
ATOM      9  C   UNL     1       5.106  -0.844  -0.081  0.00  0.00    +0.000 A 
ATOM     10  C   UNL     1       5.851   0.065  -0.837  0.00  0.00    +0.000 A 
ATOM     11  C   UNL     1       7.069  -0.318  -1.404  0.00  0.00    +0.000 A 
ATOM     12  C   UNL     1       7.551  -1.612  -1.207  0.00  0.00    +0.000 A 
ATOM     13  C   UNL     1       6.821  -2.519  -0.440  0.00  0.00    +0.000 A 
ATOM     14  C   UNL     1       5.604  -2.132   0.125  0.00  0.00    +0.000 A 
ENDBRANCH   2   9
TORSDOF 2
