REMARK  Name = *****
REMARK  6 active torsions:
REMARK  status: ('A' for Active; 'I' for Inactive)
REMARK    1  A    between atoms: C_1  and  O_2
REMARK    2  A    between atoms: O_2  and  C_3
REMARK    3  A    between atoms: C_6  and  C_9
REMARK    4  A    between atoms: C_10  and  C_11
REMARK    5  A    between atoms: C_14  and  O_17
REMARK    6  A    between atoms: O_17  and  C_18
REMARK                            x       y       z     vdW  Elec       q    Type
REMARK                         _______ _______ _______ _____ _____    ______ ____
ROOT
ATOM      1  C   UNL     1       5.127   4.475   1.732  0.00  0.00    +0.000 C 
ATOM      2  C   UNL     1       4.769   5.247   2.772  0.00  0.00    +0.000 C 
ENDROOT
BRANCH   1   6
ATOM      3  C   UNL     1       3.104   0.904   0.481  0.00  0.00    +0.000 A 
ATOM      4  C   UNL     1       2.366   1.984   0.961  0.00  0.00    +0.000 A 
ATOM      5  C   UNL     1       3.017   3.153   1.380  0.00  0.00    +0.000 A 
ATOM      6  C   UNL     1       4.413   3.253   1.336  0.00  0.00    +0.000 A 
ATOM      7  C   UNL     1       5.146   2.171   0.838  0.00  0.00    +0.000 A 
ATOM      8  C   UNL     1       4.495   1.005   0.420  0.00  0.00    +0.000 A 
BRANCH   3  10
ATOM      9  C   UNL     1       1.184  -0.440   0.088  0.00  0.00    +0.000 C 
ATOM     10  O   UNL     1       2.597  -0.287   0.041  0.00  0.00    +0.000 OA
ENDBRANCH   3  10
ENDBRANCH   1   6
BRANCH   2  11
ATOM     11  C   UNL     1       5.490   6.462   3.176  0.00  0.00    +0.000 A 
ATOM     12  C   UNL     1       6.028   7.359   2.244  0.00  0.00    +0.000 A 
ATOM     13  C   UNL     1       6.679   8.526   2.664  0.00  0.00    +0.000 A 
ATOM     14  C   UNL     1       6.790   8.818   4.022  0.00  0.00    +0.000 A 
ATOM     15  C   UNL     1       6.242   7.935   4.954  0.00  0.00    +0.000 A 
ATOM     16  C   UNL     1       5.591   6.769   4.536  0.00  0.00    +0.000 A 
BRANCH  14  17
ATOM     17  O   UNL     1       7.396   9.918   4.564  0.00  0.00    +0.000 OA
ATOM     18  C   UNL     1       7.975  10.845   3.655  0.00  0.00    +0.000 C 
ENDBRANCH  14  17
ENDBRANCH   2  11
TORSDOF 4
