MODEL 1
REMARK VINA RESULT:      -4.9      0.000      0.000
REMARK  Name = *****
REMARK  3 active torsions:
REMARK  status: ('A' for Active; 'I' for Inactive)
REMARK    1  A    between atoms: C_3  and  C_8
REMARK    2  A    between atoms: C_8  and  C_9
REMARK    3  A    between atoms: C_9  and  C_11
REMARK                            x       y       z     vdW  Elec       q    Type
REMARK                         _______ _______ _______ _____ _____    ______ ____
ROOT
ATOM      1  C   UNL     1     103.325 126.817  81.544  0.00  0.00    +0.000 C 
ATOM      2  O   UNL     1     103.275 127.397  80.458  0.00  0.00    +0.000 OA
ENDROOT
BRANCH   1   3
ATOM      3  C   UNL     1     103.804 125.401  81.591  0.00  0.00    +0.000 A 
ATOM      4  C   UNL     1     104.242 124.708  80.456  0.00  0.00    +0.000 A 
ATOM      5  C   UNL     1     104.689 123.386  80.565  0.00  0.00    +0.000 A 
ATOM      6  C   UNL     1     104.697 122.752  81.807  0.00  0.00    +0.000 A 
ATOM      7  C   UNL     1     104.257 123.427  82.942  0.00  0.00    +0.000 A 
ATOM      8  C   UNL     1     103.809 124.748  82.832  0.00  0.00    +0.000 A 
ATOM      9  I   UNL     1     105.368 120.792  81.964  0.00  0.00    +0.000 I 
ENDBRANCH   1   3
BRANCH   1  10
ATOM     10  C   UNL     1     102.904 127.523  82.822  0.00  0.00    +0.000 C 
BRANCH  10  13
ATOM     11  C   UNL     1      99.504 129.069  83.621  0.00  0.00    +0.000 A 
ATOM     12  C   UNL     1     100.885 128.878  83.525  0.00  0.00    +0.000 A 
ATOM     13  C   UNL     1     101.412 127.714  82.943  0.00  0.00    +0.000 A 
ATOM     14  C   UNL     1     100.524 126.752  82.441  0.00  0.00    +0.000 A 
ATOM     15  C   UNL     1      99.150 126.952  82.545  0.00  0.00    +0.000 A 
ATOM     16  C   UNL     1      98.633 128.099  83.131  0.00  0.00    +0.000 A 
ATOM     17  F   UNL     1      98.314 126.020  82.067  0.00  0.00    +0.000 F 
ENDBRANCH  10  13
ENDBRANCH   1  10
TORSDOF 3
ENDMDL
