MODEL 1
REMARK VINA RESULT:      -4.8      0.000      0.000
REMARK  Name = *****
REMARK  3 active torsions:
REMARK  status: ('A' for Active; 'I' for Inactive)
REMARK    1  A    between atoms: C_4  and  C_15
REMARK    2  A    between atoms: C_5  and  C_7
REMARK    3  A    between atoms: C_8  and  C_9
REMARK                            x       y       z     vdW  Elec       q    Type
REMARK                         _______ _______ _______ _____ _____    ______ ____
ROOT
ATOM      1  C   UNL     1     100.981 129.925  84.612  0.00  0.00    +0.000 C 
ATOM      2  C   UNL     1      99.751 130.273  83.796  0.00  0.00    +0.000 C 
ATOM      3  C   UNL     1      98.948 129.014  83.482  0.00  0.00    +0.000 C 
ATOM      4  C   UNL     1      99.794 127.840  83.038  0.00  0.00    +0.000 C 
ATOM      5  C   UNL     1     101.140 127.795  83.182  0.00  0.00    +0.000 C 
ATOM      6  C   UNL     1     101.877 128.954  83.842  0.00  0.00    +0.000 C 
ENDROOT
BRANCH   5   7
ATOM      7  C   UNL     1     101.969 126.655  82.779  0.00  0.00    +0.000 C 
ATOM      8  C   UNL     1     102.714 126.578  81.663  0.00  0.00    +0.000 C 
BRANCH   8   9
ATOM      9  C   UNL     1     103.540 125.412  81.324  0.00  0.00    +0.000 A 
ATOM     10  C   UNL     1     104.236 125.321  80.111  0.00  0.00    +0.000 A 
ATOM     11  C   UNL     1     105.036 124.209  79.833  0.00  0.00    +0.000 A 
ATOM     12  C   UNL     1     105.155 123.184  80.770  0.00  0.00    +0.000 A 
ATOM     13  C   UNL     1     104.480 123.271  81.986  0.00  0.00    +0.000 A 
ATOM     14  C   UNL     1     103.681 124.383  82.264  0.00  0.00    +0.000 A 
ENDBRANCH   8   9
ENDBRANCH   5   7
BRANCH   4  15
ATOM     15  C   UNL     1      98.995 126.754  82.391  0.00  0.00    +0.000 C 
ATOM     16  O   UNL     1      97.782 126.644  82.542  0.00  0.00    +0.000 OA
ENDBRANCH   4  15
TORSDOF 3
ENDMDL
