REMARK  Name = *****
REMARK  4 active torsions:
REMARK  status: ('A' for Active; 'I' for Inactive)
REMARK    1  A    between atoms: C_1  and  S_2
REMARK    2  A    between atoms: S_2  and  C_3
REMARK    3  A    between atoms: C_3  and  C_11
REMARK    4  A    between atoms: C_4  and  C_5
REMARK                            x       y       z     vdW  Elec       q    Type
REMARK                         _______ _______ _______ _____ _____    ______ ____
ROOT
ATOM      1  C   UNL     1       3.412  -1.690   0.374  0.00  0.00    +0.000 C 
ATOM      2  C   UNL     1       2.473  -2.591   0.723  0.00  0.00    +0.000 C 
ENDROOT
BRANCH   2   3
ATOM      3  C   UNL     1       1.022  -2.493   0.514  0.00  0.00    +0.000 A 
ATOM      4  C   UNL     1       0.471  -2.671  -0.759  0.00  0.00    +0.000 A 
ATOM      5  C   UNL     1      -0.910  -2.590  -0.945  0.00  0.00    +0.000 A 
ATOM      6  C   UNL     1      -1.746  -2.333   0.141  0.00  0.00    +0.000 A 
ATOM      7  C   UNL     1      -1.203  -2.159   1.414  0.00  0.00    +0.000 A 
ATOM      8  C   UNL     1       0.179  -2.242   1.601  0.00  0.00    +0.000 A 
ENDBRANCH   2   3
BRANCH   1   9
ATOM      9  C   UNL     1       4.901  -1.935   0.620  0.00  0.00    +0.000 C 
ATOM     10  C   UNL     1       5.431  -3.109  -0.224  0.00  0.00    +0.000 C 
ATOM     11  C   UNL     1       6.924  -3.337   0.006  0.00  0.00    +0.000 C 
ATOM     12  C   UNL     1       7.243  -3.529   1.486  0.00  0.00    +0.000 C 
ATOM     13  C   UNL     1       6.722  -2.370   2.330  0.00  0.00    +0.000 C 
ATOM     14  C   UNL     1       5.227  -2.141   2.112  0.00  0.00    +0.000 C 
ENDBRANCH   1   9
BRANCH   1  16
ATOM     15  C   UNL     1       2.669   0.842   1.038  0.00  0.00    +0.000 C 
ATOM     16  S   UNL     1       2.999  -0.179  -0.417  0.00  0.00    +0.000 S 
ENDBRANCH   1  16
TORSDOF 3
