MODEL 1
REMARK VINA RESULT:      -5.1      0.000      0.000
REMARK  Name = *****
REMARK  4 active torsions:
REMARK  status: ('A' for Active; 'I' for Inactive)
REMARK    1  A    between atoms: C_4  and  C_7
REMARK    2  A    between atoms: C_7  and  C_9
REMARK    3  A    between atoms: C_9  and  C_10
REMARK    4  A    between atoms: C_10  and  C_11
REMARK                            x       y       z     vdW  Elec       q    Type
REMARK                         _______ _______ _______ _____ _____    ______ ____
ROOT
ATOM      1  C   UNL     1     100.412 126.642  82.650  0.00  0.00    +0.000 C 
ENDROOT
BRANCH   1   2
ATOM      2  C   UNL     1      99.137 127.460  82.729  0.00  0.00    +0.000 C 
ATOM      3  O   UNL     1      98.168 127.231  82.006  0.00  0.00    +0.000 OA
BRANCH   2   7
ATOM      4  C   UNL     1      98.951 130.738  85.502  0.00  0.00    +0.000 A 
ATOM      5  C   UNL     1      98.667 129.448  85.949  0.00  0.00    +0.000 A 
ATOM      6  C   UNL     1      98.722 128.369  85.062  0.00  0.00    +0.000 A 
ATOM      7  C   UNL     1      99.062 128.578  83.720  0.00  0.00    +0.000 A 
ATOM      8  C   UNL     1      99.345 129.879  83.280  0.00  0.00    +0.000 A 
ATOM      9  C   UNL     1      99.290 130.955  84.168  0.00  0.00    +0.000 A 
ENDBRANCH   2   7
ENDBRANCH   1   2
BRANCH   1  10
ATOM     10  C   UNL     1     101.656 127.521  82.782  0.00  0.00    +0.000 C 
BRANCH  10  11
ATOM     11  C   UNL     1     102.751 127.068  81.849  0.00  0.00    +0.000 A 
ATOM     12  C   UNL     1     102.858 125.721  81.479  0.00  0.00    +0.000 A 
ATOM     13  C   UNL     1     103.858 125.319  80.600  0.00  0.00    +0.000 A 
ATOM     14  C   UNL     1     104.761 126.236  80.074  0.00  0.00    +0.000 A 
ATOM     15  C   UNL     1     104.661 127.579  80.432  0.00  0.00    +0.000 A 
ATOM     16  C   UNL     1     103.660 127.994  81.314  0.00  0.00    +0.000 A 
ATOM     17  F   UNL     1     103.952 124.029  80.252  0.00  0.00    +0.000 F 
ENDBRANCH  10  11
ENDBRANCH   1  10
TORSDOF 4
ENDMDL
