MODEL 1
REMARK VINA RESULT:      -4.5      0.000      0.000
REMARK  Name = *****
REMARK  5 active torsions:
REMARK  status: ('A' for Active; 'I' for Inactive)
REMARK    1  A    between atoms: C_1  and  O_2
REMARK    2  A    between atoms: O_2  and  C_3
REMARK    3  A    between atoms: C_6  and  C_9
REMARK    4  A    between atoms: C_10  and  C_11
REMARK    5  A    between atoms: C_16  and  N_17
REMARK                            x       y       z     vdW  Elec       q    Type
REMARK                         _______ _______ _______ _____ _____    ______ ____
ROOT
ATOM      1  C   UNL     1     102.763 125.568  81.807  0.00  0.00    +0.000 C 
ATOM      2  C   UNL     1     101.877 126.300  82.159  0.00  0.00    +0.000 C 
ENDROOT
BRANCH   1   6
ATOM      3  C   UNL     1     105.921 123.009  80.620  0.00  0.00    +0.000 A 
ATOM      4  C   UNL     1     105.373 123.917  79.713  0.00  0.00    +0.000 A 
ATOM      5  C   UNL     1     104.329 124.761  80.109  0.00  0.00    +0.000 A 
ATOM      6  C   UNL     1     103.829 124.702  81.411  0.00  0.00    +0.000 A 
ATOM      7  C   UNL     1     104.374 123.795  82.319  0.00  0.00    +0.000 A 
ATOM      8  C   UNL     1     105.416 122.953  81.922  0.00  0.00    +0.000 A 
BRANCH   3  10
ATOM      9  C   UNL     1     107.055 121.013  81.235  0.00  0.00    +0.000 C 
ATOM     10  O   UNL     1     106.940 122.131  80.365  0.00  0.00    +0.000 OA
ENDBRANCH   3  10
ENDBRANCH   1   6
BRANCH   2  11
ATOM     11  C   UNL     1     100.835 127.178  82.595  0.00  0.00    +0.000 A 
ATOM     12  C   UNL     1      99.502 126.823  82.371  0.00  0.00    +0.000 A 
ATOM     13  C   UNL     1      98.467 127.667  82.790  0.00  0.00    +0.000 A 
ATOM     14  C   UNL     1      98.759 128.870  83.437  0.00  0.00    +0.000 A 
ATOM     15  C   UNL     1     100.086 129.234  83.666  0.00  0.00    +0.000 A 
ATOM     16  C   UNL     1     101.112 128.385  83.244  0.00  0.00    +0.000 A 
BRANCH  16  17
ATOM     17  N   UNL     1     102.425 128.774  83.489  0.00  0.00    +0.000 NA
ATOM     18  C   UNL     1     103.524 129.114  83.712  0.00  0.00    +0.000 C 
ENDBRANCH  16  17
ENDBRANCH   2  11
TORSDOF 4
ENDMDL
