REMARK  Name = *****
REMARK  3 active torsions:
REMARK  status: ('A' for Active; 'I' for Inactive)
REMARK    1  A    between atoms: C_4  and  S_7
REMARK    2  A    between atoms: S_7  and  C_8
REMARK    3  A    between atoms: C_9  and  C_10
REMARK                            x       y       z     vdW  Elec       q    Type
REMARK                         _______ _______ _______ _____ _____    ______ ____
ROOT
ATOM      1  S   UNL     1      -2.896   0.946  -0.425  0.00  0.00    +0.000 S 
ENDROOT
BRANCH   1   5
ATOM      2  C   UNL     1       1.311  -0.665   0.404  0.00  0.00    +0.000 A 
ATOM      3  C   UNL     1       0.784  -0.725  -0.885  0.00  0.00    +0.000 A 
ATOM      4  C   UNL     1      -0.498  -0.235  -1.139  0.00  0.00    +0.000 A 
ATOM      5  C   UNL     1      -1.261   0.314  -0.102  0.00  0.00    +0.000 A 
ATOM      6  C   UNL     1      -0.724   0.379   1.187  0.00  0.00    +0.000 A 
ATOM      7  C   UNL     1       0.559  -0.112   1.440  0.00  0.00    +0.000 A 
ENDBRANCH   1   5
BRANCH   1   8
ATOM      8  C   UNL     1      -3.789  -0.537  -0.350  0.00  0.00    +0.000 C 
ATOM      9  C   UNL     1      -5.055  -0.734  -0.749  0.00  0.00    +0.000 C 
BRANCH   9  10
ATOM     10  C   UNL     1      -5.938   0.246  -1.290  0.00  0.00    +0.000 A 
ATOM     11  C   UNL     1      -6.180   1.559  -0.920  0.00  0.00    +0.000 A 
ATOM     12  C   UNL     1      -7.168   2.198  -1.725  0.00  0.00    +0.000 A 
ATOM     13  C   UNL     1      -7.675   1.352  -2.682  0.00  0.00    +0.000 A 
ATOM     14  S   UNL     1      -6.972  -0.202  -2.598  0.00  0.00    +0.000 S 
ENDBRANCH   9  10
ENDBRANCH   1   8
TORSDOF 3
