REMARK  Name = *****
REMARK  4 active torsions:
REMARK  status: ('A' for Active; 'I' for Inactive)
REMARK    1  A    between atoms: C_1  and  C_2
REMARK    2  A    between atoms: C_4  and  O_8
REMARK    3  A    between atoms: O_8  and  C_9
REMARK    4  A    between atoms: C_9  and  C_11
REMARK                            x       y       z     vdW  Elec       q    Type
REMARK                         _______ _______ _______ _____ _____    ______ ____
ROOT
ATOM      1  C   UNL     1      -1.278   3.595  -0.587  0.00  0.00    +0.000 C 
ATOM      2  O   UNL     1      -0.327   3.619  -1.354  0.00  0.00    +0.000 OA
ENDROOT
BRANCH   1   3
ATOM      3  C   UNL     1      -2.128   4.788  -0.319  0.00  0.00    +0.000 A 
ATOM      4  C   UNL     1      -3.233   4.751   0.542  0.00  0.00    +0.000 A 
ATOM      5  C   UNL     1      -3.985   5.906   0.745  0.00  0.00    +0.000 A 
ATOM      6  C   UNL     1      -3.651   7.093   0.103  0.00  0.00    +0.000 A 
ATOM      7  C   UNL     1      -2.558   7.145  -0.753  0.00  0.00    +0.000 A 
ATOM      8  C   UNL     1      -1.796   5.993  -0.966  0.00  0.00    +0.000 A 
ATOM      9  F   UNL     1      -4.382   8.198   0.306  0.00  0.00    +0.000 F 
ATOM     10  F   UNL     1      -5.040   5.861   1.569  0.00  0.00    +0.000 F 
ENDBRANCH   1   3
BRANCH   1  11
ATOM     11  O   UNL     1      -1.740   2.520   0.148  0.00  0.00    +0.000 OA
BRANCH  11  15
ATOM     12  C   UNL     1       2.431  -0.110   0.642  0.00  0.00    +0.000 C 
ATOM     13  C   UNL     1       0.985   0.004   0.260  0.00  0.00    +0.000 A 
ATOM     14  C   UNL     1       0.322   1.233   0.360  0.00  0.00    +0.000 A 
ATOM     15  C   UNL     1      -1.027   1.321   0.012  0.00  0.00    +0.000 A 
ATOM     16  C   UNL     1      -1.743   0.195  -0.386  0.00  0.00    +0.000 A 
ATOM     17  C   UNL     1      -1.091  -1.033  -0.470  0.00  0.00    +0.000 A 
ATOM     18  C   UNL     1       0.266  -1.129  -0.146  0.00  0.00    +0.000 A 
ENDBRANCH  11  15
ENDBRANCH   1  11
TORSDOF 3
