MODEL 1
REMARK VINA RESULT:      -4.6      0.000      0.000
REMARK  Name = *****
REMARK  4 active torsions:
REMARK  status: ('A' for Active; 'I' for Inactive)
REMARK    1  A    between atoms: C_6  and  C_7
REMARK    2  A    between atoms: C_7  and  C_8
REMARK    3  A    between atoms: C_7  and  S_17
REMARK    4  A    between atoms: C_8  and  C_10
REMARK                            x       y       z     vdW  Elec       q    Type
REMARK                         _______ _______ _______ _____ _____    ______ ____
ROOT
ATOM      1  C   UNL     1      89.912  66.524  86.405  0.00  0.00    +0.000 C 
ENDROOT
BRANCH   1   7
ATOM      2  C   UNL     1      89.585  69.031  86.800  0.00  0.00    +0.000 A 
ATOM      3  C   UNL     1      89.514  70.344  86.325  0.00  0.00    +0.000 A 
ATOM      4  C   UNL     1      89.681  70.601  84.967  0.00  0.00    +0.000 A 
ATOM      5  C   UNL     1      89.913  69.555  84.077  0.00  0.00    +0.000 A 
ATOM      6  C   UNL     1      89.986  68.244  84.551  0.00  0.00    +0.000 A 
ATOM      7  C   UNL     1      89.837  67.964  85.921  0.00  0.00    +0.000 A 
ATOM      8 CL   UNL     1      89.591  72.216  84.383  0.00  0.00    +0.000 Cl
ENDBRANCH   1   7
BRANCH   1   9
ATOM      9  C   UNL     1      88.541  65.850  86.521  0.00  0.00    +0.000 C 
ATOM     10  O   UNL     1      87.770  65.733  85.565  0.00  0.00    +0.000 OA
BRANCH   9  11
ATOM     11  C   UNL     1      88.095  65.331  87.852  0.00  0.00    +0.000 A 
ATOM     12  C   UNL     1      87.054  65.917  88.586  0.00  0.00    +0.000 A 
ATOM     13  C   UNL     1      86.684  65.382  89.824  0.00  0.00    +0.000 A 
ATOM     14  C   UNL     1      87.348  64.267  90.323  0.00  0.00    +0.000 A 
ATOM     15  C   UNL     1      88.377  63.670  89.606  0.00  0.00    +0.000 A 
ATOM     16  C   UNL     1      88.749  64.199  88.369  0.00  0.00    +0.000 A 
ATOM     17  F   UNL     1      86.988  63.762  91.509  0.00  0.00    +0.000 F 
ENDBRANCH   9  11
ENDBRANCH   1   9
BRANCH   1  18
ATOM     18  S   UNL     1      90.995  65.536  85.305  0.00  0.00    +0.000 S 
ATOM     19  H   UNL     1      91.899  66.355  84.703  0.00  0.00    +0.000 HD
ENDBRANCH   1  18
TORSDOF 4
ENDMDL
