MODEL 1
REMARK VINA RESULT:      -4.4      0.000      0.000
REMARK  Name = *****
REMARK  5 active torsions:
REMARK  status: ('A' for Active; 'I' for Inactive)
REMARK    1  A    between atoms: C_1  and  C_2
REMARK    2  A    between atoms: C_1  and  N_8
REMARK    3  A    between atoms: N_8  and  C_9
REMARK    4  A    between atoms: N_8  and  N_16
REMARK    5  A    between atoms: C_9  and  C_10
REMARK                            x       y       z     vdW  Elec       q    Type
REMARK                         _______ _______ _______ _____ _____    ______ ____
ROOT
ATOM      1  N   UNL     1      89.059  72.584  84.032  0.00  0.00    +0.000 NA
ENDROOT
BRANCH   1   2
ATOM      2  N   UNL     1      89.410  73.801  83.671  0.00  0.00    +0.000 NA
ATOM      3  O   UNL     1      90.610  73.858  83.381  0.00  0.00    +0.000 OA
ENDBRANCH   1   2
BRANCH   1   4
ATOM      4  C   UNL     1      87.832  72.044  83.407  0.00  0.00    +0.000 C 
BRANCH   4   5
ATOM      5  C   UNL     1      86.551  72.175  84.213  0.00  0.00    +0.000 A 
ATOM      6  C   UNL     1      86.476  71.677  85.523  0.00  0.00    +0.000 A 
ATOM      7  C   UNL     1      85.297  71.795  86.261  0.00  0.00    +0.000 A 
ATOM      8  C   UNL     1      84.181  72.411  85.698  0.00  0.00    +0.000 A 
ATOM      9  C   UNL     1      84.243  72.913  84.400  0.00  0.00    +0.000 A 
ATOM     10  C   UNL     1      85.420  72.796  83.661  0.00  0.00    +0.000 A 
ENDBRANCH   4   5
ENDBRANCH   1   4
BRANCH   1  11
ATOM     11  C   UNL     1      90.165  71.614  83.987  0.00  0.00    +0.000 C 
BRANCH  11  12
ATOM     12  C   UNL     1      89.951  70.414  84.893  0.00  0.00    +0.000 A 
ATOM     13  C   UNL     1      89.764  70.590  86.272  0.00  0.00    +0.000 A 
ATOM     14  C   UNL     1      89.569  69.489  87.106  0.00  0.00    +0.000 A 
ATOM     15  C   UNL     1      89.563  68.202  86.573  0.00  0.00    +0.000 A 
ATOM     16  C   UNL     1      89.756  68.013  85.205  0.00  0.00    +0.000 A 
ATOM     17  C   UNL     1      89.952  69.113  84.368  0.00  0.00    +0.000 A 
ENDBRANCH  11  12
ENDBRANCH   1  11
TORSDOF 5
ENDMDL
