MODEL 1
REMARK VINA RESULT:      -4.7      0.000      0.000
REMARK  Name = *****
REMARK  4 active torsions:
REMARK  status: ('A' for Active; 'I' for Inactive)
REMARK    1  A    between atoms: C_1  and  C_2
REMARK    2  A    between atoms: C_5  and  C_8
REMARK    3  A    between atoms: C_8  and  O_10
REMARK    4  A    between atoms: O_10  and  C_11
REMARK                            x       y       z     vdW  Elec       q    Type
REMARK                         _______ _______ _______ _____ _____    ______ ____
ROOT
ATOM      1  C   UNL     1      88.046  70.547  88.092  0.00  0.00    +0.000 C 
ATOM      2  O   UNL     1      88.621  70.514  89.170  0.00  0.00    +0.000 OA
ENDROOT
BRANCH   1   7
ATOM      3  C   UNL     1      82.940  73.138  87.136  0.00  0.00    +0.000 C 
ATOM      4  C   UNL     1      84.244  72.443  87.396  0.00  0.00    +0.000 A 
ATOM      5  C   UNL     1      84.670  72.208  88.709  0.00  0.00    +0.000 A 
ATOM      6  C   UNL     1      85.900  71.591  88.958  0.00  0.00    +0.000 A 
ATOM      7  C   UNL     1      86.726  71.208  87.893  0.00  0.00    +0.000 A 
ATOM      8  C   UNL     1      86.305  71.456  86.579  0.00  0.00    +0.000 A 
ATOM      9  C   UNL     1      85.076  72.074  86.334  0.00  0.00    +0.000 A 
ENDBRANCH   1   7
BRANCH   1  10
ATOM     10  O   UNL     1      88.481  70.004  86.897  0.00  0.00    +0.000 OA
BRANCH  10  11
ATOM     11  C   UNL     1      88.676  68.618  86.906  0.00  0.00    +0.000 A 
ATOM     12  C   UNL     1      87.679  67.755  87.360  0.00  0.00    +0.000 A 
ATOM     13  C   UNL     1      87.889  66.376  87.300  0.00  0.00    +0.000 A 
ATOM     14  C   UNL     1      89.082  65.881  86.771  0.00  0.00    +0.000 A 
ATOM     15  C   UNL     1      90.068  66.749  86.299  0.00  0.00    +0.000 A 
ATOM     16  C   UNL     1      89.862  68.129  86.359  0.00  0.00    +0.000 A 
ATOM     17 CL   UNL     1      89.338  64.180  86.692  0.00  0.00    +0.000 Cl
ENDBRANCH  10  11
ENDBRANCH   1  10
TORSDOF 3
ENDMDL
