@<TRIPOS>MOLECULE
CTL1 
17 17 0 0 0
SMALL
USER_CHARGES
#CGenFF output mol2 file
@<TRIPOS>ATOM
1	C1   101.5100   128.6770    83.7950	C.ar	1	CTL1    -0.1150
2	C2   100.4310   129.5690    83.8880	C.ar	1	CTL1    -0.0960
3	C3    99.1920   129.2570    83.3020	C.ar	1	CTL1    -0.1150
4	C4    99.0340   128.0380    82.6520	C.ar	1	CTL1     0.1170
5	C5   100.0960   127.1430    82.5820	C.ar	1	CTL1     0.1210
6	C6   101.3230   127.4630    83.1470	C.ar	1	CTL1     0.1170
7	C7   100.5640   130.8770    84.5690	C.2	1	CTL1     0.6200
8	O1   101.5770   131.5500    84.5030	O.co2	1	CTL1    -0.7600
9	O2    99.4440   131.2770    85.2060	O.co2	1	CTL1    -0.7600
10	O3   102.3650   126.5870    83.0640	O.3	1	CTL1    -0.5380
11	O4    99.9510   125.9390    81.9490	O.3	1	CTL1    -0.5430
12	O5    97.8550   127.6750    82.0660	O.3	1	CTL1    -0.5380
13	H1   102.4273   128.9190    84.2013	H	1	CTL1     0.1150
14	H2    98.4077   129.9258    83.3537	H	1	CTL1     0.1150
15	H3   102.2521   125.7645    82.6295	H	1	CTL1     0.4200
16	H4    99.1289   125.7088    81.5628	H	1	CTL1     0.4200
17	H5    97.7815   126.8459    81.6357	H	1	CTL1     0.4200
@<TRIPOS>BOND
1	1	6	2
2	1	2	1
3	1	13	1
4	2	3	2
5	2	7	1
6	3	4	1
7	3	14	1
8	4	12	1
9	4	5	2
10	5	11	1
11	5	6	1
12	6	10	1
13	7	8	2
14	7	9	1
15	10	15	1
16	11	16	1
17	12	17	1
