MODEL 1
REMARK VINA RESULT:      -5.3      0.000      0.000
REMARK  Name = *****
REMARK  6 active torsions:
REMARK  status: ('A' for Active; 'I' for Inactive)
REMARK    1  A    between atoms: C_1  and  O_2
REMARK    2  A    between atoms: O_2  and  C_3
REMARK    3  A    between atoms: C_5  and  C_6
REMARK    4  A    between atoms: C_18  and  O_19
REMARK    5  A    between atoms: O_19  and  C_20
REMARK    6  A    between atoms: C_21  and  O_22
REMARK                            x       y       z     vdW  Elec       q    Type
REMARK                         _______ _______ _______ _____ _____    ______ ____
ROOT
ATOM      1  C   UNL     1      99.365 127.507  82.769  0.00  0.00    +0.000 A 
ATOM      2  C   UNL     1     100.285 126.499  82.464  0.00  0.00    +0.000 A 
ATOM      3  C   UNL     1     101.649 126.660  82.759  0.00  0.00    +0.000 A 
ATOM      4  C   UNL     1     102.092 127.834  83.384  0.00  0.00    +0.000 A 
ATOM      5  C   UNL     1     101.191 128.855  83.679  0.00  0.00    +0.000 A 
ATOM      6  C   UNL     1      99.832 128.674  83.381  0.00  0.00    +0.000 A 
ENDROOT
BRANCH   3   7
ATOM      7  C   UNL     1     102.567 125.548  82.474  0.00  0.00    +0.000 C 
ATOM      8  C   UNL     1     103.470 125.477  81.484  0.00  0.00    +0.000 C 
ATOM      9  C   UNL     1     103.768 126.497  80.410  0.00  0.00    +0.000 C 
ATOM     10  O   UNL     1     103.280 127.597  80.246  0.00  0.00    +0.000 OA
ATOM     11  N   UNL     1     104.753 125.913  79.626  0.00  0.00    +0.000 N 
ATOM     12  C   UNL     1     105.101 124.652  80.098  0.00  0.00    +0.000 A 
ATOM     13  C   UNL     1     106.044 123.800  79.561  0.00  0.00    +0.000 A 
ATOM     14  C   UNL     1     106.237 122.574  80.202  0.00  0.00    +0.000 A 
ATOM     15  C   UNL     1     105.494 122.235  81.347  0.00  0.00    +0.000 A 
ATOM     16  C   UNL     1     104.541 123.116  81.873  0.00  0.00    +0.000 A 
ATOM     17  C   UNL     1     104.352 124.329  81.234  0.00  0.00    +0.000 A 
ATOM     18  H   UNL     1     105.156 126.339  78.835  0.00  0.00    +0.000 HD
ENDBRANCH   3   7
BRANCH   1  20
ATOM     19  C   UNL     1      97.227 126.679  83.423  0.00  0.00    +0.000 C 
ATOM     20  O   UNL     1      98.018 127.443  82.525  0.00  0.00    +0.000 OA
ENDBRANCH   1  20
BRANCH   5  21
ATOM     21  O   UNL     1     101.503 130.054  84.270  0.00  0.00    +0.000 OA
ATOM     22  C   UNL     1     102.883 130.274  84.546  0.00  0.00    +0.000 C 
ENDBRANCH   5  21
BRANCH   6  23
ATOM     23  O   UNL     1      98.950 129.680  83.695  0.00  0.00    +0.000 OA
ATOM     24  H   UNL     1      98.870 130.426  83.133  0.00  0.00    +0.000 HD
ENDBRANCH   6  23
TORSDOF 4
ENDMDL
