REMARK  Name = *****
REMARK  3 active torsions:
REMARK  status: ('A' for Active; 'I' for Inactive)
REMARK    1  A    between atoms: O_1  and  C_2
REMARK    2  A    between atoms: C_2  and  C_3
REMARK    3  A    between atoms: C_3  and  C_4
REMARK                            x       y       z     vdW  Elec       q    Type
REMARK                         _______ _______ _______ _____ _____    ______ ____
ROOT
ATOM      1  C   UNL     1       2.453  -0.012   0.032  0.00  0.00    +0.000 C 
ATOM      2  C   UNL     1       2.995  -1.225   0.861  0.00  0.00    +0.000 C 
ATOM      3  O   UNL     1       2.683  -2.396   0.709  0.00  0.00    +0.000 OA
ATOM      4  N   UNL     1       3.850  -0.730   1.830  0.00  0.00    +0.000 N 
ATOM      5  C   UNL     1       3.862   0.656   1.825  0.00  0.00    +0.000 A 
ATOM      6  C   UNL     1       4.551   1.465   2.705  0.00  0.00    +0.000 A 
ATOM      7  C   UNL     1       4.395   2.841   2.554  0.00  0.00    +0.000 A 
ATOM      8 BR   UNL     1       5.308   4.013   3.725  0.00  0.00    +0.000 Br
ATOM      9  C   UNL     1       3.563   3.372   1.557  0.00  0.00    +0.000 A 
ATOM     10  C   UNL     1       2.874   2.523   0.680  0.00  0.00    +0.000 A 
ATOM     11 BR   UNL     1       1.739   3.305  -0.614  0.00  0.00    +0.000 Br
ATOM     12  C   UNL     1       3.036   1.152   0.809  0.00  0.00    +0.000 A 
ATOM     13  H   UNL     1       4.380  -1.290   2.443  0.00  0.00    +0.000 HD
ENDROOT
BRANCH   1  14
ATOM     14  O   UNL     1       1.037   0.043   0.068  0.00  0.00    +0.000 OA
ATOM     15  H   UNL     1       0.671  -0.704  -0.430  0.00  0.00    +0.000 HD
ENDBRANCH   1  14
BRANCH   1  16
ATOM     16  C   UNL     1       2.994  -0.081  -1.405  0.00  0.00    +0.000 C 
BRANCH  16  17
ATOM     17  C   UNL     1       2.358  -1.189  -2.238  0.00  0.00    +0.000 C 
ATOM     18 CL   UNL     1       3.038  -1.179  -3.886  0.00  0.00    +0.000 Cl
ENDBRANCH  16  17
ENDBRANCH   1  16
TORSDOF 3
