MODEL 1
REMARK VINA RESULT:      -5.3      0.000      0.000
REMARK  Name = *****
REMARK  4 active torsions:
REMARK  status: ('A' for Active; 'I' for Inactive)
REMARK    1  A    between atoms: C_1  and  O_2
REMARK    2  A    between atoms: O_2  and  C_3
REMARK    3  A    between atoms: C_17  and  O_18
REMARK    4  A    between atoms: O_18  and  C_19
REMARK                            x       y       z     vdW  Elec       q    Type
REMARK                         _______ _______ _______ _____ _____    ______ ____
ROOT
ATOM      1  C   UNL     1      87.155  71.011  90.582  0.00  0.00    +0.000 A 
ATOM      2  C   UNL     1      88.190  70.557  89.774  0.00  0.00    +0.000 A 
ATOM      3  C   UNL     1      88.081  70.651  88.387  0.00  0.00    +0.000 A 
ATOM      4  C   UNL     1      89.262  70.270  87.510  0.00  0.00    +0.000 C 
ATOM      5  C   UNL     1      88.853  69.883  86.085  0.00  0.00    +0.000 C 
ATOM      6  N   UNL     1      87.817  70.744  85.565  0.00  0.00    +0.000 N 
ATOM      7  C   UNL     1      87.435  70.873  84.250  0.00  0.00    +0.000 C 
ATOM      8  O   UNL     1      87.969  70.448  83.249  0.00  0.00    +0.000 OA
ATOM      9  C   UNL     1      86.090  71.650  84.307  0.00  0.00    +0.000 C 
ATOM     10  O   UNL     1      85.451  72.026  83.351  0.00  0.00    +0.000 OA
ATOM     11  C   UNL     1      85.773  71.809  85.740  0.00  0.00    +0.000 A 
ATOM     12  C   UNL     1      86.841  71.258  86.427  0.00  0.00    +0.000 A 
ATOM     13  C   UNL     1      86.913  71.196  87.806  0.00  0.00    +0.000 A 
ATOM     14  C   UNL     1      85.823  71.696  88.563  0.00  0.00    +0.000 A 
ATOM     15  C   UNL     1      86.017  71.608  89.983  0.00  0.00    +0.000 A 
ATOM     16  C   UNL     1      84.658  72.246  87.828  0.00  0.00    +0.000 A 
ATOM     17  C   UNL     1      83.473  72.724  88.445  0.00  0.00    +0.000 A 
ATOM     18  C   UNL     1      82.393  73.257  87.731  0.00  0.00    +0.000 A 
ATOM     19  C   UNL     1      82.445  73.329  86.351  0.00  0.00    +0.000 A 
ATOM     20  C   UNL     1      83.570  72.855  85.689  0.00  0.00    +0.000 A 
ATOM     21  C   UNL     1      84.663  72.314  86.400  0.00  0.00    +0.000 A 
ENDROOT
BRANCH   1  23
ATOM     22  C   UNL     1      88.185  71.651  92.643  0.00  0.00    +0.000 C 
ATOM     23  O   UNL     1      87.162  70.946  91.952  0.00  0.00    +0.000 OA
ENDBRANCH   1  23
BRANCH  15  24
ATOM     24  O   UNL     1      85.036  72.091  90.829  0.00  0.00    +0.000 OA
ATOM     25  C   UNL     1      85.349  73.423  91.248  0.00  0.00    +0.000 C 
ENDBRANCH  15  24
TORSDOF 2
ENDMDL
