MODEL 1
REMARK VINA RESULT:      -5.0      0.000      0.000
REMARK  Name = *****
REMARK  9 active torsions:
REMARK  status: ('A' for Active; 'I' for Inactive)
REMARK    1  A    between atoms: C_1  and  C_2
REMARK    2  A    between atoms: C_2  and  C_3
REMARK    3  A    between atoms: C_11  and  C_12
REMARK    4  A    between atoms: C_12  and  C_16
REMARK    5  A    between atoms: C_13  and  O_14
REMARK    6  A    between atoms: O_14  and  C_15
REMARK    7  A    between atoms: C_16  and  O_18
REMARK    8  A    between atoms: O_18  and  C_19
REMARK    9  A    between atoms: C_27  and  O_28
REMARK                            x       y       z     vdW  Elec       q    Type
REMARK                         _______ _______ _______ _____ _____    ______ ____
ROOT
ATOM      1  C   UNL     1      88.950  66.166  85.787  0.00  0.00    +0.000 C 
ATOM      2  C   UNL     1      88.233  67.210  84.887  0.00  0.00    +0.000 C 
ATOM      3  N   UNL     1      87.518  68.276  85.562  0.00  0.00    +0.000 N 
ATOM      4  C   UNL     1      87.722  69.635  85.099  0.00  0.00    +0.000 C 
ATOM      5  C   UNL     1      86.926  70.464  86.114  0.00  0.00    +0.000 C 
ATOM      6  C   UNL     1      86.817  69.577  87.370  0.00  0.00    +0.000 C 
ATOM      7  C   UNL     1      87.624  68.322  87.013  0.00  0.00    +0.000 C 
ATOM      8  C   UNL     1      87.183  66.972  87.554  0.00  0.00    +0.000 C 
ATOM      9  C   UNL     1      88.248  65.923  87.174  0.00  0.00    +0.000 C 
ATOM     10  C   UNL     1      85.333  69.275  87.714  0.00  0.00    +0.000 C 
ATOM     11  O   UNL     1      84.466  68.807  86.995  0.00  0.00    +0.000 OA
ATOM     12  N   UNL     1      85.128  69.651  89.037  0.00  0.00    +0.000 N 
ATOM     13  C   UNL     1      86.264  70.219  89.586  0.00  0.00    +0.000 A 
ATOM     14  C   UNL     1      86.406  70.723  90.863  0.00  0.00    +0.000 A 
ATOM     15  C   UNL     1      87.646  71.266  91.205  0.00  0.00    +0.000 A 
ATOM     16  C   UNL     1      88.698  71.297  90.272  0.00  0.00    +0.000 A 
ATOM     17  C   UNL     1      88.517  70.777  88.989  0.00  0.00    +0.000 A 
ATOM     18  C   UNL     1      87.294  70.231  88.648  0.00  0.00    +0.000 A 
ATOM     19  H   UNL     1      86.587  67.969  85.284  0.00  0.00    +0.000 HD
ATOM     20  H   UNL     1      84.281  69.528  89.523  0.00  0.00    +0.000 HD
ENDROOT
BRANCH   1  22
ATOM     21  C   UNL     1      91.422  65.577  85.338  0.00  0.00    +0.000 C 
ATOM     22  C   UNL     1      90.443  66.531  86.014  0.00  0.00    +0.000 C 
ENDBRANCH   1  22
BRANCH   9  23
ATOM     23  C   UNL     1      87.750  64.505  87.395  0.00  0.00    +0.000 C 
ATOM     24  C   UNL     1      87.707  63.921  88.606  0.00  0.00    +0.000 C 
BRANCH  24  25
ATOM     25  O   UNL     1      88.135  64.535  89.756  0.00  0.00    +0.000 OA
ATOM     26  C   UNL     1      89.130  63.766  90.427  0.00  0.00    +0.000 C 
ENDBRANCH  24  25
BRANCH  23  27
ATOM     27  C   UNL     1      87.218  63.666  86.284  0.00  0.00    +0.000 C 
ATOM     28  O   UNL     1      86.115  63.819  85.777  0.00  0.00    +0.000 OA
BRANCH  27  29
ATOM     29  O   UNL     1      88.112  62.715  85.932  0.00  0.00    +0.000 OA
ATOM     30  C   UNL     1      88.486  62.738  84.554  0.00  0.00    +0.000 C 
ENDBRANCH  27  29
ENDBRANCH  23  27
ENDBRANCH   9  23
BRANCH  17  31
ATOM     31  O   UNL     1      89.519  70.798  88.070  0.00  0.00    +0.000 OA
ATOM     32  H   UNL     1      89.350  70.535  87.187  0.00  0.00    +0.000 HD
ENDBRANCH  17  31
TORSDOF 6
ENDMDL
