REMARK  Name = *****
REMARK  9 active torsions:
REMARK  status: ('A' for Active; 'I' for Inactive)
REMARK    1  A    between atoms: C_1  and  C_2
REMARK    2  A    between atoms: C_2  and  C_3
REMARK    3  A    between atoms: C_11  and  C_12
REMARK    4  A    between atoms: C_12  and  C_16
REMARK    5  A    between atoms: C_13  and  O_14
REMARK    6  A    between atoms: O_14  and  C_15
REMARK    7  A    between atoms: C_16  and  O_18
REMARK    8  A    between atoms: O_18  and  C_19
REMARK    9  A    between atoms: C_27  and  O_28
REMARK                            x       y       z     vdW  Elec       q    Type
REMARK                         _______ _______ _______ _____ _____    ______ ____
ROOT
ATOM      1  C   UNL     1       2.775   1.033   0.332  0.00  0.00    +0.000 C 
ATOM      2  C   UNL     1       2.354  -0.257  -0.426  0.00  0.00    +0.000 C 
ATOM      3  N   UNL     1       2.887  -0.261  -1.781  0.00  0.00    +0.000 N 
ATOM      4  C   UNL     1       2.521  -1.428  -2.575  0.00  0.00    +0.000 C 
ATOM      5  C   UNL     1       3.473  -1.343  -3.767  0.00  0.00    +0.000 C 
ATOM      6  C   UNL     1       4.722  -0.623  -3.228  0.00  0.00    +0.000 C 
ATOM      7  C   UNL     1       4.356  -0.255  -1.779  0.00  0.00    +0.000 C 
ATOM      8  C   UNL     1       4.846   1.070  -1.204  0.00  0.00    +0.000 C 
ATOM      9  C   UNL     1       4.326   1.233   0.247  0.00  0.00    +0.000 C 
ATOM     10  C   UNL     1       5.082   0.598  -4.115  0.00  0.00    +0.000 C 
ATOM     11  O   UNL     1       4.369   1.528  -4.457  0.00  0.00    +0.000 OA
ATOM     12  N   UNL     1       6.408   0.453  -4.508  0.00  0.00    +0.000 N 
ATOM     13  C   UNL     1       6.942  -0.742  -4.063  0.00  0.00    +0.000 A 
ATOM     14  C   UNL     1       8.209  -1.229  -4.314  0.00  0.00    +0.000 A 
ATOM     15  C   UNL     1       8.531  -2.482  -3.789  0.00  0.00    +0.000 A 
ATOM     16  C   UNL     1       7.588  -3.210  -3.040  0.00  0.00    +0.000 A 
ATOM     17  C   UNL     1       6.315  -2.684  -2.808  0.00  0.00    +0.000 A 
ATOM     18  C   UNL     1       5.995  -1.441  -3.318  0.00  0.00    +0.000 A 
ATOM     19  H   UNL     1       2.481   0.580  -2.192  0.00  0.00    +0.000 HD
ATOM     20  H   UNL     1       6.905   1.119  -5.036  0.00  0.00    +0.000 HD
ENDROOT
BRANCH   1  22
ATOM     21  C   UNL     1       2.144   2.229   2.548  0.00  0.00    +0.000 C 
ATOM     22  C   UNL     1       2.232   0.920   1.778  0.00  0.00    +0.000 C 
ENDBRANCH   1  22
BRANCH   9  23
ATOM     23  C   UNL     1       4.880   2.518   0.846  0.00  0.00    +0.000 C 
ATOM     24  C   UNL     1       5.910   2.529   1.712  0.00  0.00    +0.000 C 
BRANCH  24  25
ATOM     25  O   UNL     1       6.535   1.387   2.146  0.00  0.00    +0.000 OA
ATOM     26  C   UNL     1       7.845   1.644   2.646  0.00  0.00    +0.000 C 
ENDBRANCH  24  25
BRANCH  23  27
ATOM     27  C   UNL     1       4.275   3.817   0.427  0.00  0.00    +0.000 C 
ATOM     28  O   UNL     1       3.581   3.961  -0.567  0.00  0.00    +0.000 OA
BRANCH  27  29
ATOM     29  O   UNL     1       4.556   4.803   1.322  0.00  0.00    +0.000 OA
ATOM     30  C   UNL     1       3.950   6.057   1.008  0.00  0.00    +0.000 C 
ENDBRANCH  27  29
ENDBRANCH  23  27
ENDBRANCH   9  23
BRANCH  17  31
ATOM     31  O   UNL     1       5.386  -3.376  -2.095  0.00  0.00    +0.000 OA
ATOM     32  H   UNL     1       5.597  -4.220  -1.746  0.00  0.00    +0.000 HD
ENDBRANCH  17  31
TORSDOF 6
