MODEL 1
REMARK VINA RESULT:      -5.7      0.000      0.000
REMARK  Name = *****
REMARK  8 active torsions:
REMARK  status: ('A' for Active; 'I' for Inactive)
REMARK    1  A    between atoms: C_1  and  C_2
REMARK    2  A    between atoms: C_2  and  C_3
REMARK    3  A    between atoms: C_2  and  C_4
REMARK    4  A    between atoms: C_2  and  C_6
REMARK    5  A    between atoms: C_6  and  C_7
REMARK    6  A    between atoms: C_7  and  C_8
REMARK    7  A    between atoms: C_26  and  C_27
REMARK    8  A    between atoms: C_26  and  C_28
REMARK                            x       y       z     vdW  Elec       q    Type
REMARK                         _______ _______ _______ _____ _____    ______ ____
ROOT
ATOM      1  C   UNK A   1     104.135 127.050  82.221  0.00  0.00    +0.000 C 
ATOM      2  C   UNK A   1     104.686 126.879  83.698  0.00  0.00    +0.000 C 
ATOM      3  O   UNK A   1     104.647 127.692  84.608  0.00  0.00    +0.000 OA
ATOM      4  N   UNK A   1     105.152 125.589  83.846  0.00  0.00    +0.000 N 
ATOM      5  C   UNK A   1     105.075 124.868  82.667  0.00  0.00    +0.000 A 
ATOM      6  C   UNK A   1     105.490 123.553  82.462  0.00  0.00    +0.000 A 
ATOM      7  C   UNK A   1     106.057 122.716  83.507  0.00  0.00    +0.000 C 
ATOM      8  C   UNK A   1     106.350 121.449  83.204  0.00  0.00    +0.000 C 
ATOM      9  C   UNK A   1     106.128 120.849  81.834  0.00  0.00    +0.000 C 
ATOM     10  C   UNK A   1     105.047 119.765  81.920  0.00  0.00    +0.000 C 
ATOM     11  C   UNK A   1     107.440 120.231  81.335  0.00  0.00    +0.000 C 
ATOM     12  O   UNK A   1     105.710 121.774  80.810  0.00  0.00    +0.000 OA
ATOM     13  C   UNK A   1     105.347 123.040  81.172  0.00  0.00    +0.000 A 
ATOM     14  C   UNK A   1     104.829 123.836  80.142  0.00  0.00    +0.000 A 
ATOM     15  C   UNK A   1     104.419 125.152  80.381  0.00  0.00    +0.000 A 
ATOM     16  C   UNK A   1     104.521 125.672  81.660  0.00  0.00    +0.000 A 
ATOM     17  H   UNK A   1     105.500 125.224  84.692  0.00  0.00    +0.000 HD
ENDROOT
BRANCH   1  19
ATOM     18  C   UNK A   1     104.660 129.590  82.414  0.00  0.00    +0.000 C 
ATOM     19  C   UNK A   1     104.877 128.304  81.570  0.00  0.00    +0.000 C 
ATOM     20  C   UNK A   1     104.382 128.653  80.147  0.00  0.00    +0.000 C 
BRANCH  19  21
ATOM     21  C   UNK A   1     106.376 127.996  81.381  0.00  0.00    +0.000 C 
ATOM     22  C   UNK A   1     107.055 127.882  80.231  0.00  0.00    +0.000 C 
ENDBRANCH  19  21
ENDBRANCH   1  19
BRANCH   1  23
ATOM     23  C   UNK A   1     102.589 127.152  82.487  0.00  0.00    +0.000 C 
BRANCH  23  24
ATOM     24  C   UNK A   1     101.702 125.945  82.853  0.00  0.00    +0.000 C 
ATOM     25  N   UNK A   1     100.402 126.124  82.165  0.00  0.00    +0.000 N 
ATOM     26  C   PRO A   2      99.452 126.993  82.677  0.00  0.00    +0.000 C 
ATOM     27  O   PRO A   2      98.646 127.554  81.944  0.00  0.00    +0.000 OA
ATOM     28  CA  PRO A   2      99.316 126.896  84.194  0.00  0.00    +0.000 C 
ATOM     29  CB  PRO A   2      98.728 128.099  84.906  0.00  0.00    +0.000 C 
ATOM     30  CG  PRO A   2      99.145 127.847  86.359  0.00  0.00    +0.000 C 
ATOM     31  CD  PRO A   2     100.477 127.096  86.264  0.00  0.00    +0.000 C 
ATOM     32  N   PRO A   2     100.587 126.726  84.869  0.00  0.00    +0.000 N 
ATOM     33  C   UNK A   1     101.484 125.797  84.378  0.00  0.00    +0.000 C 
ATOM     34  O   UNK A   1     102.188 125.093  85.091  0.00  0.00    +0.000 OA
ATOM     35  H   UNK A   1     100.212 125.624  81.339  0.00  0.00    +0.000 HD
ENDBRANCH  23  24
ENDBRANCH   1  23
TORSDOF 4
ENDMDL
