MODEL 1
REMARK VINA RESULT:      -6.0      0.000      0.000
REMARK  Name = *****
REMARK  0 active torsions:
REMARK  status: ('A' for Active; 'I' for Inactive)
REMARK                            x       y       z     vdW  Elec       q    Type
REMARK                         _______ _______ _______ _____ _____    ______ ____
ROOT
ATOM      1  O   UNL     1      88.816  70.850  83.062  0.00  0.00    +0.000 OA
ATOM      2  C   UNL     1      88.068  70.973  84.007  0.00  0.00    +0.000 C 
ATOM      3  N   UNL     1      88.300  70.731  85.342  0.00  0.00    +0.000 N 
ATOM      4  C   UNL     1      89.576  70.463  85.970  0.00  0.00    +0.000 C 
ATOM      5  C   UNL     1      89.422  69.879  87.381  0.00  0.00    +0.000 C 
ATOM      6  C   UNL     1      88.310  70.538  88.180  0.00  0.00    +0.000 A 
ATOM      7  C   UNL     1      88.320  70.489  89.573  0.00  0.00    +0.000 A 
ATOM      8  C   UNL     1      87.233  71.015  90.233  0.00  0.00    +0.000 A 
ATOM      9  O   UNL     1      87.101  71.041  91.588  0.00  0.00    +0.000 OA
ATOM     10  C   UNL     1      85.815  71.664  91.724  0.00  0.00    +0.000 C 
ATOM     11  O   UNL     1      85.206  71.989  90.462  0.00  0.00    +0.000 OA
ATOM     12  C   UNL     1      86.146  71.556  89.568  0.00  0.00    +0.000 A 
ATOM     13  C   UNL     1      86.054  71.627  88.162  0.00  0.00    +0.000 A 
ATOM     14  C   UNL     1      84.942  72.154  87.363  0.00  0.00    +0.000 A 
ATOM     15  C   UNL     1      83.755  72.689  87.920  0.00  0.00    +0.000 A 
ATOM     16  C   UNL     1      82.708  73.186  87.137  0.00  0.00    +0.000 A 
ATOM     17  C   UNL     1      82.805  73.168  85.756  0.00  0.00    +0.000 A 
ATOM     18  C   UNL     1      83.951  72.653  85.158  0.00  0.00    +0.000 A 
ATOM     19  C   UNL     1      85.014  72.148  85.936  0.00  0.00    +0.000 A 
ATOM     20  C   UNL     1      86.170  71.638  85.358  0.00  0.00    +0.000 A 
ATOM     21  C   UNL     1      86.614  71.523  83.954  0.00  0.00    +0.000 C 
ATOM     22  O   UNL     1      85.999  71.806  82.951  0.00  0.00    +0.000 OA
ATOM     23  C   UNL     1      87.216  71.145  86.122  0.00  0.00    +0.000 A 
ATOM     24  C   UNL     1      87.198  71.105  87.501  0.00  0.00    +0.000 A 
ENDROOT
TORSDOF 0
ENDMDL
