MODEL 1
REMARK VINA RESULT:      -5.4      0.000      0.000
REMARK  Name = *****
REMARK  6 active torsions:
REMARK  status: ('A' for Active; 'I' for Inactive)
REMARK    1  A    between atoms: C_1  and  O_2
REMARK    2  A    between atoms: O_2  and  C_3
REMARK    3  A    between atoms: C_8  and  O_9
REMARK    4  A    between atoms: C_20  and  O_21
REMARK    5  A    between atoms: C_22  and  O_23
REMARK    6  A    between atoms: O_23  and  C_24
REMARK                            x       y       z     vdW  Elec       q    Type
REMARK                         _______ _______ _______ _____ _____    ______ ____
ROOT
ATOM      1  C   UNL     1      87.574  65.320  88.741  0.00  0.00    +0.000 A 
ATOM      2  C   UNL     1      87.031  66.612  88.607  0.00  0.00    +0.000 A 
ATOM      3  C   UNL     1      87.417  67.548  87.612  0.00  0.00    +0.000 A 
ATOM      4  C   UNL     1      88.408  67.075  86.702  0.00  0.00    +0.000 A 
ATOM      5  C   UNL     1      88.954  65.777  86.827  0.00  0.00    +0.000 A 
ATOM      6  C   UNL     1      88.543  64.910  87.836  0.00  0.00    +0.000 A 
ATOM      7  C   UNL     1      88.821  67.939  85.698  0.00  0.00    +0.000 A 
ATOM      8  C   UNL     1      89.839  67.812  84.637  0.00  0.00    +0.000 C 
ATOM      9  O   UNL     1      90.524  66.849  84.372  0.00  0.00    +0.000 OA
ATOM     10  C   UNL     1      89.883  69.189  83.919  0.00  0.00    +0.000 C 
ATOM     11  O   UNL     1      90.674  69.517  83.062  0.00  0.00    +0.000 OA
ATOM     12  N   UNL     1      88.884  69.922  84.515  0.00  0.00    +0.000 N 
ATOM     13  C   UNL     1      88.667  71.346  84.399  0.00  0.00    +0.000 C 
ATOM     14  C   UNL     1      87.266  71.754  84.869  0.00  0.00    +0.000 C 
ATOM     15  C   UNL     1      86.824  71.020  86.125  0.00  0.00    +0.000 A 
ATOM     16  C   UNL     1      85.843  71.573  86.942  0.00  0.00    +0.000 A 
ATOM     17  C   UNL     1      85.389  70.849  88.034  0.00  0.00    +0.000 A 
ATOM     18  C   UNL     1      85.896  69.563  88.316  0.00  0.00    +0.000 A 
ATOM     19  C   UNL     1      86.862  68.917  87.478  0.00  0.00    +0.000 A 
ATOM     20  C   UNL     1      87.318  69.723  86.399  0.00  0.00    +0.000 A 
ATOM     21  C   UNL     1      88.291  69.211  85.564  0.00  0.00    +0.000 A 
ENDROOT
BRANCH   1  23
ATOM     22  C   UNL     1      86.072  65.270  90.606  0.00  0.00    +0.000 C 
ATOM     23  O   UNL     1      87.038  64.624  89.791  0.00  0.00    +0.000 OA
ENDBRANCH   1  23
BRANCH   6  24
ATOM     24  O   UNL     1      89.110  63.669  87.897  0.00  0.00    +0.000 OA
ATOM     25  H   UNL     1      88.607  62.938  88.195  0.00  0.00    +0.000 HD
ENDBRANCH   6  24
BRANCH  17  26
ATOM     26  O   UNL     1      84.417  71.385  88.836  0.00  0.00    +0.000 OA
ATOM     27  H   UNL     1      84.632  71.680  89.699  0.00  0.00    +0.000 HD
ENDBRANCH  17  26
BRANCH  18  28
ATOM     28  O   UNL     1      85.385  68.888  89.402  0.00  0.00    +0.000 OA
ATOM     29  C   UNL     1      86.028  69.282  90.616  0.00  0.00    +0.000 C 
ENDBRANCH  18  28
TORSDOF 4
ENDMDL
