REMARK  Name = *****
REMARK  0 active torsions:
REMARK  status: ('A' for Active; 'I' for Inactive)
REMARK                            x       y       z     vdW  Elec       q    Type
REMARK                         _______ _______ _______ _____ _____    ______ ____
ROOT
ATOM      1  O   UNL     1       4.100   2.051  -1.480  0.00  0.00    +0.000 OA
ATOM      2  C   UNL     1       3.434   2.350  -0.513  0.00  0.00    +0.000 C 
ATOM      3  N   UNL     1       3.131   3.596  -0.013  0.00  0.00    +0.000 N 
ATOM      4  C   UNL     1       3.369   4.872  -0.651  0.00  0.00    +0.000 C 
ATOM      5  C   UNL     1       3.254   6.047   0.330  0.00  0.00    +0.000 C 
ATOM      6  C   UNL     1       2.102   5.895   1.309  0.00  0.00    +0.000 A 
ATOM      7  C   UNL     1       1.558   7.015   1.935  0.00  0.00    +0.000 A 
ATOM      8  C   UNL     1       0.587   6.799   2.886  0.00  0.00    +0.000 A 
ATOM      9  O   UNL     1      -0.037   7.791   3.579  0.00  0.00    +0.000 OA
ATOM     10  C   UNL     1      -0.914   7.026   4.420  0.00  0.00    +0.000 C 
ATOM     11  O   UNL     1      -0.794   5.606   4.221  0.00  0.00    +0.000 OA
ATOM     12  C   UNL     1       0.163   5.531   3.247  0.00  0.00    +0.000 A 
ATOM     13  C   UNL     1       0.677   4.350   2.672  0.00  0.00    +0.000 A 
ATOM     14  C   UNL     1       0.317   2.965   2.999  0.00  0.00    +0.000 A 
ATOM     15  C   UNL     1      -0.639   2.610   3.981  0.00  0.00    +0.000 A 
ATOM     16  C   UNL     1      -0.965   1.282   4.275  0.00  0.00    +0.000 A 
ATOM     17  C   UNL     1      -0.344   0.248   3.595  0.00  0.00    +0.000 A 
ATOM     18  C   UNL     1       0.603   0.543   2.620  0.00  0.00    +0.000 A 
ATOM     19  C   UNL     1       0.942   1.878   2.314  0.00  0.00    +0.000 A 
ATOM     20  C   UNL     1       1.879   2.193   1.337  0.00  0.00    +0.000 A 
ATOM     21  C   UNL     1       2.667   1.359   0.408  0.00  0.00    +0.000 C 
ATOM     22  O   UNL     1       2.714   0.151   0.345  0.00  0.00    +0.000 OA
ATOM     23  C   UNL     1       2.209   3.504   1.034  0.00  0.00    +0.000 A 
ATOM     24  C   UNL     1       1.656   4.595   1.673  0.00  0.00    +0.000 A 
ENDROOT
TORSDOF 0
