MODEL 1
REMARK VINA RESULT:      -4.9      0.000      0.000
REMARK  Name = *****
REMARK  4 active torsions:
REMARK  status: ('A' for Active; 'I' for Inactive)
REMARK    1  A    between atoms: C_1  and  C_2
REMARK    2  A    between atoms: C_2  and  C_3
REMARK    3  A    between atoms: C_6  and  C_7
REMARK    4  A    between atoms: C_9  and  C_10
REMARK                            x       y       z     vdW  Elec       q    Type
REMARK                         _______ _______ _______ _____ _____    ______ ____
ROOT
ATOM      1  C   UNL     1     101.611 129.125  84.103  0.00  0.00    +0.000 A 
ATOM      2  C   UNL     1     102.949 129.184  83.755  0.00  0.00    +0.000 A 
ATOM      3  C   UNL     1     103.392 128.276  82.805  0.00  0.00    +0.000 A 
ATOM      4  C   UNL     1     104.834 128.283  82.343  0.00  0.00    +0.000 C 
ATOM      5  C   UNL     1     105.121 129.447  81.399  0.00  0.00    +0.000 C 
ATOM      6  C   UNL     1     104.963 126.913  81.617  0.00  0.00    +0.000 C 
ATOM      7  C   UNL     1     103.532 126.467  81.202  0.00  0.00    +0.000 C 
ATOM      8  C   UNL     1     103.360 124.961  81.315  0.00  0.00    +0.000 C 
ATOM      9  C   UNL     1     102.672 127.257  82.142  0.00  0.00    +0.000 A 
ATOM     10  C   UNL     1     101.331 127.242  82.467  0.00  0.00    +0.000 A 
ATOM     11  N   UNL     1     100.326 126.445  81.991  0.00  0.00    +0.000 N 
ATOM     12  C   UNL     1      99.122 126.757  82.579  0.00  0.00    +0.000 C 
ATOM     13  O   UNL     1      98.042 126.245  82.376  0.00  0.00    +0.000 OA
ATOM     14  C   UNL     1      99.428 127.927  83.574  0.00  0.00    +0.000 C 
ATOM     15  O   UNL     1      98.561 128.445  84.259  0.00  0.00    +0.000 OA
ATOM     16  C   UNL     1     100.862 128.160  83.424  0.00  0.00    +0.000 A 
ATOM     17  H   UNL     1     100.449 125.740  81.315  0.00  0.00    +0.000 HD
ENDROOT
BRANCH   1  19
ATOM     18  C   UNL     1     100.572 131.378  84.460  0.00  0.00    +0.000 C 
ATOM     19  C   UNL     1     101.027 130.078  85.107  0.00  0.00    +0.000 C 
ENDBRANCH   1  19
TORSDOF 1
ENDMDL
