MODEL 1
REMARK VINA RESULT:      -5.9      0.000      0.000
REMARK  Name = *****
REMARK  1 active torsions:
REMARK  status: ('A' for Active; 'I' for Inactive)
REMARK    1  A    between atoms: C_6  and  N_7
REMARK                            x       y       z     vdW  Elec       q    Type
REMARK                         _______ _______ _______ _____ _____    ______ ____
ROOT
ATOM      1  O   UNL     1      90.757  67.123  86.401  0.00  0.00    +0.000 OA
ATOM      2  C   UNL     1      89.713  66.501  86.275  0.00  0.00    +0.000 C 
ATOM      3  O   UNL     1      89.519  65.276  86.827  0.00  0.00    +0.000 OA
ATOM      4  C   UNL     1      88.210  64.828  86.539  0.00  0.00    +0.000 C 
ATOM      5  C   UNL     1      87.663  65.723  85.449  0.00  0.00    +0.000 C 
ATOM      6  C   UNL     1      88.463  67.019  85.577  0.00  0.00    +0.000 C 
ATOM      7  C   UNL     1      88.222  63.344  86.068  0.00  0.00    +0.000 C 
ATOM      8  O   UNL     1      88.796  62.888  85.091  0.00  0.00    +0.000 OA
ATOM      9  N   UNL     1      87.452  62.615  86.965  0.00  0.00    +0.000 N 
ATOM     10  C   UNL     1      86.962  63.422  87.979  0.00  0.00    +0.000 A 
ATOM     11  C   UNL     1      86.178  63.026  89.043  0.00  0.00    +0.000 A 
ATOM     12  C   UNL     1      85.807  64.007  89.964  0.00  0.00    +0.000 A 
ATOM     13  C   UNL     1      86.227  65.338  89.804  0.00  0.00    +0.000 A 
ATOM     14  C   UNL     1      87.022  65.716  88.716  0.00  0.00    +0.000 A 
ATOM     15  C   UNL     1      87.379  64.743  87.796  0.00  0.00    +0.000 A 
ATOM     16  H   UNL     1      87.278  61.649  86.890  0.00  0.00    +0.000 HD
ENDROOT
BRANCH   6  17
ATOM     17  N   UNL     1      87.752  68.118  86.260  0.00  0.00    +0.000 N 
ATOM     18  C   UNL     1      88.112  68.521  87.528  0.00  0.00    +0.000 A 
ATOM     19  N   UNL     1      87.623  69.537  88.160  0.00  0.00    +0.000 NA
ATOM     20  C   UNL     1      86.673  70.321  87.500  0.00  0.00    +0.000 A 
ATOM     21  C   UNL     1      86.024  71.344  88.195  0.00  0.00    +0.000 A 
ATOM     22  C   UNL     1      85.093  72.161  87.546  0.00  0.00    +0.000 A 
ATOM     23  C   UNL     1      84.810  71.964  86.195  0.00  0.00    +0.000 A 
ATOM     24  C   UNL     1      85.455  70.948  85.491  0.00  0.00    +0.000 A 
ATOM     25  C   UNL     1      86.376  70.131  86.155  0.00  0.00    +0.000 A 
ATOM     26  C   UNL     1      87.080  69.042  85.459  0.00  0.00    +0.000 A 
ATOM     27  O   UNL     1      87.081  69.019  84.231  0.00  0.00    +0.000 OA
ENDBRANCH   6  17
TORSDOF 1
ENDMDL
