REMARK  Name = *****
REMARK  1 active torsions:
REMARK  status: ('A' for Active; 'I' for Inactive)
REMARK    1  A    between atoms: C_6  and  N_7
REMARK                            x       y       z     vdW  Elec       q    Type
REMARK                         _______ _______ _______ _____ _____    ______ ____
ROOT
ATOM      1  O   UNL     1       0.927   0.772  -0.059  0.00  0.00    +0.000 OA
ATOM      2  C   UNL     1       2.123   0.528  -0.004  0.00  0.00    +0.000 C 
ATOM      3  O   UNL     1       2.858   0.214  -1.101  0.00  0.00    +0.000 OA
ATOM      4  C   UNL     1       4.208   0.019  -0.728  0.00  0.00    +0.000 C 
ATOM      5  C   UNL     1       4.239  -0.104   0.780  0.00  0.00    +0.000 C 
ATOM      6  C   UNL     1       2.979   0.621   1.252  0.00  0.00    +0.000 C 
ATOM      7  C   UNL     1       4.787  -1.266  -1.390  0.00  0.00    +0.000 C 
ATOM      8  O   UNL     1       4.385  -2.410  -1.248  0.00  0.00    +0.000 OA
ATOM      9  N   UNL     1       5.859  -0.879  -2.183  0.00  0.00    +0.000 N 
ATOM     10  C   UNL     1       6.040   0.494  -2.151  0.00  0.00    +0.000 A 
ATOM     11  C   UNL     1       6.997   1.217  -2.833  0.00  0.00    +0.000 A 
ATOM     12  C   UNL     1       6.990   2.603  -2.668  0.00  0.00    +0.000 A 
ATOM     13  C   UNL     1       6.036   3.223  -1.843  0.00  0.00    +0.000 A 
ATOM     14  C   UNL     1       5.074   2.468  -1.162  0.00  0.00    +0.000 A 
ATOM     15  C   UNL     1       5.091   1.091  -1.317  0.00  0.00    +0.000 A 
ATOM     16  H   UNL     1       6.418  -1.501  -2.702  0.00  0.00    +0.000 HD
ENDROOT
BRANCH   6  17
ATOM     17  N   UNL     1       3.211   1.982   1.775  0.00  0.00    +0.000 N 
ATOM     18  C   UNL     1       2.244   2.959   1.674  0.00  0.00    +0.000 A 
ATOM     19  N   UNL     1       2.312   4.140   2.194  0.00  0.00    +0.000 NA
ATOM     20  C   UNL     1       3.442   4.454   2.955  0.00  0.00    +0.000 A 
ATOM     21  C   UNL     1       3.616   5.759   3.420  0.00  0.00    +0.000 A 
ATOM     22  C   UNL     1       4.722   6.088   4.209  0.00  0.00    +0.000 A 
ATOM     23  C   UNL     1       5.659   5.111   4.544  0.00  0.00    +0.000 A 
ATOM     24  C   UNL     1       5.493   3.804   4.088  0.00  0.00    +0.000 A 
ATOM     25  C   UNL     1       4.387   3.491   3.290  0.00  0.00    +0.000 A 
ATOM     26  C   UNL     1       4.168   2.128   2.779  0.00  0.00    +0.000 A 
ATOM     27  O   UNL     1       4.793   1.195   3.277  0.00  0.00    +0.000 OA
ENDBRANCH   6  17
TORSDOF 1
