REMARK  Name = *****
REMARK  6 active torsions:
REMARK  status: ('A' for Active; 'I' for Inactive)
REMARK    1  A    between atoms: C_1  and  O_2
REMARK    2  A    between atoms: O_2  and  C_3
REMARK    3  A    between atoms: C_5  and  C_6
REMARK    4  A    between atoms: C_18  and  O_19
REMARK    5  A    between atoms: O_19  and  C_20
REMARK    6  A    between atoms: C_21  and  O_22
REMARK                            x       y       z     vdW  Elec       q    Type
REMARK                         _______ _______ _______ _____ _____    ______ ____
ROOT
ATOM      1  C   UNL     1       3.001   1.148  -0.461  0.00  0.00    +0.000 A 
ATOM      2  C   UNL     1       2.291   2.321  -0.187  0.00  0.00    +0.000 A 
ATOM      3  C   UNL     1       2.966   3.513   0.123  0.00  0.00    +0.000 A 
ATOM      4  C   UNL     1       4.367   3.535   0.139  0.00  0.00    +0.000 A 
ATOM      5  C   UNL     1       5.090   2.371  -0.115  0.00  0.00    +0.000 A 
ATOM      6  C   UNL     1       4.398   1.192  -0.427  0.00  0.00    +0.000 A 
ENDROOT
BRANCH   3   7
ATOM      7  C   UNL     1       2.176   4.732   0.345  0.00  0.00    +0.000 C 
ATOM      8  C   UNL     1       2.217   5.541   1.415  0.00  0.00    +0.000 C 
ATOM      9  C   UNL     1       3.061   5.407   2.661  0.00  0.00    +0.000 C 
ATOM     10  O   UNL     1       3.896   4.567   2.930  0.00  0.00    +0.000 OA
ATOM     11  N   UNL     1       2.691   6.479   3.460  0.00  0.00    +0.000 N 
ATOM     12  C   UNL     1       1.719   7.262   2.847  0.00  0.00    +0.000 A 
ATOM     13  C   UNL     1       1.132   8.401   3.358  0.00  0.00    +0.000 A 
ATOM     14  C   UNL     1       0.174   9.038   2.566  0.00  0.00    +0.000 A 
ATOM     15  C   UNL     1      -0.168   8.528   1.300  0.00  0.00    +0.000 A 
ATOM     16  C   UNL     1       0.441   7.369   0.803  0.00  0.00    +0.000 A 
ATOM     17  C   UNL     1       1.388   6.741   1.592  0.00  0.00    +0.000 A 
ATOM     18  H   UNL     1       3.070   6.663   4.350  0.00  0.00    +0.000 HD
ENDBRANCH   3   7
BRANCH   1  20
ATOM     19  C   UNL     1       1.026  -0.173  -0.656  0.00  0.00    +0.000 C 
ATOM     20  O   UNL     1       2.436  -0.059  -0.777  0.00  0.00    +0.000 OA
ENDBRANCH   1  20
BRANCH   5  21
ATOM     21  O   UNL     1       6.459   2.260  -0.111  0.00  0.00    +0.000 OA
ATOM     22  C   UNL     1       7.171   3.335   0.495  0.00  0.00    +0.000 C 
ENDBRANCH   5  21
BRANCH   6  23
ATOM     23  O   UNL     1       5.123   0.055  -0.696  0.00  0.00    +0.000 OA
ATOM     24  H   UNL     1       4.680  -0.744  -0.907  0.00  0.00    +0.000 HD
ENDBRANCH   6  23
TORSDOF 4
