MODEL 1
REMARK VINA RESULT:      -5.0      0.000      0.000
REMARK  Name = *****
REMARK  9 active torsions:
REMARK  status: ('A' for Active; 'I' for Inactive)
REMARK    1  A    between atoms: C_1  and  C_2
REMARK    2  A    between atoms: C_2  and  C_3
REMARK    3  A    between atoms: C_11  and  C_12
REMARK    4  A    between atoms: C_12  and  C_16
REMARK    5  A    between atoms: C_13  and  O_14
REMARK    6  A    between atoms: O_14  and  C_15
REMARK    7  A    between atoms: C_16  and  O_18
REMARK    8  A    between atoms: O_18  and  C_19
REMARK    9  A    between atoms: C_27  and  O_28
REMARK                            x       y       z     vdW  Elec       q    Type
REMARK                         _______ _______ _______ _____ _____    ______ ____
ROOT
ATOM      1  C   UNL     1      89.096  65.933  85.794  0.00  0.00    +0.000 C 
ATOM      2  C   UNL     1      88.232  66.888  84.930  0.00  0.00    +0.000 C 
ATOM      3  N   UNL     1      87.524  67.939  85.632  0.00  0.00    +0.000 N 
ATOM      4  C   UNL     1      87.594  69.285  85.099  0.00  0.00    +0.000 C 
ATOM      5  C   UNL     1      86.852  70.113  86.155  0.00  0.00    +0.000 C 
ATOM      6  C   UNL     1      86.863  69.251  87.433  0.00  0.00    +0.000 C 
ATOM      7  C   UNL     1      87.744  68.050  87.065  0.00  0.00    +0.000 C 
ATOM      8  C   UNL     1      87.454  66.698  87.697  0.00  0.00    +0.000 C 
ATOM      9  C   UNL     1      88.530  65.688  87.240  0.00  0.00    +0.000 C 
ATOM     10  C   UNL     1      85.415  68.852  87.834  0.00  0.00    +0.000 C 
ATOM     11  O   UNL     1      84.565  68.289  87.163  0.00  0.00    +0.000 OA
ATOM     12  N   UNL     1      85.216  69.273  89.145  0.00  0.00    +0.000 N 
ATOM     13  C   UNL     1      86.321  69.941  89.638  0.00  0.00    +0.000 A 
ATOM     14  C   UNL     1      86.455  70.513  90.887  0.00  0.00    +0.000 A 
ATOM     15  C   UNL     1      87.661  71.156  91.172  0.00  0.00    +0.000 A 
ATOM     16  C   UNL     1      88.688  71.211  90.214  0.00  0.00    +0.000 A 
ATOM     17  C   UNL     1      88.516  70.620  88.961  0.00  0.00    +0.000 A 
ATOM     18  C   UNL     1      87.327  69.979  88.674  0.00  0.00    +0.000 A 
ATOM     19  H   UNL     1      86.594  67.561  85.452  0.00  0.00    +0.000 HD
ATOM     20  H   UNL     1      84.389  69.116  89.657  0.00  0.00    +0.000 HD
ENDROOT
BRANCH   1  22
ATOM     21  C   UNL     1      91.578  65.425  85.294  0.00  0.00    +0.000 C 
ATOM     22  C   UNL     1      90.573  66.407  85.885  0.00  0.00    +0.000 C 
ENDBRANCH   1  22
BRANCH   9  23
ATOM     23  C   UNL     1      88.124  64.247  87.499  0.00  0.00    +0.000 C 
ATOM     24  C   UNL     1      88.242  63.644  88.696  0.00  0.00    +0.000 C 
BRANCH  24  25
ATOM     25  O   UNL     1      88.780  64.259  89.797  0.00  0.00    +0.000 OA
ATOM     26  C   UNL     1      87.960  64.102  90.953  0.00  0.00    +0.000 C 
ENDBRANCH  24  25
BRANCH  23  27
ATOM     27  C   UNL     1      87.514  63.400  86.438  0.00  0.00    +0.000 C 
ATOM     28  O   UNL     1      88.156  62.725  85.645  0.00  0.00    +0.000 OA
BRANCH  27  29
ATOM     29  O   UNL     1      86.166  63.501  86.471  0.00  0.00    +0.000 OA
ATOM     30  C   UNL     1      85.603  64.244  85.391  0.00  0.00    +0.000 C 
ENDBRANCH  27  29
ENDBRANCH  23  27
ENDBRANCH   9  23
BRANCH  17  31
ATOM     31  O   UNL     1      89.496  70.667  88.018  0.00  0.00    +0.000 OA
ATOM     32  H   UNL     1      90.396  70.637  88.275  0.00  0.00    +0.000 HD
ENDBRANCH  17  31
TORSDOF 6
ENDMDL
