REMARK  Name = *****
REMARK  4 active torsions:
REMARK  status: ('A' for Active; 'I' for Inactive)
REMARK    1  A    between atoms: C_1  and  O_2
REMARK    2  A    between atoms: O_2  and  C_3
REMARK    3  A    between atoms: C_14  and  S_15
REMARK    4  A    between atoms: S_15  and  C_16
REMARK                            x       y       z     vdW  Elec       q    Type
REMARK                         _______ _______ _______ _____ _____    ______ ____
ROOT
ATOM      1  C   UNL     1       3.574   0.931  -0.910  0.00  0.00    +0.000 A 
ATOM      2  C   UNL     1       3.218   2.217  -1.359  0.00  0.00    +0.000 A 
ATOM      3  C   UNL     1       3.906   2.829  -2.416  0.00  0.00    +0.000 A 
ATOM      4  C   UNL     1       4.948   2.138  -3.012  0.00  0.00    +0.000 A 
ATOM      5  C   UNL     1       5.290   0.866  -2.557  0.00  0.00    +0.000 A 
ATOM      6  N   UNL     1       6.356   0.367  -3.289  0.00  0.00    +0.000 N 
ATOM      7  C   UNL     1       6.774   1.275  -4.260  0.00  0.00    +0.000 C 
ATOM      8  O   UNL     1       7.695   1.086  -5.038  0.00  0.00    +0.000 OA
ATOM      9  C   UNL     1       5.860   2.521  -4.145  0.00  0.00    +0.000 C 
ATOM     10  C   UNL     1       6.685   3.786  -3.920  0.00  0.00    +0.000 C 
ATOM     11  N   UNL     1       7.037   4.411  -5.218  0.00  0.00    +0.000 NA
ATOM     12  C   UNL     1       6.250   3.965  -6.137  0.00  0.00    +0.000 C 
ATOM     13  S   UNL     1       5.016   2.819  -5.707  0.00  0.00    +0.000 S 
ATOM     14  C   UNL     1       4.629   0.244  -1.519  0.00  0.00    +0.000 A 
ATOM     15  H   UNL     1       6.765  -0.516  -3.143  0.00  0.00    +0.000 HD
ENDROOT
BRANCH   1  17
ATOM     16  C   UNL     1       1.872   0.881   0.754  0.00  0.00    +0.000 C 
ATOM     17  O   UNL     1       2.971   0.247   0.111  0.00  0.00    +0.000 OA
ENDBRANCH   1  17
BRANCH  12  18
ATOM     18  S   UNL     1       6.325   4.474  -7.792  0.00  0.00    +0.000 S 
ATOM     19  C   UNL     1       7.935   5.287  -7.806  0.00  0.00    +0.000 C 
ENDBRANCH  12  18
TORSDOF 2
