MODEL 1
REMARK VINA RESULT:      -5.1      0.000      0.000
REMARK  Name = *****
REMARK  18 active torsions:
REMARK  status: ('A' for Active; 'I' for Inactive)
REMARK    1  A    between atoms: C_1  and  C_2
REMARK    2  A    between atoms: C_2  and  C_3
REMARK    3  A    between atoms: C_2  and  C_4
REMARK    4  A    between atoms: C_4  and  N_5
REMARK    5  A    between atoms: C_4  and  C_9
REMARK    6  A    between atoms: C_6  and  C_8
REMARK    7  A    between atoms: N_11  and  C_12
REMARK    8  A    between atoms: N_11  and  C_13
REMARK    9  A    between atoms: C_13  and  C_14
REMARK   10  A    between atoms: C_13  and  C_17
REMARK   11  A    between atoms: C_14  and  C_15
REMARK   12  A    between atoms: C_14  and  C_16
REMARK   13  A    between atoms: C_20  and  C_21
REMARK   14  A    between atoms: C_21  and  C_22
REMARK   15  A    between atoms: C_22  and  C_23
REMARK   16  A    between atoms: C_23  and  C_24
REMARK   17  A    between atoms: C_25  and  C_26
REMARK   18  A    between atoms: C_25  and  C_27
REMARK                            x       y       z     vdW  Elec       q    Type
REMARK                         _______ _______ _______ _____ _____    ______ ____
ROOT
ATOM      1  C   UNL     1      88.921  67.274  83.384  0.00  0.00    +0.000 C 
ATOM      2  O   UNL     1      89.589  66.792  82.472  0.00  0.00    +0.000 OA
ATOM      3  N   UNL     1      88.569  68.614  83.444  0.00  0.00    +0.000 N 
ATOM      4  C   UNL     1      88.937  69.546  82.511  0.00  0.00    +0.000 C 
ATOM      5  H   UNL     1      88.021  68.913  84.204  0.00  0.00    +0.000 HD
ENDROOT
BRANCH   1   6
ATOM      6  C   UNL     1      88.493  66.452  84.633  0.00  0.00    +0.000 C 
BRANCH   6   9
ATOM      7  C   UNL     1      89.551  64.233  85.394  0.00  0.00    +0.000 C 
ATOM      8  O   UNL     1      90.479  63.641  85.959  0.00  0.00    +0.000 OA
ATOM      9  N   UNL     1      89.611  65.614  85.183  0.00  0.00    +0.000 N 
ATOM     10  C   UNL     1      90.858  66.289  85.535  0.00  0.00    +0.000 C 
BRANCH   7  11
ATOM     11  C   UNL     1      88.286  63.422  85.007  0.00  0.00    +0.000 C 
BRANCH  11  12
ATOM     12  N   UNL     1      87.961  62.659  86.215  0.00  0.00    +0.000 N 
ATOM     13  C   UNL     1      86.952  63.020  87.070  0.00  0.00    +0.000 C 
ATOM     14  O   UNL     1      86.177  63.944  86.851  0.00  0.00    +0.000 OA
ATOM     15  C   UNL     1      86.841  62.156  88.296  0.00  0.00    +0.000 C 
ATOM     16  H   UNL     1      88.488  61.853  86.421  0.00  0.00    +0.000 HD
ENDBRANCH  11  12
BRANCH  11  18
ATOM     17  C   UNL     1      87.296  62.043  83.111  0.00  0.00    +0.000 C 
ATOM     18  C   UNL     1      88.585  62.452  83.834  0.00  0.00    +0.000 C 
ATOM     19  C   UNL     1      89.543  63.082  82.819  0.00  0.00    +0.000 C 
ENDBRANCH  11  18
ENDBRANCH   7  11
ENDBRANCH   6   9
BRANCH   6  20
ATOM     20  C   UNL     1      87.737  67.292  85.707  0.00  0.00    +0.000 C 
ATOM     21  C   UNL     1      86.209  67.297  85.570  0.00  0.00    +0.000 C 
ATOM     22  C   UNL     1      88.102  66.833  87.127  0.00  0.00    +0.000 C 
ENDBRANCH   6  20
ENDBRANCH   1   6
BRANCH   4  23
ATOM     23  C   UNL     1      88.611  70.839  82.648  0.00  0.00    +0.000 C 
BRANCH  23  24
ATOM     24  C   UNL     1      88.953  71.730  83.834  0.00  0.00    +0.000 C 
ATOM     25  C   UNL     1      90.371  71.411  84.428  0.00  0.00    +0.000 C 
ATOM     26  O   UNL     1      91.449  71.512  83.864  0.00  0.00    +0.000 OA
ATOM     27  N   UNL     1      90.198  70.993  85.741  0.00  0.00    +0.000 N 
ATOM     28  C   UNL     1      88.862  70.980  86.098  0.00  0.00    +0.000 A 
ATOM     29  C   UNL     1      88.332  70.597  87.313  0.00  0.00    +0.000 A 
ATOM     30  C   UNL     1      86.944  70.639  87.450  0.00  0.00    +0.000 A 
ATOM     31  C   UNL     1      86.128  71.052  86.382  0.00  0.00    +0.000 A 
ATOM     32  C   UNL     1      86.689  71.434  85.160  0.00  0.00    +0.000 A 
ATOM     33  C   UNL     1      88.070  71.403  85.029  0.00  0.00    +0.000 A 
ATOM     34  H   UNL     1      90.934  70.738  86.344  0.00  0.00    +0.000 HD
BRANCH  24  35
ATOM     35  C   UNL     1      88.988  73.244  83.487  0.00  0.00    +0.000 C 
BRANCH  35  36
ATOM     36  C   UNL     1      88.536  73.633  82.095  0.00  0.00    +0.000 C 
ATOM     37  C   UNL     1      87.308  74.026  81.706  0.00  0.00    +0.000 C 
ATOM     38  C   UNL     1      86.098  74.104  82.598  0.00  0.00    +0.000 C 
ATOM     39  C   UNL     1      87.045  74.424  80.276  0.00  0.00    +0.000 C 
ENDBRANCH  35  36
ENDBRANCH  24  35
ENDBRANCH  23  24
ENDBRANCH   4  23
TORSDOF 10
ENDMDL
