REMARK  Name = *****
REMARK  7 active torsions:
REMARK  status: ('A' for Active; 'I' for Inactive)
REMARK    1  A    between atoms: C_1  and  S_2
REMARK    2  A    between atoms: S_2  and  C_3
REMARK    3  A    between atoms: C_3  and  C_4
REMARK    4  A    between atoms: C_13  and  C_17
REMARK    5  A    between atoms: C_17  and  C_18
REMARK    6  A    between atoms: C_17  and  C_19
REMARK    7  A    between atoms: N_22  and  C_23
REMARK                            x       y       z     vdW  Elec       q    Type
REMARK                         _______ _______ _______ _____ _____    ______ ____
ROOT
ATOM      1  C   UNL     1       4.798  -1.219   0.864  0.00  0.00    +0.000 C 
ATOM      2  N   UNL     1       4.706  -2.593   0.322  0.00  0.00    +0.000 N 
ATOM      3  C   UNL     1       4.732  -3.723   1.145  0.00  0.00    +0.000 C 
ATOM      4  C   UNL     1       4.171  -4.894   0.783  0.00  0.00    +0.000 C 
ATOM      5  C   UNL     1       4.065  -6.188   1.527  0.00  0.00    +0.000 C 
ATOM      6  C   UNL     1       3.278  -7.073   0.613  0.00  0.00    +0.000 C 
ATOM      7  C   UNL     1       2.934  -6.483  -0.537  0.00  0.00    +0.000 C 
ATOM      8  C   UNL     1       3.453  -5.107  -0.509  0.00  0.00    +0.000 C 
ATOM      9  O   UNL     1       3.281  -4.283  -1.391  0.00  0.00    +0.000 OA
ATOM     10  C   UNL     1       5.361  -3.507   2.532  0.00  0.00    +0.000 C 
ATOM     11  N   UNL     1       4.681  -2.339   3.087  0.00  0.00    +0.000 N 
ATOM     12  C   UNL     1       4.406  -1.200   2.365  0.00  0.00    +0.000 C 
ATOM     13  O   UNL     1       3.922  -0.226   2.939  0.00  0.00    +0.000 OA
ATOM     14  H   UNL     1       4.625  -2.716  -0.651  0.00  0.00    +0.000 HD
ATOM     15  H   UNL     1       4.405  -2.369   4.031  0.00  0.00    +0.000 HD
ENDROOT
BRANCH  10  16
ATOM     16  C   UNL     1       6.908  -3.320   2.495  0.00  0.00    +0.000 C 
ATOM     17  C   UNL     1       7.444  -2.910   3.880  0.00  0.00    +0.000 C 
BRANCH  16  18
ATOM     18  C   UNL     1       7.625  -4.571   1.939  0.00  0.00    +0.000 C 
ATOM     19  C   UNL     1       7.687  -5.733   2.953  0.00  0.00    +0.000 C 
ATOM     20  O   UNL     1       6.726  -6.225   3.527  0.00  0.00    +0.000 OA
ATOM     21  N   UNL     1       9.025  -6.102   3.090  0.00  0.00    +0.000 N 
ATOM     22  C   UNL     1       9.500  -7.147   3.956  0.00  0.00    +0.000 C 
ATOM     23  C   UNL     1       9.856  -5.299   2.304  0.00  0.00    +0.000 A 
ATOM     24  C   UNL     1      11.232  -5.343   2.176  0.00  0.00    +0.000 A 
ATOM     25  C   UNL     1      11.834  -4.423   1.313  0.00  0.00    +0.000 A 
ATOM     26  C   UNL     1      11.060  -3.490   0.603  0.00  0.00    +0.000 A 
ATOM     27  C   UNL     1       9.671  -3.458   0.745  0.00  0.00    +0.000 A 
ATOM     28  C   UNL     1       9.084  -4.367   1.610  0.00  0.00    +0.000 A 
ENDBRANCH  16  18
ENDBRANCH  10  16
BRANCH   1  29
ATOM     29  C   UNL     1       3.932  -0.226   0.073  0.00  0.00    +0.000 C 
BRANCH  29  31
ATOM     30  C   UNL     1       4.365  -1.135  -2.553  0.00  0.00    +0.000 C 
ATOM     31  S   UNL     1       4.666   0.323  -1.523  0.00  0.00    +0.000 S 
ENDBRANCH  29  31
ENDBRANCH   1  29
TORSDOF 4
