MODEL 1
REMARK VINA RESULT:      -5.1      0.000      0.000
REMARK  Name = *****
REMARK  7 active torsions:
REMARK  status: ('A' for Active; 'I' for Inactive)
REMARK    1  A    between atoms: C_1  and  O_2
REMARK    2  A    between atoms: O_2  and  C_3
REMARK    3  A    between atoms: N_7  and  C_14
REMARK    4  A    between atoms: C_16  and  C_21
REMARK    5  A    between atoms: C_19  and  O_20
REMARK    6  A    between atoms: C_21  and  O_23
REMARK    7  A    between atoms: O_23  and  C_24
REMARK                            x       y       z     vdW  Elec       q    Type
REMARK                         _______ _______ _______ _____ _____    ______ ____
ROOT
ATOM      1  C   UNL     1     104.154 123.637  83.812  0.00  0.00    +0.000 C 
ATOM      2  C   UNL     1     103.587 124.731  83.291  0.00  0.00    +0.000 C 
ATOM      3  C   UNL     1     102.451 125.500  83.898  0.00  0.00    +0.000 C 
ATOM      4  O   UNL     1     101.882 125.258  84.951  0.00  0.00    +0.000 OA
ATOM      5  N   UNL     1     102.173 126.530  82.983  0.00  0.00    +0.000 N 
ATOM      6  C   UNL     1     103.089 126.487  81.898  0.00  0.00    +0.000 A 
ATOM      7  C   UNL     1     103.273 127.375  80.845  0.00  0.00    +0.000 A 
ATOM      8  C   UNL     1     104.279 127.111  79.908  0.00  0.00    +0.000 A 
ATOM      9  C   UNL     1     105.108 125.988  80.040  0.00  0.00    +0.000 A 
ATOM     10  C   UNL     1     104.955 125.121  81.121  0.00  0.00    +0.000 A 
ATOM     11  C   UNL     1     103.952 125.391  82.043  0.00  0.00    +0.000 A 
ENDROOT
BRANCH   5  12
ATOM     12  C   UNL     1     101.095 127.452  83.097  0.00  0.00    +0.000 A 
ATOM     13  C   UNL     1     101.291 128.692  83.730  0.00  0.00    +0.000 A 
ATOM     14  C   UNL     1     100.248 129.623  83.880  0.00  0.00    +0.000 A 
ATOM     15  C   UNL     1      98.978 129.324  83.383  0.00  0.00    +0.000 A 
ATOM     16  C   UNL     1      98.768 128.116  82.723  0.00  0.00    +0.000 A 
ATOM     17  C   UNL     1      99.816 127.205  82.561  0.00  0.00    +0.000 A 
BRANCH  17  18
ATOM     18  O   UNL     1      99.466 126.058  81.902  0.00  0.00    +0.000 OA
ATOM     19  H   UNL     1      99.358 126.068  80.972  0.00  0.00    +0.000 HD
ENDBRANCH  17  18
BRANCH  14  20
ATOM     20  C   UNL     1     100.550 130.905  84.574  0.00  0.00    +0.000 C 
ATOM     21  O   UNL     1     101.621 131.483  84.476  0.00  0.00    +0.000 OA
BRANCH  20  22
ATOM     22  O   UNL     1      99.486 131.320  85.305  0.00  0.00    +0.000 OA
ATOM     23  C   UNL     1      99.578 131.004  86.695  0.00  0.00    +0.000 C 
ENDBRANCH  20  22
ENDBRANCH  14  20
ENDBRANCH   5  12
BRANCH   1  25
ATOM     24  C   UNL     1     104.723 123.340  86.044  0.00  0.00    +0.000 C 
ATOM     25  O   UNL     1     103.781 123.083  85.007  0.00  0.00    +0.000 OA
ENDBRANCH   1  25
TORSDOF 5
ENDMDL
