MODEL 1
REMARK VINA RESULT:      -4.3      0.000      0.000
REMARK  Name = *****
REMARK  4 active torsions:
REMARK  status: ('A' for Active; 'I' for Inactive)
REMARK    1  A    between atoms: C_1  and  O_2
REMARK    2  A    between atoms: O_2  and  C_3
REMARK    3  A    between atoms: C_3  and  C_5
REMARK    4  A    between atoms: C_5  and  C_6
REMARK                            x       y       z     vdW  Elec       q    Type
REMARK                         _______ _______ _______ _____ _____    ______ ____
ROOT
ATOM      1  C   UNL     1      88.642  64.700  85.730  0.00  0.00    +0.000 C 
ATOM      2 CL   UNL     1      87.744  65.509  84.415  0.00  0.00    +0.000 Cl
ATOM      3  C   UNL     1      88.615  63.175  85.403  0.00  0.00    +0.000 C 
ATOM      4  O   UNL     1      89.121  62.607  84.449  0.00  0.00    +0.000 OA
ATOM      5  N   UNL     1      87.927  62.537  86.425  0.00  0.00    +0.000 N 
ATOM      6  C   UNL     1      87.470  63.439  87.376  0.00  0.00    +0.000 A 
ATOM      7  C   UNL     1      86.729  63.166  88.515  0.00  0.00    +0.000 A 
ATOM      8 CL   UNL     1      86.283  61.559  88.929  0.00  0.00    +0.000 Cl
ATOM      9  C   UNL     1      86.349  64.232  89.327  0.00  0.00    +0.000 A 
ATOM     10  C   UNL     1      86.709  65.540  88.971  0.00  0.00    +0.000 A 
ATOM     11 CL   UNL     1      86.216  66.849  89.975  0.00  0.00    +0.000 Cl
ATOM     12  C   UNL     1      87.459  65.804  87.818  0.00  0.00    +0.000 A 
ATOM     13  C   UNL     1      87.853  64.737  87.022  0.00  0.00    +0.000 A 
ATOM     14  H   UNL     1      87.781  61.565  86.471  0.00  0.00    +0.000 HD
ENDROOT
BRANCH   1  15
ATOM     15  C   UNL     1      90.112  65.108  85.804  0.00  0.00    +0.000 C 
BRANCH  15  16
ATOM     16  C   UNL     1      90.397  66.531  85.412  0.00  0.00    +0.000 C 
ATOM     17  O   UNL     1      90.502  66.947  84.269  0.00  0.00    +0.000 OA
BRANCH  16  19
ATOM     18  C   UNL     1      89.691  68.525  86.426  0.00  0.00    +0.000 C 
ATOM     19  O   UNL     1      90.444  67.314  86.528  0.00  0.00    +0.000 OA
ENDBRANCH  16  19
ENDBRANCH  15  16
ENDBRANCH   1  15
TORSDOF 3
ENDMDL
