MODEL 1
REMARK VINA RESULT:      -5.0      0.000      0.000
REMARK  Name = *****
REMARK  9 active torsions:
REMARK  status: ('A' for Active; 'I' for Inactive)
REMARK    1  A    between atoms: C_1  and  C_2
REMARK    2  A    between atoms: C_2  and  C_3
REMARK    3  A    between atoms: C_11  and  C_12
REMARK    4  A    between atoms: C_12  and  C_16
REMARK    5  A    between atoms: C_13  and  O_14
REMARK    6  A    between atoms: O_14  and  C_15
REMARK    7  A    between atoms: C_16  and  O_18
REMARK    8  A    between atoms: O_18  and  C_19
REMARK    9  A    between atoms: C_27  and  O_28
REMARK                            x       y       z     vdW  Elec       q    Type
REMARK                         _______ _______ _______ _____ _____    ______ ____
ROOT
ATOM      1  C   UNL     1      89.082  65.964  85.807  0.00  0.00    +0.000 C 
ATOM      2  C   UNL     1      88.220  66.929  84.951  0.00  0.00    +0.000 C 
ATOM      3  N   UNL     1      87.507  67.971  85.663  0.00  0.00    +0.000 N 
ATOM      4  C   UNL     1      87.571  69.320  85.138  0.00  0.00    +0.000 C 
ATOM      5  C   UNL     1      86.828  70.139  86.201  0.00  0.00    +0.000 C 
ATOM      6  C   UNL     1      86.855  69.273  87.477  0.00  0.00    +0.000 C 
ATOM      7  C   UNL     1      87.734  68.074  87.096  0.00  0.00    +0.000 C 
ATOM      8  C   UNL     1      87.444  66.718  87.721  0.00  0.00    +0.000 C 
ATOM      9  C   UNL     1      88.515  65.708  87.250  0.00  0.00    +0.000 C 
ATOM     10  C   UNL     1      85.413  68.872  87.896  0.00  0.00    +0.000 C 
ATOM     11  O   UNL     1      84.555  68.311  87.233  0.00  0.00    +0.000 OA
ATOM     12  N   UNL     1      85.229  69.289  89.210  0.00  0.00    +0.000 N 
ATOM     13  C   UNL     1      86.341  69.956  89.691  0.00  0.00    +0.000 A 
ATOM     14  C   UNL     1      86.490  70.527  90.938  0.00  0.00    +0.000 A 
ATOM     15  C   UNL     1      87.698  71.171  91.209  0.00  0.00    +0.000 A 
ATOM     16  C   UNL     1      88.713  71.231  90.238  0.00  0.00    +0.000 A 
ATOM     17  C   UNL     1      88.526  70.643  88.986  0.00  0.00    +0.000 A 
ATOM     18  C   UNL     1      87.334  69.999  88.714  0.00  0.00    +0.000 A 
ATOM     19  H   UNL     1      86.577  67.589  85.486  0.00  0.00    +0.000 HD
ATOM     20  H   UNL     1      84.411  69.129  89.733  0.00  0.00    +0.000 HD
ENDROOT
BRANCH   1  22
ATOM     21  C   UNL     1      91.560  65.452  85.304  0.00  0.00    +0.000 C 
ATOM     22  C   UNL     1      90.559  66.433  85.902  0.00  0.00    +0.000 C 
ENDBRANCH   1  22
BRANCH   9  23
ATOM     23  C   UNL     1      88.101  64.265  87.495  0.00  0.00    +0.000 C 
ATOM     24  C   UNL     1      88.223  63.647  88.683  0.00  0.00    +0.000 C 
BRANCH  24  25
ATOM     25  O   UNL     1      88.772  64.246  89.789  0.00  0.00    +0.000 OA
ATOM     26  C   UNL     1      87.944  64.104  90.941  0.00  0.00    +0.000 C 
ENDBRANCH  24  25
BRANCH  23  27
ATOM     27  C   UNL     1      87.481  63.435  86.427  0.00  0.00    +0.000 C 
ATOM     28  O   UNL     1      88.111  62.716  85.664  0.00  0.00    +0.000 OA
BRANCH  27  29
ATOM     29  O   UNL     1      86.139  63.607  86.415  0.00  0.00    +0.000 OA
ATOM     30  C   UNL     1      85.636  64.242  85.241  0.00  0.00    +0.000 C 
ENDBRANCH  27  29
ENDBRANCH  23  27
ENDBRANCH   9  23
BRANCH  17  31
ATOM     31  O   UNL     1      89.492  70.693  88.030  0.00  0.00    +0.000 OA
ATOM     32  H   UNL     1      89.468  70.096  87.308  0.00  0.00    +0.000 HD
ENDBRANCH  17  31
TORSDOF 6
ENDMDL
