MODEL 1
REMARK VINA RESULT:      -5.4      0.000      0.000
REMARK  Name = *****
REMARK  5 active torsions:
REMARK  status: ('A' for Active; 'I' for Inactive)
REMARK    1  A    between atoms: C_1  and  O_2
REMARK    2  A    between atoms: O_2  and  C_3
REMARK    3  A    between atoms: C_11  and  C_12
REMARK    4  A    between atoms: C_13  and  C_14
REMARK    5  A    between atoms: C_13  and  C_15
REMARK                            x       y       z     vdW  Elec       q    Type
REMARK                         _______ _______ _______ _____ _____    ______ ____
ROOT
ATOM      1  C   UNL     1      91.089  64.674  83.755  0.00  0.00    +0.000 C 
ATOM      2  C   UNL     1      91.511  63.434  84.558  0.00  0.00    +0.000 C 
ATOM      3  C   UNL     1      90.462  63.354  85.671  0.00  0.00    +0.000 C 
ATOM      4  N   UNL     1      90.010  64.717  85.841  0.00  0.00    +0.000 N 
ATOM      5  CA  UNL     1      90.640  65.611  84.882  0.00  0.00    +0.000 C 
ATOM      6  C   UNL     1      89.779  66.799  84.455  0.00  0.00    +0.000 C 
ATOM      7  O   UNL     1      89.970  67.413  83.407  0.00  0.00    +0.000 OA
ATOM      8  N   UNL     1      88.966  67.264  85.482  0.00  0.00    +0.000 N 
ATOM      9  C   UNL     1      88.127  68.482  85.419  0.00  0.00    +0.000 C 
ATOM     10  C   UNL     1      87.305  68.429  86.745  0.00  0.00    +0.000 C 
ATOM     11  C   UNL     1      87.719  67.115  87.355  0.00  0.00    +0.000 C 
ATOM     12  CA  UNL     1      88.648  66.518  86.601  0.00  0.00    +0.000 C 
ATOM     13  C   UNL     1      89.185  65.146  86.843  0.00  0.00    +0.000 C 
ATOM     14  O   UNL     1      88.839  64.464  87.800  0.00  0.00    +0.000 OA
ATOM     15  C   UNL     1      85.794  68.426  86.392  0.00  0.00    +0.000 C 
ATOM     16  O   UNL     1      85.200  67.659  85.652  0.00  0.00    +0.000 OA
ATOM     17  N   UNL     1      85.201  69.474  87.089  0.00  0.00    +0.000 N 
ATOM     18  C   UNL     1      86.124  70.150  87.870  0.00  0.00    +0.000 A 
ATOM     19  C   UNL     1      85.881  71.221  88.703  0.00  0.00    +0.000 A 
ATOM     20  C   UNL     1      86.962  71.730  89.424  0.00  0.00    +0.000 A 
ATOM     21  C   UNL     1      88.241  71.157  89.301  0.00  0.00    +0.000 A 
ATOM     22  C   UNL     1      88.460  70.070  88.451  0.00  0.00    +0.000 A 
ATOM     23  C   UNL     1      87.389  69.578  87.724  0.00  0.00    +0.000 A 
ATOM     24  H   UNL     1      84.246  69.706  87.035  0.00  0.00    +0.000 HD
ENDROOT
BRANCH   9  25
ATOM     25  C   UNL     1      89.023  69.691  85.257  0.00  0.00    +0.000 C 
ATOM     26  C   UNL     1      88.676  70.890  84.746  0.00  0.00    +0.000 C 
ATOM     27  C   UNL     1      87.296  71.254  84.270  0.00  0.00    +0.000 C 
ATOM     28  C   UNL     1      89.689  71.996  84.617  0.00  0.00    +0.000 C 
ENDBRANCH   9  25
BRANCH   1  30
ATOM     29  C   UNL     1      90.313  64.372  81.529  0.00  0.00    +0.000 C 
ATOM     30  O   UNL     1      89.985  64.325  82.911  0.00  0.00    +0.000 OA
ENDBRANCH   1  30
TORSDOF 2
ENDMDL
