MODEL 1
REMARK VINA RESULT:      -5.0      0.000      0.000
REMARK  Name = *****
REMARK  18 active torsions:
REMARK  status: ('A' for Active; 'I' for Inactive)
REMARK    1  A    between atoms: C_1  and  C_2
REMARK    2  A    between atoms: C_2  and  C_3
REMARK    3  A    between atoms: C_2  and  C_4
REMARK    4  A    between atoms: C_4  and  N_5
REMARK    5  A    between atoms: C_4  and  C_9
REMARK    6  A    between atoms: C_6  and  C_8
REMARK    7  A    between atoms: N_11  and  C_12
REMARK    8  A    between atoms: N_11  and  C_13
REMARK    9  A    between atoms: C_13  and  C_14
REMARK   10  A    between atoms: C_13  and  C_17
REMARK   11  A    between atoms: C_14  and  C_15
REMARK   12  A    between atoms: C_14  and  C_16
REMARK   13  A    between atoms: C_20  and  C_21
REMARK   14  A    between atoms: C_21  and  C_22
REMARK   15  A    between atoms: C_22  and  C_23
REMARK   16  A    between atoms: C_23  and  C_24
REMARK   17  A    between atoms: C_25  and  C_26
REMARK   18  A    between atoms: C_25  and  C_27
REMARK                            x       y       z     vdW  Elec       q    Type
REMARK                         _______ _______ _______ _____ _____    ______ ____
ROOT
ATOM      1  C   UNL     1      88.925  67.242  83.395  0.00  0.00    +0.000 C 
ATOM      2  O   UNL     1      89.573  66.756  82.470  0.00  0.00    +0.000 OA
ATOM      3  N   UNL     1      88.570  68.581  83.455  0.00  0.00    +0.000 N 
ATOM      4  C   UNL     1      88.905  69.509  82.505  0.00  0.00    +0.000 C 
ATOM      5  H   UNL     1      88.044  68.884  84.230  0.00  0.00    +0.000 HD
ENDROOT
BRANCH   1   6
ATOM      6  C   UNL     1      88.539  66.432  84.665  0.00  0.00    +0.000 C 
BRANCH   6   9
ATOM      7  C   UNL     1      89.688  64.227  85.341  0.00  0.00    +0.000 C 
ATOM      8  O   UNL     1      90.633  63.654  85.900  0.00  0.00    +0.000 OA
ATOM      9  N   UNL     1      89.685  65.618  85.198  0.00  0.00    +0.000 N 
ATOM     10  C   UNL     1      90.888  66.334  85.617  0.00  0.00    +0.000 C 
BRANCH   7  11
ATOM     11  C   UNL     1      88.475  63.374  84.887  0.00  0.00    +0.000 C 
BRANCH  11  12
ATOM     12  N   UNL     1      88.073  62.647  86.093  0.00  0.00    +0.000 N 
ATOM     13  C   UNL     1      87.016  63.037  86.874  0.00  0.00    +0.000 C 
ATOM     14  O   UNL     1      86.256  63.952  86.577  0.00  0.00    +0.000 OA
ATOM     15  C   UNL     1      86.830  62.216  88.121  0.00  0.00    +0.000 C 
ATOM     16  H   UNL     1      88.580  61.845  86.353  0.00  0.00    +0.000 HD
ENDBRANCH  11  12
BRANCH  11  18
ATOM     17  C   UNL     1      87.656  61.692  83.161  0.00  0.00    +0.000 C 
ATOM     18  C   UNL     1      88.886  62.371  83.777  0.00  0.00    +0.000 C 
ATOM     19  C   UNL     1      89.681  63.062  82.665  0.00  0.00    +0.000 C 
ENDBRANCH  11  18
ENDBRANCH   7  11
ENDBRANCH   6   9
BRANCH   6  20
ATOM     20  C   UNL     1      87.800  67.273  85.750  0.00  0.00    +0.000 C 
ATOM     21  C   UNL     1      86.276  67.347  85.589  0.00  0.00    +0.000 C 
ATOM     22  C   UNL     1      88.120  66.762  87.162  0.00  0.00    +0.000 C 
ENDBRANCH   6  20
ENDBRANCH   1   6
BRANCH   4  23
ATOM     23  C   UNL     1      88.576  70.801  82.648  0.00  0.00    +0.000 C 
BRANCH  23  24
ATOM     24  C   UNL     1      88.934  71.704  83.820  0.00  0.00    +0.000 C 
ATOM     25  C   UNL     1      90.364  71.409  84.397  0.00  0.00    +0.000 C 
ATOM     26  O   UNL     1      91.434  71.520  83.817  0.00  0.00    +0.000 OA
ATOM     27  N   UNL     1      90.216  70.999  85.715  0.00  0.00    +0.000 N 
ATOM     28  C   UNL     1      88.885  70.975  86.092  0.00  0.00    +0.000 A 
ATOM     29  C   UNL     1      88.379  70.599  87.319  0.00  0.00    +0.000 A 
ATOM     30  C   UNL     1      86.993  70.629  87.479  0.00  0.00    +0.000 A 
ATOM     31  C   UNL     1      86.157  71.024  86.420  0.00  0.00    +0.000 A 
ATOM     32  C   UNL     1      86.695  71.399  85.185  0.00  0.00    +0.000 A 
ATOM     33  C   UNL     1      88.072  71.380  85.032  0.00  0.00    +0.000 A 
ATOM     34  H   UNL     1      90.964  70.757  86.307  0.00  0.00    +0.000 HD
BRANCH  24  35
ATOM     35  C   UNL     1      88.943  73.216  83.457  0.00  0.00    +0.000 C 
BRANCH  35  36
ATOM     36  C   UNL     1      88.462  73.584  82.070  0.00  0.00    +0.000 C 
ATOM     37  C   UNL     1      87.222  73.958  81.698  0.00  0.00    +0.000 C 
ATOM     38  C   UNL     1      86.028  74.031  82.610  0.00  0.00    +0.000 C 
ATOM     39  C   UNL     1      86.930  74.337  80.270  0.00  0.00    +0.000 C 
ENDBRANCH  35  36
ENDBRANCH  24  35
ENDBRANCH  23  24
ENDBRANCH   4  23
TORSDOF 10
ENDMDL
