MODEL 1
REMARK VINA RESULT:      -5.3      0.000      0.000
REMARK  Name = *****
REMARK  3 active torsions:
REMARK  status: ('A' for Active; 'I' for Inactive)
REMARK    1  A    between atoms: O_1  and  C_2
REMARK    2  A    between atoms: C_2  and  C_3
REMARK    3  A    between atoms: C_3  and  C_13
REMARK                            x       y       z     vdW  Elec       q    Type
REMARK                         _______ _______ _______ _____ _____    ______ ____
ROOT
ATOM      1  C   UNL     1      87.712  64.390  87.978  0.00  0.00    +0.000 C 
ATOM      2  N   UNL     1      87.127  65.763  88.154  0.00  0.00    +0.000 N 
ATOM      3  C   UNL     1      88.019  66.667  87.574  0.00  0.00    +0.000 A 
ATOM      4  C   UNL     1      87.912  68.044  87.597  0.00  0.00    +0.000 A 
ATOM      5  C   UNL     1      88.844  68.804  86.875  0.00  0.00    +0.000 A 
ATOM      6  C   UNL     1      89.856  68.181  86.123  0.00  0.00    +0.000 A 
ATOM      7  C   UNL     1      89.947  66.791  86.080  0.00  0.00    +0.000 A 
ATOM      8  C   UNL     1      89.011  66.076  86.803  0.00  0.00    +0.000 A 
ATOM      9  C   UNL     1      88.869  64.640  86.986  0.00  0.00    +0.000 C 
ATOM     10  O   UNL     1      89.635  63.834  86.487  0.00  0.00    +0.000 OA
ATOM     11  H   UNL     1      86.275  65.983  88.596  0.00  0.00    +0.000 HD
ENDROOT
BRANCH   1  12
ATOM     12  C   UNL     1      86.640  63.440  87.402  0.00  0.00    +0.000 C 
ATOM     13  C   UNL     1      85.540  64.224  86.633  0.00  0.00    +0.000 C 
ATOM     14  O   UNL     1      85.666  64.955  85.663  0.00  0.00    +0.000 OA
ATOM     15  N   UNL     1      84.317  63.913  87.210  0.00  0.00    +0.000 N 
ATOM     16  C   UNL     1      84.454  62.991  88.229  0.00  0.00    +0.000 A 
ATOM     17  C   UNL     1      83.440  62.436  88.982  0.00  0.00    +0.000 A 
ATOM     18  C   UNL     1      83.798  61.480  89.931  0.00  0.00    +0.000 A 
ATOM     19  C   UNL     1      85.141  61.100  90.088  0.00  0.00    +0.000 A 
ATOM     20  C   UNL     1      86.150  61.679  89.307  0.00  0.00    +0.000 A 
ATOM     21  C   UNL     1      85.798  62.650  88.386  0.00  0.00    +0.000 A 
ATOM     22  H   UNL     1      83.457  64.301  86.929  0.00  0.00    +0.000 HD
ENDBRANCH   1  12
BRANCH   1  23
ATOM     23  C   UNL     1      88.348  63.925  89.310  0.00  0.00    +0.000 C 
BRANCH  23  24
ATOM     24  O   UNL     1      89.604  63.282  89.097  0.00  0.00    +0.000 OA
ATOM     25  H   UNL     1      89.708  62.558  89.733  0.00  0.00    +0.000 HD
ENDBRANCH  23  24
ENDBRANCH   1  23
TORSDOF 3
ENDMDL
