MODEL 1
REMARK VINA RESULT:      -3.9      0.000      0.000
REMARK  Name = *****
REMARK  6 active torsions:
REMARK  status: ('A' for Active; 'I' for Inactive)
REMARK    1  A    between atoms: C_8  and  C_9
REMARK    2  A    between atoms: C_9  and  C_10
REMARK    3  A    between atoms: C_10  and  C_11
REMARK    4  A    between atoms: C_11  and  C_12
REMARK    5  A    between atoms: C_12  and  C_13
REMARK    6  A    between atoms: C_13  and  C_14
REMARK                            x       y       z     vdW  Elec       q    Type
REMARK                         _______ _______ _______ _____ _____    ______ ____
ROOT
ATOM      1  O   UNL     1      86.724  65.088  87.010  0.00  0.00    +0.000 OA
ATOM      2  C   UNL     1      87.247  66.173  87.121  0.00  0.00    +0.000 C 
ATOM      3  N   UNL     1      88.335  66.667  86.433  0.00  0.00    +0.000 N 
ATOM      4  C   UNL     1      88.640  67.961  86.844  0.00  0.00    +0.000 A 
ATOM      5  C   UNL     1      89.666  68.750  86.371  0.00  0.00    +0.000 A 
ATOM      6  C   UNL     1      89.803  70.025  86.927  0.00  0.00    +0.000 A 
ATOM      7  C   UNL     1      88.922  70.481  87.928  0.00  0.00    +0.000 A 
ATOM      8  C   UNL     1      87.873  69.675  88.402  0.00  0.00    +0.000 A 
ATOM      9  C   UNL     1      87.766  68.411  87.837  0.00  0.00    +0.000 A 
ATOM     10  C   UNL     1      86.822  67.310  88.088  0.00  0.00    +0.000 C 
ATOM     11  O   UNL     1      85.906  67.280  88.877  0.00  0.00    +0.000 OA
ATOM     12  H   UNL     1      88.831  66.171  85.742  0.00  0.00    +0.000 HD
ENDROOT
BRANCH   8  13
ATOM     13  C   UNL     1      86.951  70.166  89.484  0.00  0.00    +0.000 C 
BRANCH  13  14
ATOM     14  C   UNL     1      86.575  71.637  89.286  0.00  0.00    +0.000 C 
BRANCH  14  15
ATOM     15  C   UNL     1      85.120  71.781  88.837  0.00  0.00    +0.000 C 
BRANCH  15  16
ATOM     16  C   UNL     1      85.029  72.110  87.346  0.00  0.00    +0.000 C 
BRANCH  16  17
ATOM     17  C   UNL     1      84.836  70.843  86.510  0.00  0.00    +0.000 C 
BRANCH  17  18
ATOM     18  C   UNL     1      85.925  70.685  85.479  0.00  0.00    +0.000 A 
ATOM     19  C   UNL     1      86.817  71.736  85.219  0.00  0.00    +0.000 A 
ATOM     20  C   UNL     1      87.813  71.595  84.253  0.00  0.00    +0.000 A 
ATOM     21  C   UNL     1      87.927  70.407  83.533  0.00  0.00    +0.000 A 
ATOM     22  C   UNL     1      87.041  69.359  83.779  0.00  0.00    +0.000 A 
ATOM     23  C   UNL     1      86.044  69.497  84.744  0.00  0.00    +0.000 A 
ENDBRANCH  17  18
ENDBRANCH  16  17
ENDBRANCH  15  16
ENDBRANCH  14  15
ENDBRANCH  13  14
ENDBRANCH   8  13
TORSDOF 6
ENDMDL
