MODEL 1
REMARK VINA RESULT:      -4.9      0.000      0.000
REMARK  Name = *****
REMARK  9 active torsions:
REMARK  status: ('A' for Active; 'I' for Inactive)
REMARK    1  A    between atoms: C_1  and  C_2
REMARK    2  A    between atoms: C_2  and  C_3
REMARK    3  A    between atoms: C_11  and  C_12
REMARK    4  A    between atoms: C_12  and  C_16
REMARK    5  A    between atoms: C_13  and  O_14
REMARK    6  A    between atoms: O_14  and  C_15
REMARK    7  A    between atoms: C_16  and  O_18
REMARK    8  A    between atoms: O_18  and  C_19
REMARK    9  A    between atoms: C_27  and  O_28
REMARK                            x       y       z     vdW  Elec       q    Type
REMARK                         _______ _______ _______ _____ _____    ______ ____
ROOT
ATOM      1  C   UNL     1     105.264 125.588  80.336  0.00  0.00    +0.000 C 
ATOM      2  C   UNL     1     103.857 124.974  80.495  0.00  0.00    +0.000 C 
ATOM      3  N   UNL     1     103.089 125.435  81.638  0.00  0.00    +0.000 N 
ATOM      4  C   UNL     1     103.424 124.843  82.925  0.00  0.00    +0.000 C 
ATOM      5  C   UNL     1     102.498 125.604  83.868  0.00  0.00    +0.000 C 
ATOM      6  C   UNL     1     102.408 127.015  83.262  0.00  0.00    +0.000 C 
ATOM      7  C   UNL     1     103.045 126.892  81.849  0.00  0.00    +0.000 C 
ATOM      8  C   UNL     1     104.428 127.548  81.690  0.00  0.00    +0.000 C 
ATOM      9  C   UNL     1     105.124 127.135  80.378  0.00  0.00    +0.000 C 
ATOM     10  C   UNL     1     103.109 128.033  84.207  0.00  0.00    +0.000 C 
ATOM     11  O   UNL     1     104.239 127.974  84.668  0.00  0.00    +0.000 OA
ATOM     12  N   UNL     1     102.204 129.045  84.493  0.00  0.00    +0.000 N 
ATOM     13  C   UNL     1     100.964 128.783  83.942  0.00  0.00    +0.000 A 
ATOM     14  C   UNL     1      99.824 129.549  84.077  0.00  0.00    +0.000 A 
ATOM     15  C   UNL     1      98.664 129.090  83.452  0.00  0.00    +0.000 A 
ATOM     16  C   UNL     1      98.674 127.890  82.720  0.00  0.00    +0.000 A 
ATOM     17  C   UNL     1      99.848 127.140  82.607  0.00  0.00    +0.000 A 
ATOM     18  C   UNL     1     101.000 127.589  83.223  0.00  0.00    +0.000 A 
ATOM     19  H   UNL     1     102.173 125.100  81.337  0.00  0.00    +0.000 HD
ATOM     20  H   UNL     1     102.419 129.846  85.022  0.00  0.00    +0.000 HD
ENDROOT
BRANCH   1  22
ATOM     21  C   UNL     1     106.889 123.919  79.230  0.00  0.00    +0.000 C 
ATOM     22  C   UNL     1     105.890 125.050  79.027  0.00  0.00    +0.000 C 
ENDBRANCH   1  22
BRANCH   9  23
ATOM     23  C   UNL     1     106.393 127.941  80.164  0.00  0.00    +0.000 C 
ATOM     24  C   UNL     1     106.396 129.194  79.676  0.00  0.00    +0.000 C 
BRANCH  24  25
ATOM     25  O   UNL     1     105.257 129.846  79.278  0.00  0.00    +0.000 OA
ATOM     26  C   UNL     1     105.530 130.932  78.397  0.00  0.00    +0.000 C 
ENDBRANCH  24  25
BRANCH  23  27
ATOM     27  C   UNL     1     107.739 127.427  80.543  0.00  0.00    +0.000 C 
ATOM     28  O   UNL     1     108.600 127.103  79.736  0.00  0.00    +0.000 OA
BRANCH  27  29
ATOM     29  O   UNL     1     107.860 127.346  81.888  0.00  0.00    +0.000 OA
ATOM     30  C   UNL     1     108.375 126.101  82.357  0.00  0.00    +0.000 C 
ENDBRANCH  27  29
ENDBRANCH  23  27
ENDBRANCH   9  23
BRANCH  17  31
ATOM     31  O   UNL     1      99.869 125.978  81.904  0.00  0.00    +0.000 OA
ATOM     32  H   UNL     1     100.680 125.648  81.570  0.00  0.00    +0.000 HD
ENDBRANCH  17  31
TORSDOF 6
ENDMDL
