MODEL 1
REMARK VINA RESULT:      -4.6      0.000      0.000
REMARK  Name = *****
REMARK  3 active torsions:
REMARK  status: ('A' for Active; 'I' for Inactive)
REMARK    1  A    between atoms: C_1  and  O_2
REMARK    2  A    between atoms: O_2  and  C_3
REMARK    3  A    between atoms: C_3  and  C_14
REMARK                            x       y       z     vdW  Elec       q    Type
REMARK                         _______ _______ _______ _____ _____    ______ ____
ROOT
ATOM      1  C   UNL     1     101.612 125.978  84.211  0.00  0.00    +0.000 C 
ATOM      2  C   UNL     1     102.705 125.610  83.517  0.00  0.00    +0.000 C 
ATOM      3  C   UNL     1     103.603 124.481  83.973  0.00  0.00    +0.000 C 
ATOM      4  O   UNL     1     103.520 123.785  84.967  0.00  0.00    +0.000 OA
ATOM      5  N   UNL     1     104.613 124.419  83.026  0.00  0.00    +0.000 N 
ATOM      6  C   UNL     1     104.441 125.374  82.034  0.00  0.00    +0.000 A 
ATOM      7  C   UNL     1     105.264 125.571  80.942  0.00  0.00    +0.000 A 
ATOM      8  C   UNL     1     104.907 126.575  80.042  0.00  0.00    +0.000 A 
ATOM      9  C   UNL     1     103.747 127.340  80.250  0.00  0.00    +0.000 A 
ATOM     10  C   UNL     1     102.929 127.120  81.366  0.00  0.00    +0.000 A 
ATOM     11  C   UNL     1     103.290 126.136  82.271  0.00  0.00    +0.000 A 
ATOM     12  H   UNL     1     105.358 123.776  83.054  0.00  0.00    +0.000 HD
ENDROOT
BRANCH   1  13
ATOM     13  C   UNL     1     100.711 127.072  83.812  0.00  0.00    +0.000 A 
ATOM     14  C   UNL     1     101.009 128.391  84.173  0.00  0.00    +0.000 A 
ATOM     15  C   UNL     1     100.163 129.434  83.792  0.00  0.00    +0.000 A 
ATOM     16  C   UNL     1      99.018 129.165  83.042  0.00  0.00    +0.000 A 
ATOM     17  C   UNL     1      98.719 127.855  82.669  0.00  0.00    +0.000 A 
ATOM     18  C   UNL     1      99.564 126.811  83.049  0.00  0.00    +0.000 A 
ENDBRANCH   1  13
BRANCH   1  20
ATOM     19  C   UNL     1     101.303 125.961  86.517  0.00  0.00    +0.000 C 
ATOM     20  O   UNL     1     101.149 125.247  85.292  0.00  0.00    +0.000 OA
ENDBRANCH   1  20
TORSDOF 2
ENDMDL
