MODEL 1
REMARK VINA RESULT:      -5.3      0.000      0.000
REMARK  Name = *****
REMARK  11 active torsions:
REMARK  status: ('A' for Active; 'I' for Inactive)
REMARK    1  A    between atoms: C_1  and  O_2
REMARK    2  A    between atoms: O_2  and  C_3
REMARK    3  A    between atoms: C_4  and  O_5
REMARK    4  A    between atoms: C_6  and  C_7
REMARK    5  A    between atoms: C_7  and  C_8
REMARK    6  A    between atoms: C_8  and  C_9
REMARK    7  A    between atoms: C_9  and  C_10
REMARK    8  A    between atoms: C_10  and  C_11
REMARK    9  A    between atoms: C_11  and  C_12
REMARK   10  A    between atoms: C_25  and  O_26
REMARK   11  A    between atoms: O_26  and  C_27
REMARK                            x       y       z     vdW  Elec       q    Type
REMARK                         _______ _______ _______ _____ _____    ______ ____
ROOT
ATOM      1  C   UNL     1      87.229  65.602  87.871  0.00  0.00    +0.000 A 
ATOM      2  C   UNL     1      87.323  66.697  86.978  0.00  0.00    +0.000 A 
ATOM      3  C   UNL     1      88.303  66.769  85.979  0.00  0.00    +0.000 A 
ATOM      4  C   UNL     1      89.176  65.690  85.920  0.00  0.00    +0.000 A 
ATOM      5  C   UNL     1      90.291  65.393  85.005  0.00  0.00    +0.000 C 
ATOM      6  O   UNL     1      90.681  66.051  84.068  0.00  0.00    +0.000 OA
ATOM      7  C   UNL     1      90.873  64.035  85.482  0.00  0.00    +0.000 C 
ATOM      8  O   UNL     1      91.808  63.442  84.993  0.00  0.00    +0.000 OA
ATOM      9  N   UNL     1      90.102  63.672  86.561  0.00  0.00    +0.000 N 
ATOM     10  C   UNL     1      89.112  64.620  86.819  0.00  0.00    +0.000 A 
ATOM     11  C   UNL     1      88.168  64.566  87.830  0.00  0.00    +0.000 A 
ATOM     12  H   UNL     1      90.230  62.847  87.084  0.00  0.00    +0.000 HD
ENDROOT
BRANCH   1  14
ATOM     13  C   UNL     1      85.114  64.811  88.298  0.00  0.00    +0.000 C 
ATOM     14  O   UNL     1      86.191  65.626  88.773  0.00  0.00    +0.000 OA
ENDBRANCH   1  14
BRANCH   2  15
ATOM     15  O   UNL     1      86.409  67.714  87.087  0.00  0.00    +0.000 OA
ATOM     16  H   UNL     1      85.799  67.872  86.394  0.00  0.00    +0.000 HD
ENDBRANCH   2  15
BRANCH  11  17
ATOM     17  O   UNL     1      88.198  63.486  88.663  0.00  0.00    +0.000 OA
ATOM     18  C   UNL     1      88.831  63.757  89.914  0.00  0.00    +0.000 C 
ENDBRANCH  11  17
BRANCH   3  19
ATOM     19  C   UNL     1      88.372  67.919  85.010  0.00  0.00    +0.000 C 
BRANCH  19  20
ATOM     20  C   UNL     1      89.533  68.861  85.336  0.00  0.00    +0.000 C 
BRANCH  20  21
ATOM     21  C   UNL     1      89.679  69.061  86.846  0.00  0.00    +0.000 C 
BRANCH  21  22
ATOM     22  C   UNL     1      89.312  70.488  87.254  0.00  0.00    +0.000 C 
BRANCH  22  23
ATOM     23  C   UNL     1      88.149  70.499  88.250  0.00  0.00    +0.000 C 
BRANCH  23  24
ATOM     24  C   UNL     1      86.918  71.139  87.658  0.00  0.00    +0.000 A 
ATOM     25  C   UNL     1      85.877  71.579  88.486  0.00  0.00    +0.000 A 
ATOM     26  C   UNL     1      84.730  72.154  87.936  0.00  0.00    +0.000 A 
ATOM     27  C   UNL     1      84.611  72.290  86.555  0.00  0.00    +0.000 A 
ATOM     28  C   UNL     1      85.638  71.849  85.721  0.00  0.00    +0.000 A 
ATOM     29  C   UNL     1      86.786  71.274  86.270  0.00  0.00    +0.000 A 
ENDBRANCH  23  24
ENDBRANCH  22  23
ENDBRANCH  21  22
ENDBRANCH  20  21
ENDBRANCH  19  20
ENDBRANCH   3  19
TORSDOF 9
ENDMDL
