REMARK  Name = *****
REMARK  4 active torsions:
REMARK  status: ('A' for Active; 'I' for Inactive)
REMARK    1  A    between atoms: C_1  and  O_2
REMARK    2  A    between atoms: O_2  and  C_3
REMARK    3  A    between atoms: C_3  and  C_5
REMARK    4  A    between atoms: C_5  and  C_6
REMARK                            x       y       z     vdW  Elec       q    Type
REMARK                         _______ _______ _______ _____ _____    ______ ____
ROOT
ATOM      1  C   UNL     1       4.892  -2.149  -1.263  0.00  0.00    +0.000 C 
ATOM      2 CL   UNL     1       5.303  -1.770  -2.959  0.00  0.00    +0.000 Cl
ATOM      3  C   UNL     1       6.237  -2.503  -0.557  0.00  0.00    +0.000 C 
ATOM      4  O   UNL     1       7.193  -1.770  -0.361  0.00  0.00    +0.000 OA
ATOM      5  N   UNL     1       6.159  -3.824  -0.139  0.00  0.00    +0.000 N 
ATOM      6  C   UNL     1       4.950  -4.404  -0.497  0.00  0.00    +0.000 A 
ATOM      7  C   UNL     1       4.536  -5.706  -0.268  0.00  0.00    +0.000 A 
ATOM      8 CL   UNL     1       5.529  -6.828   0.573  0.00  0.00    +0.000 Cl
ATOM      9  C   UNL     1       3.283  -6.093  -0.739  0.00  0.00    +0.000 A 
ATOM     10  C   UNL     1       2.486  -5.171  -1.434  0.00  0.00    +0.000 A 
ATOM     11 CL   UNL     1       0.948  -5.669  -2.025  0.00  0.00    +0.000 Cl
ATOM     12  C   UNL     1       2.916  -3.857  -1.659  0.00  0.00    +0.000 A 
ATOM     13  C   UNL     1       4.157  -3.470  -1.171  0.00  0.00    +0.000 A 
ATOM     14  H   UNL     1       6.873  -4.292   0.351  0.00  0.00    +0.000 HD
ENDROOT
BRANCH   1  15
ATOM     15  C   UNL     1       4.293  -0.968  -0.502  0.00  0.00    +0.000 C 
BRANCH  15  16
ATOM     16  C   UNL     1       3.145  -0.284  -1.192  0.00  0.00    +0.000 C 
ATOM     17  O   UNL     1       2.322  -0.828  -1.912  0.00  0.00    +0.000 OA
BRANCH  16  19
ATOM     18  C   UNL     1       2.028   1.767  -1.405  0.00  0.00    +0.000 C 
ATOM     19  O   UNL     1       3.109   1.030  -0.830  0.00  0.00    +0.000 OA
ENDBRANCH  16  19
ENDBRANCH  15  16
ENDBRANCH   1  15
TORSDOF 3
