MODEL 1
REMARK VINA RESULT:      -5.6      0.000      0.000
REMARK  Name = *****
REMARK  2 active torsions:
REMARK  status: ('A' for Active; 'I' for Inactive)
REMARK    1  A    between atoms: C_1  and  O_2
REMARK    2  A    between atoms: O_2  and  C_3
REMARK                            x       y       z     vdW  Elec       q    Type
REMARK                         _______ _______ _______ _____ _____    ______ ____
ROOT
ATOM      1  C   UNL     1      83.677  72.765  87.662  0.00  0.00    +0.000 A 
ATOM      2  C   UNL     1      82.689  73.269  86.797  0.00  0.00    +0.000 A 
ATOM      3  C   UNL     1      82.838  73.175  85.427  0.00  0.00    +0.000 A 
ATOM      4  C   UNL     1      84.003  72.628  84.916  0.00  0.00    +0.000 A 
ATOM      5  C   UNL     1      85.024  72.145  85.761  0.00  0.00    +0.000 A 
ATOM      6  C   UNL     1      86.212  71.677  85.214  0.00  0.00    +0.000 A 
ATOM      7  C   UNL     1      86.707  71.619  83.821  0.00  0.00    +0.000 C 
ATOM      8  O   UNL     1      86.116  71.890  82.800  0.00  0.00    +0.000 OA
ATOM      9  C   UNL     1      88.182  71.144  83.908  0.00  0.00    +0.000 C 
ATOM     10  O   UNL     1      88.964  71.084  82.984  0.00  0.00    +0.000 OA
ATOM     11  N   UNL     1      88.379  70.876  85.240  0.00  0.00    +0.000 N 
ATOM     12  C   UNL     1      89.647  70.647  85.896  0.00  0.00    +0.000 C 
ATOM     13  C   UNL     1      89.470  69.978  87.262  0.00  0.00    +0.000 C 
ATOM     14  C   UNL     1      88.298  70.538  88.050  0.00  0.00    +0.000 A 
ATOM     15  C   UNL     1      88.265  70.373  89.431  0.00  0.00    +0.000 A 
ATOM     16  C   UNL     1      87.122  70.767  90.078  0.00  0.00    +0.000 A 
ATOM     17  O   UNL     1      86.927  70.613  91.417  0.00  0.00    +0.000 OA
ATOM     18  C   UNL     1      85.599  71.131  91.556  0.00  0.00    +0.000 C 
ATOM     19  O   UNL     1      85.011  71.503  90.303  0.00  0.00    +0.000 OA
ATOM     20  C   UNL     1      86.032  71.316  89.415  0.00  0.00    +0.000 A 
ATOM     21  C   UNL     1      85.989  71.554  88.017  0.00  0.00    +0.000 A 
ATOM     22  C   UNL     1      87.183  71.110  87.372  0.00  0.00    +0.000 A 
ATOM     23  C   UNL     1      87.253  71.213  85.999  0.00  0.00    +0.000 A 
ATOM     24  C   UNL     1      84.889  72.151  87.191  0.00  0.00    +0.000 A 
ENDROOT
BRANCH   1  26
ATOM     25  C   UNL     1      82.426  73.868  89.321  0.00  0.00    +0.000 C 
ATOM     26  O   UNL     1      83.532  73.023  89.005  0.00  0.00    +0.000 OA
ENDBRANCH   1  26
TORSDOF 1
ENDMDL
