MODEL 1
REMARK VINA RESULT:      -4.3      0.000      0.000
REMARK  Name = *****
REMARK  4 active torsions:
REMARK  status: ('A' for Active; 'I' for Inactive)
REMARK    1  A    between atoms: C_1  and  O_2
REMARK    2  A    between atoms: O_2  and  C_3
REMARK    3  A    between atoms: C_14  and  S_15
REMARK    4  A    between atoms: S_15  and  C_16
REMARK                            x       y       z     vdW  Elec       q    Type
REMARK                         _______ _______ _______ _____ _____    ______ ____
ROOT
ATOM      1  C   UNL     1      87.047  62.572  88.307  0.00  0.00    +0.000 A 
ATOM      2  C   UNL     1      87.858  63.362  89.143  0.00  0.00    +0.000 A 
ATOM      3  C   UNL     1      88.370  64.590  88.702  0.00  0.00    +0.000 A 
ATOM      4  C   UNL     1      88.059  65.011  87.419  0.00  0.00    +0.000 A 
ATOM      5  C   UNL     1      87.255  64.219  86.602  0.00  0.00    +0.000 A 
ATOM      6  N   UNL     1      87.078  64.828  85.370  0.00  0.00    +0.000 N 
ATOM      7  C   UNL     1      87.751  66.047  85.305  0.00  0.00    +0.000 C 
ATOM      8  O   UNL     1      87.762  66.784  84.333  0.00  0.00    +0.000 OA
ATOM      9  C   UNL     1      88.451  66.256  86.672  0.00  0.00    +0.000 C 
ATOM     10  C   UNL     1      89.953  66.464  86.491  0.00  0.00    +0.000 C 
ATOM     11  N   UNL     1      90.260  67.907  86.338  0.00  0.00    +0.000 NA
ATOM     12  C   UNL     1      89.271  68.606  86.780  0.00  0.00    +0.000 C 
ATOM     13  S   UNL     1      87.884  67.786  87.433  0.00  0.00    +0.000 S 
ATOM     14  C   UNL     1      86.741  63.008  87.014  0.00  0.00    +0.000 A 
ATOM     15  H   UNL     1      86.545  64.450  84.635  0.00  0.00    +0.000 HD
ENDROOT
BRANCH   1  17
ATOM     16  C   UNL     1      85.643  61.328  89.773  0.00  0.00    +0.000 C 
ATOM     17  O   UNL     1      86.500  61.362  88.638  0.00  0.00    +0.000 OA
ENDBRANCH   1  17
BRANCH  12  18
ATOM     18  S   UNL     1      89.255  70.339  86.798  0.00  0.00    +0.000 S 
ATOM     19  C   UNL     1      90.013  70.684  85.198  0.00  0.00    +0.000 C 
ENDBRANCH  12  18
TORSDOF 2
ENDMDL
