MODEL 1
REMARK VINA RESULT:      -5.2      0.000      0.000
REMARK  Name = *****
REMARK  0 active torsions:
REMARK  status: ('A' for Active; 'I' for Inactive)
REMARK                            x       y       z     vdW  Elec       q    Type
REMARK                         _______ _______ _______ _____ _____    ______ ____
ROOT
ATOM      1  O   UNL     1      90.788  66.790  86.042  0.00  0.00    +0.000 OA
ATOM      2  C   UNL     1      89.788  66.373  86.592  0.00  0.00    +0.000 C 
ATOM      3  N   UNL     1      89.662  65.087  87.067  0.00  0.00    +0.000 N 
ATOM      4  C   UNL     1      88.520  64.940  87.830  0.00  0.00    +0.000 A 
ATOM      5  C   UNL     1      88.182  63.797  88.536  0.00  0.00    +0.000 A 
ATOM      6  C   UNL     1      87.047  63.848  89.336  0.00  0.00    +0.000 A 
ATOM      7  C   UNL     1      86.310  65.035  89.425  0.00  0.00    +0.000 A 
ATOM      8  C   UNL     1      86.684  66.179  88.700  0.00  0.00    +0.000 A 
ATOM      9  C   UNL     1      87.783  66.132  87.857  0.00  0.00    +0.000 A 
ATOM     10  C   UNL     1      88.499  67.091  86.961  0.00  0.00    +0.000 C 
ATOM     11  C   UNL     1      88.158  68.314  86.491  0.00  0.00    +0.000 C 
ATOM     12  C   UNL     1      86.869  69.031  86.859  0.00  0.00    +0.000 C 
ATOM     13  O   UNL     1      85.869  68.614  87.406  0.00  0.00    +0.000 OA
ATOM     14  N   UNL     1      86.993  70.318  86.383  0.00  0.00    +0.000 N 
ATOM     15  C   UNL     1      88.138  70.465  85.621  0.00  0.00    +0.000 A 
ATOM     16  C   UNL     1      88.474  71.609  84.917  0.00  0.00    +0.000 A 
ATOM     17  C   UNL     1      89.611  71.558  84.117  0.00  0.00    +0.000 A 
ATOM     18  C   UNL     1      90.349  70.372  84.029  0.00  0.00    +0.000 A 
ATOM     19  C   UNL     1      89.974  69.228  84.753  0.00  0.00    +0.000 A 
ATOM     20  C   UNL     1      88.876  69.274  85.596  0.00  0.00    +0.000 A 
ATOM     21  H   UNL     1      90.306  64.363  86.888  0.00  0.00    +0.000 HD
ATOM     22  H   UNL     1      86.350  71.041  86.563  0.00  0.00    +0.000 HD
ENDROOT
TORSDOF 0
ENDMDL
