MODEL 1
REMARK VINA RESULT:      -5.2      0.000      0.000
REMARK  Name = *****
REMARK  6 active torsions:
REMARK  status: ('A' for Active; 'I' for Inactive)
REMARK    1  A    between atoms: C_1  and  O_2
REMARK    2  A    between atoms: O_2  and  C_3
REMARK    3  A    between atoms: C_6  and  C_11
REMARK    4  A    between atoms: C_7  and  C_8
REMARK    5  A    between atoms: C_8  and  O_9
REMARK    6  A    between atoms: C_25  and  O_26
REMARK                            x       y       z     vdW  Elec       q    Type
REMARK                         _______ _______ _______ _____ _____    ______ ____
ROOT
ATOM      1  C   UNL     1      90.005  70.263  81.748  0.00  0.00    +0.000 C 
ATOM      2  C   UNL     1      89.983  69.126  82.764  0.00  0.00    +0.000 C 
ATOM      3  C   UNL     1      88.870  69.314  83.804  0.00  0.00    +0.000 C 
ATOM      4  C   UNL     1      88.887  70.748  84.396  0.00  0.00    +0.000 C 
ATOM      5  C   UNL     1      89.026  71.810  83.275  0.00  0.00    +0.000 C 
ATOM      6  O   UNL     1      90.152  71.502  82.430  0.00  0.00    +0.000 OA
ATOM      7  C   UNL     1      87.517  68.957  83.131  0.00  0.00    +0.000 C 
ATOM      8  O   UNL     1      86.983  69.538  82.199  0.00  0.00    +0.000 OA
ATOM      9  N   UNL     1      87.019  67.817  83.745  0.00  0.00    +0.000 N 
ATOM     10  C   UNL     1      87.850  67.384  84.764  0.00  0.00    +0.000 A 
ATOM     11  C   UNL     1      87.660  66.294  85.587  0.00  0.00    +0.000 A 
ATOM     12  C   UNL     1      88.648  66.051  86.540  0.00  0.00    +0.000 A 
ATOM     13  C   UNL     1      89.776  66.875  86.654  0.00  0.00    +0.000 A 
ATOM     14  C   UNL     1      89.944  67.973  85.805  0.00  0.00    +0.000 A 
ATOM     15  C   UNL     1      88.964  68.219  84.858  0.00  0.00    +0.000 A 
ATOM     16  H   UNL     1      86.179  67.372  83.489  0.00  0.00    +0.000 HD
ENDROOT
BRANCH   4  17
ATOM     17  C   UNL     1      87.734  71.046  85.337  0.00  0.00    +0.000 A 
ATOM     18  C   UNL     1      86.470  71.497  85.001  0.00  0.00    +0.000 A 
ATOM     19  N   UNL     1      85.738  71.640  86.148  0.00  0.00    +0.000 N 
ATOM     20  C   UNL     1      86.503  71.322  87.243  0.00  0.00    +0.000 A 
ATOM     21  C   UNL     1      86.178  71.343  88.605  0.00  0.00    +0.000 A 
ATOM     22  C   UNL     1      87.172  70.977  89.515  0.00  0.00    +0.000 A 
ATOM     23  C   UNL     1      88.440  70.606  89.078  0.00  0.00    +0.000 A 
ATOM     24  C   UNL     1      88.747  70.589  87.713  0.00  0.00    +0.000 A 
ATOM     25  C   UNL     1      87.761  70.949  86.770  0.00  0.00    +0.000 A 
ATOM     26  H   UNL     1      84.798  71.932  86.184  0.00  0.00    +0.000 HD
ENDBRANCH   4  17
BRANCH   1  28
ATOM     27  C   UNL     1      92.243  70.846  81.267  0.00  0.00    +0.000 C 
ATOM     28  O   UNL     1      91.133  70.039  80.900  0.00  0.00    +0.000 OA
ENDBRANCH   1  28
BRANCH  12  29
ATOM     29  O   UNL     1      88.555  64.995  87.401  0.00  0.00    +0.000 OA
ATOM     30  H   UNL     1      88.439  64.127  87.067  0.00  0.00    +0.000 HD
ENDBRANCH  12  29
BRANCH   5  31
ATOM     31  C   UNL     1      89.311  73.218  83.828  0.00  0.00    +0.000 C 
BRANCH  31  32
ATOM     32  O   UNL     1      90.720  73.453  83.885  0.00  0.00    +0.000 OA
ATOM     33  H   UNL     1      91.100  72.964  84.632  0.00  0.00    +0.000 HD
ENDBRANCH  31  32
ENDBRANCH   5  31
TORSDOF 5
ENDMDL
