MODEL 1
REMARK VINA RESULT:      -4.5      0.000      0.000
REMARK  Name = *****
REMARK  5 active torsions:
REMARK  status: ('A' for Active; 'I' for Inactive)
REMARK    1  A    between atoms: C_1  and  O_2
REMARK    2  A    between atoms: O_2  and  C_3
REMARK    3  A    between atoms: C_8  and  C_9
REMARK    4  A    between atoms: C_10  and  C_11
REMARK    5  A    between atoms: C_10  and  C_12
REMARK                            x       y       z     vdW  Elec       q    Type
REMARK                         _______ _______ _______ _____ _____    ______ ____
ROOT
ATOM      1  C   UNL     1     100.608 126.882  83.607  0.00  0.00    +0.000 A 
ATOM      2  C   UNL     1     101.331 126.207  84.610  0.00  0.00    +0.000 A 
ATOM      3  C   UNL     1     102.457 125.432  84.293  0.00  0.00    +0.000 A 
ATOM      4  C   UNL     1     102.843 125.345  82.968  0.00  0.00    +0.000 A 
ATOM      5  C   UNL     1     103.934 124.649  82.272  0.00  0.00    +0.000 C 
ATOM      6  C   UNL     1     104.860 123.880  82.868  0.00  0.00    +0.000 C 
ATOM      7  C   UNL     1     103.790 124.973  80.804  0.00  0.00    +0.000 C 
ATOM      8  O   UNL     1     104.479 124.608  79.871  0.00  0.00    +0.000 OA
ATOM      9  N   UNL     1     102.677 125.798  80.727  0.00  0.00    +0.000 N 
ATOM     10  C   UNL     1     102.120 126.020  81.983  0.00  0.00    +0.000 A 
ATOM     11  C   UNL     1     101.010 126.788  82.271  0.00  0.00    +0.000 A 
ATOM     12  H   UNL     1     102.327 126.179  79.890  0.00  0.00    +0.000 HD
ENDROOT
BRANCH   6  13
ATOM     13  C   UNL     1     105.946 123.179  82.213  0.00  0.00    +0.000 C 
ATOM     14  C   UNL     1     105.886 121.976  81.606  0.00  0.00    +0.000 C 
ATOM     15  C   UNL     1     104.673 121.097  81.474  0.00  0.00    +0.000 C 
ATOM     16  C   UNL     1     107.126 121.392  80.973  0.00  0.00    +0.000 C 
ENDBRANCH   6  13
BRANCH   1  18
ATOM     17  C   UNL     1      98.577 127.765  82.734  0.00  0.00    +0.000 C 
ATOM     18  O   UNL     1      99.501 127.660  83.810  0.00  0.00    +0.000 OA
ENDBRANCH   1  18
TORSDOF 2
ENDMDL
