MODEL 1
REMARK VINA RESULT:      -6.4      0.000      0.000
REMARK  Name = *****
REMARK  1 active torsions:
REMARK  status: ('A' for Active; 'I' for Inactive)
REMARK    1  A    between atoms: C_1  and  C_2
REMARK                            x       y       z     vdW  Elec       q    Type
REMARK                         _______ _______ _______ _____ _____    ______ ____
ROOT
ATOM      1  C   UNL     1      85.794  65.515  85.308  0.00  0.00    +0.000 C 
ATOM      2  C   UNL     1      87.227  65.977  85.559  0.00  0.00    +0.000 C 
ATOM      3  N   UNL     1      87.859  66.405  84.290  0.00  0.00    +0.000 N 
ATOM      4  C   UNL     1      89.187  66.820  84.374  0.00  0.00    +0.000 C 
ATOM      5  O   UNL     1      89.926  66.885  83.404  0.00  0.00    +0.000 OA
ATOM      6  C   UNL     1      89.622  66.957  85.841  0.00  0.00    +0.000 C 
ATOM      7  C   UNL     1      89.584  65.545  86.453  0.00  0.00    +0.000 C 
ATOM      8  C   UNL     1      88.147  64.955  86.306  0.00  0.00    +0.000 C 
ATOM      9  C   UNL     1      88.214  63.636  85.488  0.00  0.00    +0.000 C 
ATOM     10  O   UNL     1      88.572  63.506  84.330  0.00  0.00    +0.000 OA
ATOM     11  N   UNL     1      87.786  62.603  86.306  0.00  0.00    +0.000 N 
ATOM     12  C   UNL     1      87.433  63.062  87.562  0.00  0.00    +0.000 A 
ATOM     13  C   UNL     1      86.964  62.307  88.616  0.00  0.00    +0.000 A 
ATOM     14  C   UNL     1      86.674  62.979  89.804  0.00  0.00    +0.000 A 
ATOM     15  C   UNL     1      86.863  64.368  89.905  0.00  0.00    +0.000 A 
ATOM     16  C   UNL     1      87.342  65.109  88.820  0.00  0.00    +0.000 A 
ATOM     17  C   UNL     1      87.619  64.442  87.637  0.00  0.00    +0.000 A 
ATOM     18  N   UNL     1      88.586  67.774  86.482  0.00  0.00    +0.000 N 
ATOM     19  C   UNL     1      88.890  68.941  87.149  0.00  0.00    +0.000 A 
ATOM     20  O   UNL     1      90.027  69.379  87.284  0.00  0.00    +0.000 OA
ATOM     21  C   UNL     1      87.734  69.641  87.743  0.00  0.00    +0.000 A 
ATOM     22  C   UNL     1      87.908  70.837  88.451  0.00  0.00    +0.000 A 
ATOM     23  C   UNL     1      86.800  71.468  89.014  0.00  0.00    +0.000 A 
ATOM     24  C   UNL     1      85.531  70.907  88.869  0.00  0.00    +0.000 A 
ATOM     25  C   UNL     1      85.368  69.714  88.160  0.00  0.00    +0.000 A 
ATOM     26  C   UNL     1      86.467  69.068  87.590  0.00  0.00    +0.000 A 
ATOM     27  N   UNL     1      86.254  67.869  86.891  0.00  0.00    +0.000 NA
ATOM     28  C   UNL     1      87.284  67.290  86.371  0.00  0.00    +0.000 A 
ATOM     29  H   UNL     1      87.369  66.397  83.437  0.00  0.00    +0.000 HD
ATOM     30  H   UNL     1      87.740  61.660  86.029  0.00  0.00    +0.000 HD
ENDROOT
TORSDOF 0
ENDMDL
