MODEL 1
REMARK VINA RESULT:      -5.5      0.000      0.000
REMARK  Name = *****
REMARK  3 active torsions:
REMARK  status: ('A' for Active; 'I' for Inactive)
REMARK    1  A    between atoms: C_1  and  C_2
REMARK    2  A    between atoms: C_2  and  C_27
REMARK    3  A    between atoms: C_3  and  C_4
REMARK                            x       y       z     vdW  Elec       q    Type
REMARK                         _______ _______ _______ _____ _____    ______ ____
ROOT
ATOM      1  C   UNK A   1     103.796 127.257  82.688  0.00  0.00    +0.000 C 
ATOM      2  N   UNK A   1     102.490 127.777  83.148  0.00  0.00    +0.000 N 
ATOM      3  C   PRO A   2     102.312 128.892  83.952  0.00  0.00    +0.000 C 
ATOM      4  O   PRO A   2     103.235 129.541  84.438  0.00  0.00    +0.000 OA
ATOM      5  CA  PRO A   2     100.863 129.388  83.962  0.00  0.00    +0.000 C 
ATOM      6  CB  PRO A   2     100.439 130.120  85.226  0.00  0.00    +0.000 C 
ATOM      7  CG  PRO A   2      98.915 129.994  85.181  0.00  0.00    +0.000 C 
ATOM      8  CD  PRO A   2      98.675 128.609  84.587  0.00  0.00    +0.000 C 
ATOM      9  N   PRO A   2      99.894 128.308  83.869  0.00  0.00    +0.000 N 
ATOM     10  C   UNK A   1     100.030 127.282  82.967  0.00  0.00    +0.000 C 
ATOM     11  O   UNK A   1      99.129 126.536  82.611  0.00  0.00    +0.000 OA
ATOM     12  C   UNK A   1     101.455 127.075  82.565  0.00  0.00    +0.000 C 
ATOM     13  C   UNK A   1     101.895 126.170  81.685  0.00  0.00    +0.000 C 
ATOM     14  C   UNK A   1     103.400 126.211  81.598  0.00  0.00    +0.000 C 
ATOM     15  C   UNK A   1     103.854 126.758  80.217  0.00  0.00    +0.000 C 
ATOM     16  O   UNK A   1     103.569 127.831  79.710  0.00  0.00    +0.000 OA
ATOM     17  N   UNK A   1     104.662 125.790  79.631  0.00  0.00    +0.000 N 
ATOM     18  C   UNK A   1     104.769 124.666  80.433  0.00  0.00    +0.000 A 
ATOM     19  C   UNK A   1     105.458 123.505  80.149  0.00  0.00    +0.000 A 
ATOM     20  C   UNK A   1     105.394 122.475  81.089  0.00  0.00    +0.000 A 
ATOM     21  C   UNK A   1     104.645 122.627  82.271  0.00  0.00    +0.000 A 
ATOM     22  C   UNK A   1     103.955 123.814  82.534  0.00  0.00    +0.000 A 
ATOM     23  C   UNK A   1     104.036 124.842  81.607  0.00  0.00    +0.000 A 
ATOM     24  H   UNK A   1     105.102 125.891  78.756  0.00  0.00    +0.000 HD
ENDROOT
BRANCH   1  27
ATOM     25  C   UNK A   1     106.879 126.882  82.959  0.00  0.00    +0.000 C 
ATOM     26  C   UNK A   1     105.867 126.558  84.023  0.00  0.00    +0.000 C 
ATOM     27  C   UNK A   1     104.534 126.706  83.892  0.00  0.00    +0.000 C 
ATOM     28  C   UNK A   1     106.460 126.028  85.302  0.00  0.00    +0.000 C 
ENDBRANCH   1  27
TORSDOF 1
ENDMDL
