REMARK  Name = *****
REMARK  18 active torsions:
REMARK  status: ('A' for Active; 'I' for Inactive)
REMARK    1  A    between atoms: C_1  and  C_2
REMARK    2  A    between atoms: C_2  and  C_3
REMARK    3  A    between atoms: C_2  and  C_4
REMARK    4  A    between atoms: C_4  and  N_5
REMARK    5  A    between atoms: C_4  and  C_9
REMARK    6  A    between atoms: C_6  and  C_8
REMARK    7  A    between atoms: N_11  and  C_12
REMARK    8  A    between atoms: N_11  and  C_13
REMARK    9  A    between atoms: C_13  and  C_14
REMARK   10  A    between atoms: C_13  and  C_17
REMARK   11  A    between atoms: C_14  and  C_15
REMARK   12  A    between atoms: C_14  and  C_16
REMARK   13  A    between atoms: C_20  and  C_21
REMARK   14  A    between atoms: C_21  and  C_22
REMARK   15  A    between atoms: C_22  and  C_23
REMARK   16  A    between atoms: C_23  and  C_24
REMARK   17  A    between atoms: C_25  and  C_26
REMARK   18  A    between atoms: C_25  and  C_27
REMARK                            x       y       z     vdW  Elec       q    Type
REMARK                         _______ _______ _______ _____ _____    ______ ____
ROOT
ATOM      1  C   UNL     1       7.353   4.136  -1.611  0.00  0.00    +0.000 C 
ATOM      2  O   UNL     1       8.558   4.212  -1.841  0.00  0.00    +0.000 OA
ATOM      3  N   UNL     1       6.466   5.175  -1.849  0.00  0.00    +0.000 N 
ATOM      4  C   UNL     1       6.831   6.397  -2.347  0.00  0.00    +0.000 C 
ATOM      5  H   UNL     1       5.515   5.024  -1.647  0.00  0.00    +0.000 HD
ENDROOT
BRANCH   1   6
ATOM      6  C   UNL     1       6.709   2.902  -0.919  0.00  0.00    +0.000 C 
BRANCH   6   9
ATOM      7  C   UNL     1       4.493   3.479   0.256  0.00  0.00    +0.000 C 
ATOM      8  O   UNL     1       3.257   3.416   0.277  0.00  0.00    +0.000 OA
ATOM      9  N   UNL     1       5.212   2.999  -0.843  0.00  0.00    +0.000 N 
ATOM     10  C   UNL     1       4.441   2.551  -2.001  0.00  0.00    +0.000 C 
BRANCH   7  11
ATOM     11  C   UNL     1       5.225   4.020   1.513  0.00  0.00    +0.000 C 
BRANCH  11  12
ATOM     12  N   UNL     1       5.090   2.947   2.501  0.00  0.00    +0.000 N 
ATOM     13  C   UNL     1       6.145   2.165   2.894  0.00  0.00    +0.000 C 
ATOM     14  O   UNL     1       7.301   2.356   2.534  0.00  0.00    +0.000 OA
ATOM     15  C   UNL     1       5.777   1.063   3.850  0.00  0.00    +0.000 C 
ATOM     16  H   UNL     1       4.205   2.781   2.900  0.00  0.00    +0.000 HD
ENDBRANCH  11  12
BRANCH  11  18
ATOM     17  C   UNL     1       5.200   5.792   3.340  0.00  0.00    +0.000 C 
ATOM     18  C   UNL     1       4.545   5.311   2.039  0.00  0.00    +0.000 C 
ATOM     19  C   UNL     1       4.612   6.439   1.005  0.00  0.00    +0.000 C 
ENDBRANCH  11  18
ENDBRANCH   7  11
ENDBRANCH   6   9
BRANCH   6  20
ATOM     20  C   UNL     1       7.233   1.536  -1.457  0.00  0.00    +0.000 C 
ATOM     21  C   UNL     1       7.419   1.465  -2.978  0.00  0.00    +0.000 C 
ATOM     22  C   UNL     1       8.555   1.144  -0.780  0.00  0.00    +0.000 C 
ENDBRANCH   6  20
ENDBRANCH   1   6
BRANCH   4  23
ATOM     23  C   UNL     1       5.936   7.382  -2.508  0.00  0.00    +0.000 C 
BRANCH  23  24
ATOM     24  C   UNL     1       6.235   8.799  -2.979  0.00  0.00    +0.000 C 
ATOM     25  C   UNL     1       7.559   8.879  -3.819  0.00  0.00    +0.000 C 
ATOM     26  O   UNL     1       7.796   8.327  -4.882  0.00  0.00    +0.000 OA
ATOM     27  N   UNL     1       8.442   9.712  -3.143  0.00  0.00    +0.000 N 
ATOM     28  C   UNL     1       7.891  10.187  -1.966  0.00  0.00    +0.000 A 
ATOM     29  C   UNL     1       8.496  11.014  -1.043  0.00  0.00    +0.000 A 
ATOM     30  C   UNL     1       7.762  11.353   0.095  0.00  0.00    +0.000 A 
ATOM     31  C   UNL     1       6.459  10.859   0.282  0.00  0.00    +0.000 A 
ATOM     32  C   UNL     1       5.868  10.021  -0.668  0.00  0.00    +0.000 A 
ATOM     33  C   UNL     1       6.595   9.695  -1.803  0.00  0.00    +0.000 A 
ATOM     34  H   UNL     1       9.346   9.937  -3.461  0.00  0.00    +0.000 HD
BRANCH  24  35
ATOM     35  C   UNL     1       5.133   9.396  -3.897  0.00  0.00    +0.000 C 
BRANCH  35  36
ATOM     36  C   UNL     1       3.746   9.517  -3.304  0.00  0.00    +0.000 C 
ATOM     37  C   UNL     1       3.120  10.636  -2.890  0.00  0.00    +0.000 C 
ATOM     38  C   UNL     1       3.721  12.016  -2.888  0.00  0.00    +0.000 C 
ATOM     39  C   UNL     1       1.709  10.578  -2.364  0.00  0.00    +0.000 C 
ENDBRANCH  35  36
ENDBRANCH  24  35
ENDBRANCH  23  24
ENDBRANCH   4  23
TORSDOF 10
