MODEL 1
REMARK VINA RESULT:      -3.9      0.000      0.000
REMARK  Name = *****
REMARK  3 active torsions:
REMARK  status: ('A' for Active; 'I' for Inactive)
REMARK    1  A    between atoms: O_1  and  C_2
REMARK    2  A    between atoms: C_2  and  C_3
REMARK    3  A    between atoms: C_3  and  C_4
REMARK                            x       y       z     vdW  Elec       q    Type
REMARK                         _______ _______ _______ _____ _____    ______ ____
ROOT
ATOM      1  C   UNL     1      89.248  64.209  86.550  0.00  0.00    +0.000 C 
ATOM      2  C   UNL     1      90.648  64.205  85.848  0.00  0.00    +0.000 C 
ATOM      3  O   UNL     1      91.330  63.220  85.612  0.00  0.00    +0.000 OA
ATOM      4  N   UNL     1      90.998  65.519  85.590  0.00  0.00    +0.000 N 
ATOM      5  C   UNL     1      90.069  66.398  86.126  0.00  0.00    +0.000 A 
ATOM      6  C   UNL     1      90.151  67.775  86.109  0.00  0.00    +0.000 A 
ATOM      7  C   UNL     1      89.128  68.477  86.743  0.00  0.00    +0.000 A 
ATOM      8 BR   UNL     1      89.174  70.368  86.762  0.00  0.00    +0.000 Br
ATOM      9  C   UNL     1      88.072  67.806  87.377  0.00  0.00    +0.000 A 
ATOM     10  C   UNL     1      88.019  66.406  87.379  0.00  0.00    +0.000 A 
ATOM     11 BR   UNL     1      86.589  65.566  88.287  0.00  0.00    +0.000 Br
ATOM     12  C   UNL     1      89.022  65.696  86.735  0.00  0.00    +0.000 A 
ATOM     13  H   UNL     1      91.802  65.793  85.092  0.00  0.00    +0.000 HD
ENDROOT
BRANCH   1  14
ATOM     14  O   UNL     1      89.305  63.567  87.813  0.00  0.00    +0.000 OA
ATOM     15  H   UNL     1      90.160  63.121  87.912  0.00  0.00    +0.000 HD
ENDBRANCH   1  14
BRANCH   1  16
ATOM     16  C   UNL     1      88.200  63.572  85.623  0.00  0.00    +0.000 C 
BRANCH  16  17
ATOM     17  C   UNL     1      88.047  64.301  84.292  0.00  0.00    +0.000 C 
ATOM     18 CL   UNL     1      86.490  65.167  84.247  0.00  0.00    +0.000 Cl
ENDBRANCH  16  17
ENDBRANCH   1  16
TORSDOF 3
ENDMDL
