@<TRIPOS>MOLECULE
CTL2
 33 33 0 0 0
SMALL
GASTEIGER

@<TRIPOS>ATOM
      1 N          88.0020   63.0080   88.6140 N.4     1  CTL2        0.2308
      2 C          87.8060   63.6240   86.1750 C.3     1  CTL2        0.1199
      3 C          89.0470   64.4670   85.9630 C.ar    1  CTL2       -0.0072
      4 C          89.0910   65.8100   86.3730 C.ar    1  CTL2       -0.0141
      5 C          90.2410   66.5680   86.1570 C.ar    1  CTL2        0.1207
      6 C          91.3560   66.0180   85.5370 C.ar    1  CTL2        0.0213
      7 C          91.3110   64.6910   85.1290 C.ar    1  CTL2        0.1207
      8 C          90.1750   63.9150   85.3350 C.ar    1  CTL2       -0.0141
      9 C          87.2180   63.7400   87.6040 C.3     1  CTL2       -0.0026
     10 C          89.2010   63.8280   90.5650 C.3     1  CTL2       -0.0219
     11 C          87.8200   63.5390   89.9720 C.3     1  CTL2       -0.0283
     12 C          86.9820   64.8190   89.9800 C.3     1  CTL2       -0.0219
     13 O          92.3770   64.1010   84.5130 O.3     1  CTL2       -0.5066
     14 O          90.3110   67.8740   86.5470 O.3     1  CTL2       -0.5066
     15 O          88.1370   62.2550   85.9140 O.3     1  CTL2       -0.3819
     16 H          88.9900   63.0723   88.3688 H       1  CTL2        0.2017
     17 H          87.6742   62.0421   88.6158 H       1  CTL2        0.2017
     18 H          87.0558   63.9869   85.5038 H       1  CTL2        0.0698
     19 H          88.2718   66.2356   86.8342 H       1  CTL2        0.0658
     20 H          92.2036   66.5859   85.3821 H       1  CTL2        0.0691
     21 H          90.1613   62.9307   85.0253 H       1  CTL2        0.0658
     22 H          86.2228   63.3471   87.5954 H       1  CTL2        0.0843
     23 H          87.2384   64.7752   87.8738 H       1  CTL2        0.0843
     24 H          89.7863   62.9323   90.5590 H       1  CTL2        0.0284
     25 H          89.0915   64.1758   91.5710 H       1  CTL2        0.0284
     26 H          89.6907   64.5780   89.9796 H       1  CTL2        0.0284
     27 H          87.2954   62.8109   90.5547 H       1  CTL2        0.0845
     28 H          87.4772   65.5731   89.4047 H       1  CTL2        0.0284
     29 H          86.8616   65.1602   90.9870 H       1  CTL2        0.0284
     30 H          86.0211   64.6189   89.5539 H       1  CTL2        0.0284
     31 H          92.3262   63.2044   84.2455 H       1  CTL2        0.2921
     32 H          91.0925   68.3676   86.3933 H       1  CTL2        0.2921
     33 H          88.8177   61.9620   86.5398 H       1  CTL2        0.2105
@<TRIPOS>BOND
     1    13     7    1
     2     7     8   ar
     3     7     6   ar
     4     8     3   ar
     5     6     5   ar
     6    15     2    1
     7     3     2    1
     8     3     4   ar
     9     5     4   ar
    10     5    14    1
    11     2     9    1
    12     9     1    1
    13     1    11    1
    14    11    12    1
    15    11    10    1
    16     1    16    1
    17     1    17    1
    18     2    18    1
    19     4    19    1
    20     6    20    1
    21     8    21    1
    22     9    22    1
    23     9    23    1
    24    10    24    1
    25    10    25    1
    26    10    26    1
    27    11    27    1
    28    12    28    1
    29    12    29    1
    30    12    30    1
    31    13    31    1
    32    14    32    1
    33    15    33    1
