@<TRIPOS>MOLECULE
CTL4
 39 39 0 0 0
SMALL
GASTEIGER

@<TRIPOS>ATOM
      1 N         105.3810  126.4730   79.8060 N.4     1  CTL4        0.2328
      2 C         103.5530  125.7920   81.4010 C.3     1  CTL4        0.1197
      3 C         102.5360  126.6700   82.1070 C.ar    1  CTL4       -0.0135
      4 C         101.1680  126.3490   82.0560 C.ar    1  CTL4       -0.0471
      5 C         100.1990  127.1410   82.7040 C.ar    1  CTL4        0.0195
      6 C         100.6420  128.2660   83.4100 C.ar    1  CTL4        0.1222
      7 C         101.9910  128.5990   83.4710 C.ar    1  CTL4       -0.0195
      8 C         102.9360  127.8060   82.8220 C.ar    1  CTL4       -0.0525
      9 C          98.7550  126.7160   82.5970 C.3     1  CTL4        0.0727
     10 C         104.9370  126.4660   81.2090 C.3     1  CTL4       -0.0023
     11 C         107.1330  124.9770   80.7660 C.3     1  CTL4       -0.0193
     12 C         106.5850  125.6730   79.5090 C.3     1  CTL4       -0.0203
     13 C         107.6900  126.5100   78.8470 C.3     1  CTL4       -0.0193
     14 C         106.1350  124.5870   78.5110 C.3     1  CTL4       -0.0193
     15 O          99.7830  129.0980   84.0710 O.3     1  CTL4       -0.5064
     16 O          97.9400  127.7190   81.9900 O.3     1  CTL4       -0.3903
     17 O         103.0350  125.4120   80.1220 O.3     1  CTL4       -0.3819
     18 H         104.6170  126.1126   79.2343 H       1  CTL4        0.2020
     19 H         105.6332  127.4397   79.6002 H       1  CTL4        0.2020
     20 H         103.7122  124.9410   82.0297 H       1  CTL4        0.0698
     21 H         100.8662  125.5131   81.5313 H       1  CTL4        0.0626
     22 H         102.2926  129.4339   83.9972 H       1  CTL4        0.0654
     23 H         103.9358  128.0573   82.8686 H       1  CTL4        0.0622
     24 H          98.7011  125.8249   82.0071 H       1  CTL4        0.0608
     25 H          98.3875  126.5503   83.5882 H       1  CTL4        0.0608
     26 H         104.8747  127.4775   81.5524 H       1  CTL4        0.0843
     27 H         105.6508  125.8986   81.7688 H       1  CTL4        0.0843
     28 H         108.0027  124.4093   80.5088 H       1  CTL4        0.0287
     29 H         106.3861  124.3237   81.1662 H       1  CTL4        0.0287
     30 H         107.3915  125.7138   81.4976 H       1  CTL4        0.0287
     31 H         107.2994  126.9899   77.9741 H       1  CTL4        0.0287
     32 H         108.5029  125.8720   78.5696 H       1  CTL4        0.0287
     33 H         108.0374  127.2511   79.5362 H       1  CTL4        0.0287
     34 H         105.7497  125.0520   77.6277 H       1  CTL4        0.0287
     35 H         105.3722  123.9850   78.9589 H       1  CTL4        0.0287
     36 H         106.9709  123.9705   78.2539 H       1  CTL4        0.0287
     37 H          98.8626  128.9226   84.0641 H       1  CTL4        0.2921
     38 H          98.2535  127.8880   81.0877 H       1  CTL4        0.2098
     39 H         102.9025  126.2044   79.5784 H       1  CTL4        0.2105
@<TRIPOS>BOND
     1    14    12    1
     2    13    12    1
     3    12     1    1
     4    12    11    1
     5     1    10    1
     6    17     2    1
     7    10     2    1
     8     2     3    1
     9    16     9    1
    10     4     3   ar
    11     4     5   ar
    12     3     8   ar
    13     9     5    1
    14     5     6   ar
    15     8     7   ar
    16     6     7   ar
    17     6    15    1
    18     1    18    1
    19     1    19    1
    20     2    20    1
    21     4    21    1
    22     7    22    1
    23     8    23    1
    24     9    24    1
    25     9    25    1
    26    10    26    1
    27    10    27    1
    28    11    28    1
    29    11    29    1
    30    11    30    1
    31    13    31    1
    32    13    32    1
    33    13    33    1
    34    14    34    1
    35    14    35    1
    36    14    36    1
    37    15    37    1
    38    16    38    1
    39    17    39    1
