REMARK  Name = *****
REMARK  5 active torsions:
REMARK  status: ('A' for Active; 'I' for Inactive)
REMARK    1  A    between atoms: C_1  and  O_2
REMARK    2  A    between atoms: O_2  and  C_3
REMARK    3  A    between atoms: C_6  and  S_9
REMARK    4  A    between atoms: S_9  and  C_10
REMARK    5  A    between atoms: C_10  and  C_11
REMARK                            x       y       z     vdW  Elec       q    Type
REMARK                         _______ _______ _______ _____ _____    ______ ____
ROOT
ATOM      1  S   UNL     1       5.664  -3.203   3.873  0.00  0.00    +0.000 S 
ENDROOT
BRANCH   1   5
ATOM      2  C   UNL     1       3.153  -0.820   0.848  0.00  0.00    +0.000 A 
ATOM      3  C   UNL     1       2.618  -1.963   1.441  0.00  0.00    +0.000 A 
ATOM      4  C   UNL     1       3.374  -2.698   2.364  0.00  0.00    +0.000 A 
ATOM      5  C   UNL     1       4.673  -2.303   2.695  0.00  0.00    +0.000 A 
ATOM      6  C   UNL     1       5.200  -1.149   2.113  0.00  0.00    +0.000 A 
ATOM      7  C   UNL     1       4.445  -0.417   1.192  0.00  0.00    +0.000 A 
BRANCH   2   9
ATOM      8  C   UNL     1       1.208  -0.384  -0.448  0.00  0.00    +0.000 C 
ATOM      9  O   UNL     1       2.527  -0.016  -0.064  0.00  0.00    +0.000 OA
ENDBRANCH   2   9
ENDBRANCH   1   5
BRANCH   1  10
ATOM     10  C   UNL     1       5.598  -4.873   3.142  0.00  0.00    +0.000 C 
BRANCH  10  11
ATOM     11  C   UNL     1       6.560  -5.811   3.829  0.00  0.00    +0.000 A 
ATOM     12  C   UNL     1       6.191  -6.468   5.015  0.00  0.00    +0.000 A 
ATOM     13  C   UNL     1       7.087  -7.327   5.654  0.00  0.00    +0.000 A 
ATOM     14  C   UNL     1       8.350  -7.527   5.112  0.00  0.00    +0.000 A 
ATOM     15  C   UNL     1       8.739  -6.882   3.945  0.00  0.00    +0.000 A 
ATOM     16  C   UNL     1       7.846  -6.021   3.304  0.00  0.00    +0.000 A 
ATOM     17  F   UNL     1       9.208  -8.352   5.727  0.00  0.00    +0.000 F 
ENDBRANCH  10  11
ENDBRANCH   1  10
TORSDOF 4
