REMARK  Name = *****
REMARK  4 active torsions:
REMARK  status: ('A' for Active; 'I' for Inactive)
REMARK    1  A    between atoms: C_1  and  C_2
REMARK    2  A    between atoms: C_5  and  C_8
REMARK    3  A    between atoms: C_9  and  C_10
REMARK    4  A    between atoms: C_15  and  C_17
REMARK                            x       y       z     vdW  Elec       q    Type
REMARK                         _______ _______ _______ _____ _____    ______ ____
ROOT
ATOM      1  C   UNL     1      -3.287  -0.019  -0.042  0.00  0.00    +0.000 C 
ATOM      2  C   UNL     1      -4.083   1.060  -0.123  0.00  0.00    +0.000 C 
ENDROOT
BRANCH   2   3
ATOM      3  C   UNL     1      -5.534   1.027  -0.123  0.00  0.00    +0.000 A 
ATOM      4  C   UNL     1      -6.267   2.145  -0.216  0.00  0.00    +0.000 A 
ATOM      5  C   UNL     1      -7.734   2.038  -0.209  0.00  0.00    +0.000 A 
ATOM      6  O   UNL     1      -8.448   3.029  -0.290  0.00  0.00    +0.000 OA
ATOM      7  C   UNL     1      -8.307   0.686  -0.100  0.00  0.00    +0.000 A 
ATOM      8  C   UNL     1      -7.479  -0.363  -0.012  0.00  0.00    +0.000 A 
ATOM      9  O   UNL     1      -6.099  -0.235  -0.020  0.00  0.00    +0.000 OA
ATOM     10  C   UNL     1      -7.959  -1.775   0.102  0.00  0.00    +0.000 C 
ENDBRANCH   2   3
BRANCH   1  15
ATOM     11  C   UNL     1       2.502   0.060  -0.067  0.00  0.00    +0.000 C 
ATOM     12  C   UNL     1       1.002   0.070  -0.081  0.00  0.00    +0.000 A 
ATOM     13  C   UNL     1       0.290   1.031   0.644  0.00  0.00    +0.000 A 
ATOM     14  C   UNL     1      -1.108   1.019   0.657  0.00  0.00    +0.000 A 
ATOM     15  C   UNL     1      -1.819   0.046  -0.055  0.00  0.00    +0.000 A 
ATOM     16  C   UNL     1      -1.104  -0.934  -0.754  0.00  0.00    +0.000 A 
ATOM     17  C   UNL     1       0.294  -0.922  -0.767  0.00  0.00    +0.000 A 
ENDBRANCH   1  15
TORSDOF 2
