REMARK  Name = *****
REMARK  3 active torsions:
REMARK  status: ('A' for Active; 'I' for Inactive)
REMARK    1  A    between atoms: C_4  and  O_7
REMARK    2  A    between atoms: O_7  and  C_8
REMARK    3  A    between atoms: C_8  and  C_10
REMARK                            x       y       z     vdW  Elec       q    Type
REMARK                         _______ _______ _______ _____ _____    ______ ____
ROOT
ATOM      1  C   UNL     1       3.285  -2.034   0.112  0.00  0.00    +0.000 C 
ATOM      2  O   UNL     1       2.887  -2.747   1.015  0.00  0.00    +0.000 OA
ENDROOT
BRANCH   1   3
ATOM      3  C   UNL     1       4.550  -2.234  -0.618  0.00  0.00    +0.000 A 
ATOM      4  C   UNL     1       5.765  -2.387   0.059  0.00  0.00    +0.000 A 
ATOM      5  C   UNL     1       6.939  -2.606  -0.671  0.00  0.00    +0.000 A 
ATOM      6  C   UNL     1       6.899  -2.673  -2.066  0.00  0.00    +0.000 A 
ATOM      7  C   UNL     1       5.686  -2.519  -2.733  0.00  0.00    +0.000 A 
ATOM      8  C   UNL     1       4.510  -2.301  -2.019  0.00  0.00    +0.000 A 
ATOM      9 CL   UNL     1       5.639  -2.602  -4.450  0.00  0.00    +0.000 Cl
ATOM     10 CL   UNL     1       5.905  -2.267   1.775  0.00  0.00    +0.000 Cl
ENDBRANCH   1   3
BRANCH   1  11
ATOM     11  O   UNL     1       2.665  -0.945  -0.406  0.00  0.00    +0.000 OA
BRANCH  11  15
ATOM     12  C   UNL     1      -1.317   0.502  -0.180  0.00  0.00    +0.000 C 
ATOM     13  C   UNL     1      -1.091  -0.988   0.062  0.00  0.00    +0.000 C 
ATOM     14  C   UNL     1       0.283  -1.435  -0.426  0.00  0.00    +0.000 C 
ATOM     15  C   UNL     1       1.404  -0.596   0.195  0.00  0.00    +0.000 C 
ATOM     16  C   UNL     1       1.172   0.895  -0.063  0.00  0.00    +0.000 C 
ATOM     17  C   UNL     1      -0.200   1.347   0.426  0.00  0.00    +0.000 C 
ENDBRANCH  11  15
ENDBRANCH   1  11
TORSDOF 3
