REMARK  Name = *****
REMARK  4 active torsions:
REMARK  status: ('A' for Active; 'I' for Inactive)
REMARK    1  A    between atoms: C_4  and  C_7
REMARK    2  A    between atoms: C_7  and  O_8
REMARK    3  A    between atoms: O_8  and  O_9
REMARK    4  A    between atoms: O_9  and  C_10
REMARK                            x       y       z     vdW  Elec       q    Type
REMARK                         _______ _______ _______ _____ _____    ______ ____
ROOT
ATOM      1  O   UNL     1      -3.534  -0.966  -0.157  0.00  0.00    +0.000 OA
ENDROOT
BRANCH   1   2
ATOM      2  C   UNL     1      -2.894   0.303  -0.286  0.00  0.00    +0.000 C 
BRANCH   2   6
ATOM      3  C   UNL     1       1.381  -0.098   0.145  0.00  0.00    +0.000 A 
ATOM      4  C   UNL     1       0.677  -0.989  -0.662  0.00  0.00    +0.000 A 
ATOM      5  C   UNL     1      -0.707  -0.865  -0.797  0.00  0.00    +0.000 A 
ATOM      6  C   UNL     1      -1.404   0.146  -0.117  0.00  0.00    +0.000 A 
ATOM      7  C   UNL     1      -0.681   1.042   0.684  0.00  0.00    +0.000 A 
ATOM      8  C   UNL     1       0.704   0.917   0.816  0.00  0.00    +0.000 A 
ENDBRANCH   2   6
ENDBRANCH   1   2
BRANCH   1   9
ATOM      9  O   UNL     1      -4.957  -0.709  -0.350  0.00  0.00    +0.000 OA
BRANCH   9  10
ATOM     10  C   UNL     1      -5.626  -1.013   0.814  0.00  0.00    +0.000 A 
ATOM     11  C   UNL     1      -5.099  -1.791   1.846  0.00  0.00    +0.000 A 
ATOM     12  C   UNL     1      -5.867  -2.054   2.983  0.00  0.00    +0.000 A 
ATOM     13  C   UNL     1      -7.162  -1.545   3.087  0.00  0.00    +0.000 A 
ATOM     14  C   UNL     1      -7.693  -0.777   2.053  0.00  0.00    +0.000 A 
ATOM     15  C   UNL     1      -6.927  -0.514   0.916  0.00  0.00    +0.000 A 
ENDBRANCH   9  10
ENDBRANCH   1   9
TORSDOF 4
