REMARK  Name = *****
REMARK  2 active torsions:
REMARK  status: ('A' for Active; 'I' for Inactive)
REMARK    1  A    between atoms: C_3  and  C_8
REMARK    2  A    between atoms: N_9  and  C_10
REMARK                            x       y       z     vdW  Elec       q    Type
REMARK                         _______ _______ _______ _____ _____    ______ ____
ROOT
ATOM      1  C   UNL     1       2.318   2.623   0.133  0.00  0.00    +0.000 C 
ATOM      2  N   UNL     1       1.787   3.691  -0.373  0.00  0.00    +0.000 NA
ENDROOT
BRANCH   1   5
ATOM      3  C   UNL     1       1.639  -1.043   0.612  0.00  0.00    +0.000 A 
ATOM      4  C   UNL     1       2.268   0.203   0.646  0.00  0.00    +0.000 A 
ATOM      5  C   UNL     1       1.634   1.316   0.085  0.00  0.00    +0.000 A 
ATOM      6  C   UNL     1       0.375   1.191  -0.509  0.00  0.00    +0.000 A 
ATOM      7  C   UNL     1      -0.244  -0.056  -0.538  0.00  0.00    +0.000 A 
ATOM      8  C   UNL     1       0.382  -1.172   0.019  0.00  0.00    +0.000 A 
ATOM      9 CL   UNL     1      -1.794  -0.226  -1.266  0.00  0.00    +0.000 Cl
ENDBRANCH   1   5
BRANCH   2  10
ATOM     10  C   UNL     1       2.543   4.864  -0.259  0.00  0.00    +0.000 A 
ATOM     11  C   UNL     1       3.470   5.206  -1.250  0.00  0.00    +0.000 A 
ATOM     12  C   UNL     1       4.212   6.383  -1.143  0.00  0.00    +0.000 A 
ATOM     13  C   UNL     1       4.015   7.219  -0.050  0.00  0.00    +0.000 A 
ATOM     14  C   UNL     1       3.086   6.902   0.935  0.00  0.00    +0.000 A 
ATOM     15  C   UNL     1       2.346   5.724   0.826  0.00  0.00    +0.000 A 
ATOM     16  F   UNL     1       4.726   8.349   0.053  0.00  0.00    +0.000 F 
ENDBRANCH   2  10
TORSDOF 2
