REMARK  Name = *****
REMARK  2 active torsions:
REMARK  status: ('A' for Active; 'I' for Inactive)
REMARK    1  A    between atoms: C_5  and  C_7
REMARK    2  A    between atoms: C_8  and  C_9
REMARK                            x       y       z     vdW  Elec       q    Type
REMARK                         _______ _______ _______ _____ _____    ______ ____
ROOT
ATOM      1  C   UNL     1       2.950   0.191  -0.320  0.00  0.00    +0.000 C 
ATOM      2  C   UNL     1       4.142   0.247  -0.455  0.00  0.00    +0.000 C 
ENDROOT
BRANCH   1   7
ATOM      3  C   UNL     1      -0.475  -1.217   0.072  0.00  0.00    +0.000 A 
ATOM      4  C   UNL     1      -1.253  -0.063   0.144  0.00  0.00    +0.000 A 
ATOM      5  C   UNL     1      -0.647   1.192   0.064  0.00  0.00    +0.000 A 
ATOM      6  C   UNL     1       0.739   1.294  -0.089  0.00  0.00    +0.000 A 
ATOM      7  C   UNL     1       1.526   0.136  -0.162  0.00  0.00    +0.000 A 
ATOM      8  C   UNL     1       0.910  -1.119  -0.081  0.00  0.00    +0.000 A 
ATOM      9 CL   UNL     1       1.427   2.879  -0.182  0.00  0.00    +0.000 Cl
ENDBRANCH   1   7
BRANCH   2  10
ATOM     10  C   UNL     1       5.560   0.335  -0.618  0.00  0.00    +0.000 A 
ATOM     11  C   UNL     1       6.177   1.588  -0.687  0.00  0.00    +0.000 A 
ATOM     12  C   UNL     1       7.561   1.676  -0.848  0.00  0.00    +0.000 A 
ATOM     13  C   UNL     1       8.315   0.511  -0.938  0.00  0.00    +0.000 A 
ATOM     14  C   UNL     1       7.713  -0.740  -0.871  0.00  0.00    +0.000 A 
ATOM     15  C   UNL     1       6.329  -0.830  -0.710  0.00  0.00    +0.000 A 
ATOM     16  F   UNL     1       9.643   0.596  -1.093  0.00  0.00    +0.000 F 
ENDBRANCH   2  10
TORSDOF 2
