REMARK  Name = *****
REMARK  5 active torsions:
REMARK  status: ('A' for Active; 'I' for Inactive)
REMARK    1  A    between atoms: C_1  and  C_2
REMARK    2  A    between atoms: C_4  and  C_17
REMARK    3  A    between atoms: C_4  and  C_18
REMARK    4  A    between atoms: C_6  and  C_8
REMARK    5  A    between atoms: C_9  and  C_10
REMARK                            x       y       z     vdW  Elec       q    Type
REMARK                         _______ _______ _______ _____ _____    ______ ____
ROOT
ATOM      1  C   UNL     1       0.845  -0.067  -0.350  0.00  0.00    +0.000 C 
ATOM      2  C   UNL     1       2.298  -0.226   0.073  0.00  0.00    +0.000 C 
ATOM      3  C   UNL     1       3.180   0.995  -0.127  0.00  0.00    +0.000 C 
ATOM      4  C   UNL     1       3.654   1.162  -1.570  0.00  0.00    +0.000 C 
ATOM      5  N   UNL     1       4.049  -0.116  -2.154  0.00  0.00    +0.000 NA
ATOM      6  C   UNL     1       3.645  -1.221  -1.652  0.00  0.00    +0.000 C 
ATOM      7  O   UNL     1       2.849  -1.383  -0.570  0.00  0.00    +0.000 OA
ATOM      8  C   UNL     1       2.604   1.804  -2.485  0.00  0.00    +0.000 C 
ATOM      9  C   UNL     1       4.904   2.062  -1.581  0.00  0.00    +0.000 C 
ENDROOT
BRANCH   6  10
ATOM     10  C   UNL     1       3.988  -2.569  -2.154  0.00  0.00    +0.000 C 
ATOM     11  C   UNL     1       4.744  -2.709  -3.253  0.00  0.00    +0.000 C 
BRANCH  11  12
ATOM     12  C   UNL     1       5.148  -4.005  -3.815  0.00  0.00    +0.000 A 
ATOM     13  C   UNL     1       4.298  -5.120  -3.817  0.00  0.00    +0.000 A 
ATOM     14  C   UNL     1       4.719  -6.321  -4.390  0.00  0.00    +0.000 A 
ATOM     15  C   UNL     1       5.980  -6.427  -4.974  0.00  0.00    +0.000 A 
ATOM     16  C   UNL     1       6.825  -5.319  -4.991  0.00  0.00    +0.000 A 
ATOM     17  C   UNL     1       6.408  -4.114  -4.420  0.00  0.00    +0.000 A 
ATOM     18 CL   UNL     1       3.668  -7.685  -4.380  0.00  0.00    +0.000 Cl
ENDBRANCH  11  12
ENDBRANCH   6  10
TORSDOF 2
