REMARK  Name = *****
REMARK  3 active torsions:
REMARK  status: ('A' for Active; 'I' for Inactive)
REMARK    1  A    between atoms: C_1  and  C_2
REMARK    2  A    between atoms: C_5  and  C_8
REMARK    3  A    between atoms: C_9  and  C_11
REMARK                            x       y       z     vdW  Elec       q    Type
REMARK                         _______ _______ _______ _____ _____    ______ ____
ROOT
ATOM      1  C   UNL     1      -3.774   0.350  -0.381  0.00  0.00    +0.000 C 
ATOM      2  C   UNL     1      -5.194   0.856  -0.582  0.00  0.00    +0.000 C 
ATOM      3  O   UNL     1      -4.260   0.764  -1.668  0.00  0.00    +0.000 OA
ENDROOT
BRANCH   1   8
ATOM      4  C   UNL     1      -2.842  -5.351   0.503  0.00  0.00    +0.000 C 
ATOM      5  C   UNL     1      -3.055  -3.883   0.286  0.00  0.00    +0.000 A 
ATOM      6  C   UNL     1      -2.697  -3.285  -0.924  0.00  0.00    +0.000 A 
ATOM      7  C   UNL     1      -2.927  -1.922  -1.136  0.00  0.00    +0.000 A 
ATOM      8  C   UNL     1      -3.534  -1.120  -0.158  0.00  0.00    +0.000 A 
ATOM      9  C   UNL     1      -3.898  -1.739   1.049  0.00  0.00    +0.000 A 
ATOM     10  C   UNL     1      -3.670  -3.102   1.268  0.00  0.00    +0.000 A 
ENDBRANCH   1   8
BRANCH   2  11
ATOM     11  C   UNL     1      -5.571   2.232  -0.097  0.00  0.00    +0.000 A 
ATOM     12  C   UNL     1      -5.844   3.276  -0.998  0.00  0.00    +0.000 A 
ATOM     13  C   UNL     1      -6.204   4.551  -0.550  0.00  0.00    +0.000 A 
ATOM     14  C   UNL     1      -6.300   4.800   0.815  0.00  0.00    +0.000 A 
ATOM     15  C   UNL     1      -6.042   3.785   1.732  0.00  0.00    +0.000 A 
ATOM     16  C   UNL     1      -5.682   2.513   1.276  0.00  0.00    +0.000 A 
ATOM     17 CL   UNL     1      -6.743   6.365   1.373  0.00  0.00    +0.000 Cl
ENDBRANCH   2  11
TORSDOF 2
