REMARK  Name = *****
REMARK  5 active torsions:
REMARK  status: ('A' for Active; 'I' for Inactive)
REMARK    1  A    between atoms: C_1  and  C_2
REMARK    2  A    between atoms: C_4  and  C_15
REMARK    3  A    between atoms: C_6  and  O_8
REMARK    4  A    between atoms: O_8  and  C_9
REMARK    5  A    between atoms: C_9  and  C_11
REMARK                            x       y       z     vdW  Elec       q    Type
REMARK                         _______ _______ _______ _____ _____    ______ ____
ROOT
ATOM      1  C   UNL     1       2.544   1.147   0.285  0.00  0.00    +0.000 C 
ATOM      2  C   UNL     1       1.274   0.355   0.188  0.00  0.00    +0.000 A 
ATOM      3  C   UNL     1       0.050   0.999  -0.050  0.00  0.00    +0.000 A 
ATOM      4  C   UNL     1      -1.140   0.268  -0.182  0.00  0.00    +0.000 A 
ATOM      5  C   UNL     1      -1.098  -1.126  -0.066  0.00  0.00    +0.000 A 
ATOM      6  C   UNL     1       0.123  -1.767   0.135  0.00  0.00    +0.000 A 
ATOM      7  C   UNL     1       1.305  -1.041   0.275  0.00  0.00    +0.000 A 
ATOM      8  C   UNL     1      -2.449   0.971  -0.384  0.00  0.00    +0.000 C 
ENDROOT
BRANCH   6   9
ATOM      9  O   UNL     1       0.095  -3.161   0.290  0.00  0.00    +0.000 OA
BRANCH   9  10
ATOM     10  C   UNL     1       0.916  -3.926  -0.544  0.00  0.00    +0.000 C 
ATOM     11  O   UNL     1       1.635  -3.461  -1.427  0.00  0.00    +0.000 OA
BRANCH  10  12
ATOM     12  C   UNL     1       0.784  -5.433  -0.204  0.00  0.00    +0.000 C 
ATOM     13  C   UNL     1       2.084  -6.194   0.175  0.00  0.00    +0.000 C 
ATOM     14  C   UNL     1       1.509  -7.415  -0.567  0.00  0.00    +0.000 C 
ATOM     15  C   UNL     1       0.657  -6.429  -1.388  0.00  0.00    +0.000 C 
ENDBRANCH  10  12
ENDBRANCH   9  10
ENDBRANCH   6   9
TORSDOF 3
