REMARK  Name = *****
REMARK  4 active torsions:
REMARK  status: ('A' for Active; 'I' for Inactive)
REMARK    1  A    between atoms: C_3  and  O_18
REMARK    2  A    between atoms: C_6  and  C_7
REMARK    3  A    between atoms: C_8  and  C_9
REMARK    4  A    between atoms: C_12  and  C_14
REMARK                            x       y       z     vdW  Elec       q    Type
REMARK                         _______ _______ _______ _____ _____    ______ ____
ROOT
ATOM      1  C   UNL     1      -3.416  -0.060  -0.148  0.00  0.00    +0.000 C 
ATOM      2  C   UNL     1      -4.172  -1.168  -0.095  0.00  0.00    +0.000 C 
ENDROOT
BRANCH   1   8
ATOM      3  C   UNL     1      -1.229  -0.954   0.725  0.00  0.00    +0.000 A 
ATOM      4  C   UNL     1       0.168  -0.912   0.769  0.00  0.00    +0.000 A 
ATOM      5  C   UNL     1       0.849   0.026   0.001  0.00  0.00    +0.000 A 
ATOM      6  C   UNL     1       0.157   0.921  -0.804  0.00  0.00    +0.000 A 
ATOM      7  C   UNL     1      -1.239   0.877  -0.848  0.00  0.00    +0.000 A 
ATOM      8  C   UNL     1      -1.946  -0.070  -0.095  0.00  0.00    +0.000 A 
BRANCH   5   9
ATOM      9  O   UNL     1       2.210   0.103   0.013  0.00  0.00    +0.000 OA
ATOM     10  H   UNL     1       2.708  -0.485   0.545  0.00  0.00    +0.000 HD
ENDBRANCH   5   9
ENDBRANCH   1   8
BRANCH   2  11
ATOM     11  C   UNL     1      -5.589  -1.110  -0.161  0.00  0.00    +0.000 A 
ATOM     12  N   UNL     1      -6.412  -2.146  -0.099  0.00  0.00    +0.000 NA
ATOM     13  N   UNL     1      -7.702  -1.678  -0.199  0.00  0.00    +0.000 NA
ATOM     14  C   UNL     1      -7.619  -0.369  -0.320  0.00  0.00    +0.000 A 
ATOM     15  O   UNL     1      -6.313   0.062  -0.303  0.00  0.00    +0.000 OA
BRANCH  14  16
ATOM     16  C   UNL     1      -8.688   0.663  -0.468  0.00  0.00    +0.000 C 
ATOM     17 CL   UNL     1     -10.323  -0.071  -0.454  0.00  0.00    +0.000 Cl
ATOM     18 CL   UNL     1      -8.596   1.845   0.879  0.00  0.00    +0.000 Cl
ATOM     19 CL   UNL     1      -8.483   1.542  -2.019  0.00  0.00    +0.000 Cl
ENDBRANCH  14  16
ENDBRANCH   2  11
TORSDOF 4
