REMARK  Name = *****
REMARK  4 active torsions:
REMARK  status: ('A' for Active; 'I' for Inactive)
REMARK    1  A    between atoms: C_1  and  C_2
REMARK    2  A    between atoms: C_3  and  C_16
REMARK    3  A    between atoms: C_5  and  C_7
REMARK    4  A    between atoms: C_8  and  C_9
REMARK                            x       y       z     vdW  Elec       q    Type
REMARK                         _______ _______ _______ _____ _____    ______ ____
ROOT
ATOM      1  C   UNL     1       5.849  -1.467  -0.066  0.00  0.00    +0.000 C 
ATOM      2  C   UNL     1       5.885  -2.808  -0.018  0.00  0.00    +0.000 C 
ENDROOT
BRANCH   1   7
ATOM      3  C   UNL     1       2.317   2.160  -0.146  0.00  0.00    +0.000 C 
ATOM      4  C   UNL     1       2.987   0.838  -0.116  0.00  0.00    +0.000 A 
ATOM      5  C   UNL     1       2.413  -0.416  -0.081  0.00  0.00    +0.000 A 
ATOM      6  O   UNL     1       3.375  -1.375  -0.060  0.00  0.00    +0.000 OA
ATOM      7  C   UNL     1       4.610  -0.768  -0.079  0.00  0.00    +0.000 A 
ATOM      8  C   UNL     1       4.391   0.603  -0.115  0.00  0.00    +0.000 A 
ATOM      9  C   UNL     1       1.022  -0.915  -0.064  0.00  0.00    +0.000 C 
ENDBRANCH   1   7
BRANCH   2  10
ATOM     10  C   UNL     1       7.123  -3.601  -0.011  0.00  0.00    +0.000 A 
ATOM     11  C   UNL     1       8.276  -3.188   0.668  0.00  0.00    +0.000 A 
ATOM     12  C   UNL     1       9.417  -3.992   0.667  0.00  0.00    +0.000 A 
ATOM     13  C   UNL     1       9.423  -5.217   0.004  0.00  0.00    +0.000 A 
ATOM     14  C   UNL     1       8.275  -5.645  -0.660  0.00  0.00    +0.000 A 
ATOM     15  C   UNL     1       7.130  -4.843  -0.662  0.00  0.00    +0.000 A 
ATOM     16 CL   UNL     1      10.830  -3.468   1.499  0.00  0.00    +0.000 Cl
ENDBRANCH   2  10
TORSDOF 2
