REMARK  Name = *****
REMARK  3 active torsions:
REMARK  status: ('A' for Active; 'I' for Inactive)
REMARK    1  A    between atoms: C_4  and  C_7
REMARK    2  A    between atoms: C_8  and  S_9
REMARK    3  A    between atoms: S_9  and  C_11
REMARK                            x       y       z     vdW  Elec       q    Type
REMARK                         _______ _______ _______ _____ _____    ______ ____
ROOT
ATOM      1  C   UNL     1      -2.877   0.004  -0.160  0.00  0.00    +0.000 C 
ATOM      2  C   UNL     1      -3.660  -1.051   0.112  0.00  0.00    +0.000 C 
ENDROOT
BRANCH   1   6
ATOM      3  C   UNL     1       1.382   0.099  -0.362  0.00  0.00    +0.000 A 
ATOM      4  C   UNL     1       0.618   0.320  -1.507  0.00  0.00    +0.000 A 
ATOM      5  C   UNL     1      -0.776   0.290  -1.433  0.00  0.00    +0.000 A 
ATOM      6  C   UNL     1      -1.413   0.030  -0.215  0.00  0.00    +0.000 A 
ATOM      7  C   UNL     1      -0.640  -0.176   0.934  0.00  0.00    +0.000 A 
ATOM      8  C   UNL     1       0.754  -0.146   0.858  0.00  0.00    +0.000 A 
ENDBRANCH   1   6
BRANCH   2   9
ATOM      9  S   UNL     1      -2.998  -2.677   0.456  0.00  0.00    +0.000 S 
ATOM     10  O   UNL     1      -4.144  -3.410   1.094  0.00  0.00    +0.000 OA
BRANCH   9  11
ATOM     11  C   UNL     1      -2.913  -3.314  -1.236  0.00  0.00    +0.000 A 
ATOM     12  C   UNL     1      -1.703  -3.253  -1.935  0.00  0.00    +0.000 A 
ATOM     13  C   UNL     1      -1.621  -3.737  -3.242  0.00  0.00    +0.000 A 
ATOM     14  C   UNL     1      -2.747  -4.290  -3.853  0.00  0.00    +0.000 A 
ATOM     15  C   UNL     1      -3.953  -4.364  -3.157  0.00  0.00    +0.000 A 
ATOM     16  C   UNL     1      -4.036  -3.879  -1.851  0.00  0.00    +0.000 A 
ENDBRANCH   9  11
ENDBRANCH   2   9
TORSDOF 3
