REMARK  Name = *****
REMARK  4 active torsions:
REMARK  status: ('A' for Active; 'I' for Inactive)
REMARK    1  A    between atoms: C_2  and  C_3
REMARK    2  A    between atoms: C_2  and  C_9
REMARK    3  A    between atoms: C_3  and  C_4
REMARK    4  A    between atoms: C_9  and  C_10
REMARK                            x       y       z     vdW  Elec       q    Type
REMARK                         _______ _______ _______ _____ _____    ______ ____
ROOT
ATOM      1  C   UNL     1       0.901   0.382  -0.187  0.00  0.00    +0.000 C 
ATOM      2  C   UNL     1       2.196   0.047  -0.052  0.00  0.00    +0.000 C 
ENDROOT
BRANCH   2   3
ATOM      3  C   UNL     1       2.641  -0.997   0.957  0.00  0.00    +0.000 C 
BRANCH   3   4
ATOM      4  C   UNL     1       3.046  -2.343   0.327  0.00  0.00    +0.000 C 
ATOM      5  C   UNL     1       1.879  -3.125  -0.228  0.00  0.00    +0.000 C 
ATOM      6  C   UNL     1       1.779  -4.310   0.395  0.00  0.00    +0.000 C 
ATOM      7  C   UNL     1       2.827  -4.422   1.377  0.00  0.00    +0.000 C 
ATOM      8  C   UNL     1       3.574  -3.309   1.363  0.00  0.00    +0.000 C 
ENDBRANCH   3   4
ENDBRANCH   2   3
BRANCH   2   9
ATOM      9  C   UNL     1       3.267   0.693  -0.912  0.00  0.00    +0.000 C 
BRANCH   9  10
ATOM     10  C   UNL     1       3.688   2.098  -0.441  0.00  0.00    +0.000 C 
ATOM     11  C   UNL     1       4.669   2.731  -1.402  0.00  0.00    +0.000 C 
ATOM     12  C   UNL     1       5.815   3.023  -0.766  0.00  0.00    +0.000 C 
ATOM     13  C   UNL     1       5.704   2.638   0.618  0.00  0.00    +0.000 C 
ATOM     14  C   UNL     1       4.493   2.107   0.838  0.00  0.00    +0.000 C 
ENDBRANCH   9  10
ENDBRANCH   2   9
TORSDOF 4
