REMARK  Name = *****
REMARK  5 active torsions:
REMARK  status: ('A' for Active; 'I' for Inactive)
REMARK    1  A    between atoms: C_1  and  O_2
REMARK    2  A    between atoms: O_2  and  C_3
REMARK    3  A    between atoms: C_3  and  C_4
REMARK    4  A    between atoms: C_3  and  S_10
REMARK    5  A    between atoms: S_10  and  C_11
REMARK                            x       y       z     vdW  Elec       q    Type
REMARK                         _______ _______ _______ _____ _____    ______ ____
ROOT
ATOM      1  C   UNL     1       3.153  -0.456  -0.775  0.00  0.00    +0.000 C 
ENDROOT
BRANCH   1   2
ATOM      2  C   UNL     1       2.546  -0.535  -2.173  0.00  0.00    +0.000 A 
ATOM      3  C   UNL     1       3.268  -0.275  -3.350  0.00  0.00    +0.000 A 
ATOM      4  C   UNL     1       2.648  -0.338  -4.601  0.00  0.00    +0.000 A 
ATOM      5  C   UNL     1       1.294  -0.650  -4.697  0.00  0.00    +0.000 A 
ATOM      6  C   UNL     1       0.556  -0.893  -3.542  0.00  0.00    +0.000 A 
ATOM      7  C   UNL     1       1.174  -0.832  -2.292  0.00  0.00    +0.000 A 
ENDBRANCH   1   2
BRANCH   1   9
ATOM      8  C   UNL     1       3.216   1.958  -0.754  0.00  0.00    +0.000 C 
ATOM      9  O   UNL     1       2.809   0.764  -0.099  0.00  0.00    +0.000 OA
ENDBRANCH   1   9
BRANCH   1  10
ATOM     10  S   UNL     1       4.941  -0.866  -0.674  0.00  0.00    +0.000 S 
BRANCH  10  11
ATOM     11  C   UNL     1       5.066  -1.494   0.991  0.00  0.00    +0.000 A 
ATOM     12  C   UNL     1       5.707  -2.725   1.192  0.00  0.00    +0.000 A 
ATOM     13  C   UNL     1       5.845  -3.249   2.479  0.00  0.00    +0.000 A 
ATOM     14  C   UNL     1       5.352  -2.537   3.564  0.00  0.00    +0.000 A 
ATOM     15  C   UNL     1       4.729  -1.309   3.388  0.00  0.00    +0.000 A 
ATOM     16  C   UNL     1       4.591  -0.783   2.100  0.00  0.00    +0.000 A 
ATOM     17  F   UNL     1       5.485  -3.039   4.799  0.00  0.00    +0.000 F 
ENDBRANCH  10  11
ENDBRANCH   1  10
TORSDOF 4
