REMARK  Name = *****
REMARK  3 active torsions:
REMARK  status: ('A' for Active; 'I' for Inactive)
REMARK    1  A    between atoms: C_4  and  C_6
REMARK    2  A    between atoms: C_6  and  C_7
REMARK    3  A    between atoms: C_7  and  C_8
REMARK                            x       y       z     vdW  Elec       q    Type
REMARK                         _______ _______ _______ _____ _____    ______ ____
ROOT
ATOM      1  C   UNL     1      -2.661   1.344   1.900  0.00  0.00    +0.000 C 
ENDROOT
BRANCH   1   2
ATOM      2  C   UNL     1      -3.113   1.886   3.235  0.00  0.00    +0.000 A 
ATOM      3  C   UNL     1      -3.114   3.268   3.477  0.00  0.00    +0.000 A 
ATOM      4  C   UNL     1      -3.513   3.766   4.718  0.00  0.00    +0.000 A 
ATOM      5  C   UNL     1      -3.907   2.883   5.716  0.00  0.00    +0.000 A 
ATOM      6  C   UNL     1      -3.908   1.511   5.498  0.00  0.00    +0.000 A 
ATOM      7  C   UNL     1      -3.508   1.011   4.258  0.00  0.00    +0.000 A 
ATOM      8  F   UNL     1      -4.289   3.362   6.907  0.00  0.00    +0.000 F 
ENDBRANCH   1   2
BRANCH   1   9
ATOM      9  C   UNL     1      -1.140   1.167   1.852  0.00  0.00    +0.000 C 
BRANCH   9  13
ATOM     10  C   UNL     1       1.189  -0.737  -0.371  0.00  0.00    +0.000 C 
ATOM     11  C   UNL     1      -0.151  -1.245  -0.880  0.00  0.00    +0.000 C 
ATOM     12  C   UNL     1      -1.137  -0.783   0.180  0.00  0.00    +0.000 C 
ATOM     13  C   UNL     1      -0.652   0.630   0.504  0.00  0.00    +0.000 C 
ATOM     14  C   UNL     1       0.879   0.527   0.432  0.00  0.00    +0.000 C 
ENDBRANCH   9  13
ENDBRANCH   1   9
TORSDOF 3
