REMARK  Name = *****
REMARK  5 active torsions:
REMARK  status: ('A' for Active; 'I' for Inactive)
REMARK    1  A    between atoms: C_1  and  O_2
REMARK    2  A    between atoms: O_2  and  C_3
REMARK    3  A    between atoms: C_5  and  S_9
REMARK    4  A    between atoms: S_9  and  C_10
REMARK    5  A    between atoms: C_10  and  C_12
REMARK                            x       y       z     vdW  Elec       q    Type
REMARK                         _______ _______ _______ _____ _____    ______ ____
ROOT
ATOM      1  S   UNL     1       2.436   4.556  -2.108  0.00  0.00    +0.000 S 
ENDROOT
BRANCH   1   4
ATOM      2  C   UNL     1       2.945   0.661  -1.003  0.00  0.00    +0.000 A 
ATOM      3  C   UNL     1       2.513   1.988  -1.040  0.00  0.00    +0.000 A 
ATOM      4  C   UNL     1       2.968   2.854  -2.045  0.00  0.00    +0.000 A 
ATOM      5  C   UNL     1       3.877   2.388  -2.999  0.00  0.00    +0.000 A 
ATOM      6  C   UNL     1       4.315   1.065  -2.962  0.00  0.00    +0.000 A 
ATOM      7  C   UNL     1       3.847   0.207  -1.968  0.00  0.00    +0.000 A 
BRANCH   2   9
ATOM      8  C   UNL     1       1.607   0.116   0.885  0.00  0.00    +0.000 C 
ATOM      9  O   UNL     1       2.569  -0.281  -0.085  0.00  0.00    +0.000 OA
ENDBRANCH   2   9
ENDBRANCH   1   4
BRANCH   1  10
ATOM     10  C   UNL     1       0.702   4.335  -2.320  0.00  0.00    +0.000 C 
ATOM     11  O   UNL     1       0.003   3.966  -1.383  0.00  0.00    +0.000 OA
BRANCH  10  12
ATOM     12  C   UNL     1       0.100   4.614  -3.660  0.00  0.00    +0.000 A 
ATOM     13  C   UNL     1       0.807   5.176  -4.733  0.00  0.00    +0.000 A 
ATOM     14  C   UNL     1       0.170   5.408  -5.958  0.00  0.00    +0.000 A 
ATOM     15  C   UNL     1      -1.175   5.081  -6.118  0.00  0.00    +0.000 A 
ATOM     16  C   UNL     1      -1.893   4.525  -5.063  0.00  0.00    +0.000 A 
ATOM     17  C   UNL     1      -1.257   4.294  -3.838  0.00  0.00    +0.000 A 
ATOM     18 CL   UNL     1      -1.953   5.369  -7.624  0.00  0.00    +0.000 Cl
ENDBRANCH  10  12
ENDBRANCH   1  10
TORSDOF 4
