REMARK  Name = *****
REMARK  1 active torsions:
REMARK  status: ('A' for Active; 'I' for Inactive)
REMARK    1  A    between atoms: N_8  and  C_13
REMARK                            x       y       z     vdW  Elec       q    Type
REMARK                         _______ _______ _______ _____ _____    ______ ____
ROOT
ATOM      1  C   UNL     1      -2.661   0.811   0.004  0.00  0.00    +0.000 C 
ATOM      2  C   UNL     1      -2.620  -0.617  -0.533  0.00  0.00    +0.000 C 
ATOM      3  C   UNL     1      -1.460  -1.407   0.062  0.00  0.00    +0.000 C 
ATOM      4  C   UNL     1      -0.128  -0.689  -0.146  0.00  0.00    +0.000 C 
ATOM      5  C   UNL     1      -0.167   0.735   0.426  0.00  0.00    +0.000 C 
ATOM      6  C   UNL     1      -1.326   1.529  -0.189  0.00  0.00    +0.000 C 
ATOM      7  C   UNL     1       1.177   1.446   0.197  0.00  0.00    +0.000 C 
ATOM      8  N   UNL     1       2.259   0.736   0.892  0.00  0.00    +0.000 N 
ATOM      9  P   UNL     1       2.384  -0.818   0.341  0.00  0.00    +0.000 P 
ATOM     10  O   UNL     1       2.896  -1.093  -1.046  0.00  0.00    +0.000 OA
ATOM     11  O   UNL     1       0.890  -1.427   0.510  0.00  0.00    +0.000 OA
ATOM     12 CL   UNL     1       3.379  -1.955   1.664  0.00  0.00    +0.000 Cl
ENDROOT
BRANCH   8  13
ATOM     13  C   UNL     1       3.389   1.556   1.117  0.00  0.00    +0.000 A 
ATOM     14  C   UNL     1       3.288   2.654   1.988  0.00  0.00    +0.000 A 
ATOM     15  C   UNL     1       4.387   3.476   2.253  0.00  0.00    +0.000 A 
ATOM     16  C   UNL     1       5.613   3.209   1.654  0.00  0.00    +0.000 A 
ATOM     17  C   UNL     1       5.739   2.120   0.797  0.00  0.00    +0.000 A 
ATOM     18  C   UNL     1       4.638   1.298   0.534  0.00  0.00    +0.000 A 
ENDBRANCH   8  13
TORSDOF 1
