REMARK  Name = *****
REMARK  4 active torsions:
REMARK  status: ('A' for Active; 'I' for Inactive)
REMARK    1  A    between atoms: C_2  and  C_3
REMARK    2  A    between atoms: C_3  and  C_4
REMARK    3  A    between atoms: C_3  and  C_11
REMARK    4  A    between atoms: C_4  and  C_5
REMARK                            x       y       z     vdW  Elec       q    Type
REMARK                         _______ _______ _______ _____ _____    ______ ____
ROOT
ATOM      1  C   UNL     1       3.192   1.160   0.515  0.00  0.00    +0.000 C 
ENDROOT
BRANCH   1   2
ATOM      2  C   UNL     1       4.706   0.969   0.457  0.00  0.00    +0.000 A 
ATOM      3  C   UNL     1       5.498   1.888  -0.250  0.00  0.00    +0.000 A 
ATOM      4  C   UNL     1       6.886   1.741  -0.302  0.00  0.00    +0.000 A 
ATOM      5  C   UNL     1       7.501   0.674   0.349  0.00  0.00    +0.000 A 
ATOM      6  C   UNL     1       6.729  -0.247   1.053  0.00  0.00    +0.000 A 
ATOM      7  C   UNL     1       5.342  -0.100   1.109  0.00  0.00    +0.000 A 
ENDBRANCH   1   2
BRANCH   1   9
ATOM      8  C   UNL     1       1.737   0.018  -1.210  0.00  0.00    +0.000 C 
ATOM      9  C   UNL     1       2.465  -0.030  -0.085  0.00  0.00    +0.000 C 
ENDBRANCH   1   9
BRANCH   1  10
ATOM     10  C   UNL     1       2.742   1.454   1.968  0.00  0.00    +0.000 C 
BRANCH  10  11
ATOM     11  C   UNL     1       1.302   1.904   2.090  0.00  0.00    +0.000 A 
ATOM     12  C   UNL     1       0.343   1.068   2.677  0.00  0.00    +0.000 A 
ATOM     13  C   UNL     1      -0.985   1.483   2.791  0.00  0.00    +0.000 A 
ATOM     14  C   UNL     1      -1.367   2.737   2.318  0.00  0.00    +0.000 A 
ATOM     15  C   UNL     1      -0.422   3.578   1.733  0.00  0.00    +0.000 A 
ATOM     16  C   UNL     1       0.907   3.165   1.622  0.00  0.00    +0.000 A 
ENDBRANCH  10  11
ENDBRANCH   1  10
TORSDOF 4
