REMARK  Name = *****
REMARK  4 active torsions:
REMARK  status: ('A' for Active; 'I' for Inactive)
REMARK    1  A    between atoms: C_4  and  S_7
REMARK    2  A    between atoms: S_7  and  C_8
REMARK    3  A    between atoms: C_8  and  C_9
REMARK    4  A    between atoms: C_14  and  C_15
REMARK                            x       y       z     vdW  Elec       q    Type
REMARK                         _______ _______ _______ _____ _____    ______ ____
ROOT
ATOM      1  C   UNL     1      -3.949  -0.971  -0.480  0.00  0.00    +0.000 C 
ENDROOT
BRANCH   1   2
ATOM      2  C   UNL     1      -5.428  -0.675  -0.606  0.00  0.00    +0.000 A 
ATOM      3  C   UNL     1      -5.919  -0.171  -1.826  0.00  0.00    +0.000 A 
ATOM      4  C   UNL     1      -7.272   0.135  -1.983  0.00  0.00    +0.000 A 
ATOM      5  C   UNL     1      -8.156  -0.051  -0.925  0.00  0.00    +0.000 A 
ATOM      6  C   UNL     1      -7.687  -0.540   0.294  0.00  0.00    +0.000 A 
ATOM      7  C   UNL     1      -6.328  -0.849   0.464  0.00  0.00    +0.000 A 
BRANCH   7   8
ATOM      8  C   UNL     1      -5.899  -1.347   1.741  0.00  0.00    +0.000 C 
ATOM      9  N   UNL     1      -5.558  -1.767   2.768  0.00  0.00    +0.000 NA
ENDBRANCH   7   8
ENDBRANCH   1   2
BRANCH   1  10
ATOM     10  S   UNL     1      -3.023   0.526  -0.003  0.00  0.00    +0.000 S 
BRANCH  10  14
ATOM     11  C   UNL     1       1.165  -1.030   1.069  0.00  0.00    +0.000 A 
ATOM     12  C   UNL     1       0.434  -1.689   0.084  0.00  0.00    +0.000 A 
ATOM     13  C   UNL     1      -0.845  -1.240  -0.261  0.00  0.00    +0.000 A 
ATOM     14  C   UNL     1      -1.409  -0.135   0.385  0.00  0.00    +0.000 A 
ATOM     15  C   UNL     1      -0.658   0.527   1.365  0.00  0.00    +0.000 A 
ATOM     16  C   UNL     1       0.621   0.081   1.708  0.00  0.00    +0.000 A 
ENDBRANCH  10  14
ENDBRANCH   1  10
TORSDOF 4
