REMARK  Name = *****
REMARK  4 active torsions:
REMARK  status: ('A' for Active; 'I' for Inactive)
REMARK    1  A    between atoms: C_1  and  C_2
REMARK    2  A    between atoms: C_3  and  O_9
REMARK    3  A    between atoms: O_9  and  C_10
REMARK    4  A    between atoms: C_10  and  C_12
REMARK                            x       y       z     vdW  Elec       q    Type
REMARK                         _______ _______ _______ _____ _____    ______ ____
ROOT
ATOM      1  O   UNL     1      -2.605  -1.609   0.807  0.00  0.00    +0.000 OA
ENDROOT
BRANCH   1   4
ATOM      2  C   UNL     1      -2.892   1.097  -0.091  0.00  0.00    +0.000 C 
ATOM      3  C   UNL     1      -1.581   0.369  -0.131  0.00  0.00    +0.000 A 
ATOM      4  C   UNL     1      -1.478  -0.966   0.283  0.00  0.00    +0.000 A 
ATOM      5  C   UNL     1      -0.258  -1.648   0.265  0.00  0.00    +0.000 A 
ATOM      6  C   UNL     1       0.880  -1.001  -0.212  0.00  0.00    +0.000 A 
ATOM      7  C   UNL     1       0.790   0.319  -0.652  0.00  0.00    +0.000 A 
ATOM      8  C   UNL     1      -0.428   1.003  -0.614  0.00  0.00    +0.000 A 
ATOM      9 CL   UNL     1       2.196   1.118  -1.242  0.00  0.00    +0.000 Cl
ENDBRANCH   1   4
BRANCH   1  10
ATOM     10  C   UNL     1      -3.198  -2.491  -0.076  0.00  0.00    +0.000 C 
ATOM     11  O   UNL     1      -2.840  -2.753  -1.214  0.00  0.00    +0.000 OA
BRANCH  10  12
ATOM     12  C   UNL     1      -4.390  -3.117   0.565  0.00  0.00    +0.000 A 
ATOM     13  C   UNL     1      -5.098  -4.084  -0.167  0.00  0.00    +0.000 A 
ATOM     14  C   UNL     1      -6.223  -4.702   0.384  0.00  0.00    +0.000 A 
ATOM     15  C   UNL     1      -6.639  -4.352   1.663  0.00  0.00    +0.000 A 
ATOM     16  C   UNL     1      -5.952  -3.396   2.402  0.00  0.00    +0.000 A 
ATOM     17  C   UNL     1      -4.825  -2.775   1.856  0.00  0.00    +0.000 A 
ATOM     18  F   UNL     1      -7.718  -4.943   2.191  0.00  0.00    +0.000 F 
ENDBRANCH  10  12
ENDBRANCH   1  10
TORSDOF 3
