REMARK  Name = *****
REMARK  3 active torsions:
REMARK  status: ('A' for Active; 'I' for Inactive)
REMARK    1  A    between atoms: C_6  and  C_7
REMARK    2  A    between atoms: C_7  and  C_8
REMARK    3  A    between atoms: C_8  and  C_9
REMARK                            x       y       z     vdW  Elec       q    Type
REMARK                         _______ _______ _______ _____ _____    ______ ____
ROOT
ATOM      1  C   UNL     1       3.076  -2.687  -0.841  0.00  0.00    +0.000 C 
ENDROOT
BRANCH   1   7
ATOM      2  C   UNL     1       0.985   0.059   0.372  0.00  0.00    +0.000 C 
ATOM      3  C   UNL     1       2.184   0.134   1.284  0.00  0.00    +0.000 C 
ATOM      4  C   UNL     1       2.363  -0.041  -0.188  0.00  0.00    +0.000 C 
ATOM      5  C   UNL     1       3.010   0.928  -1.111  0.00  0.00    +0.000 C 
ATOM      6  C   UNL     1       3.642  -0.294  -1.779  0.00  0.00    +0.000 C 
ATOM      7  C   UNL     1       3.031  -1.167  -0.941  0.00  0.00    +0.000 C 
ENDBRANCH   1   7
BRANCH   1   8
ATOM      8  C   UNL     1       2.001  -3.313   0.013  0.00  0.00    +0.000 C 
BRANCH   8   9
ATOM      9  C   UNL     1       2.058  -4.831   0.115  0.00  0.00    +0.000 C 
ATOM     10  C   UNL     1       2.823  -5.804  -0.436  0.00  0.00    +0.000 C 
ATOM     11  C   UNL     1       2.075  -6.923   0.299  0.00  0.00    +0.000 C 
ATOM     12  C   UNL     1       1.250  -5.840   0.892  0.00  0.00    +0.000 C 
ATOM     13  C   UNL     1      -0.219  -5.868   1.146  0.00  0.00    +0.000 C 
ATOM     14  C   UNL     1       0.753  -5.759   2.296  0.00  0.00    +0.000 C 
ENDBRANCH   8   9
ENDBRANCH   1   8
TORSDOF 3
