REMARK  Name = *****
REMARK  4 active torsions:
REMARK  status: ('A' for Active; 'I' for Inactive)
REMARK    1  A    between atoms: C_1  and  P_2
REMARK    2  A    between atoms: P_2  and  C_3
REMARK    3  A    between atoms: P_2  and  C_9
REMARK    4  A    between atoms: C_9  and  C_11
REMARK                            x       y       z     vdW  Elec       q    Type
REMARK                         _______ _______ _______ _____ _____    ______ ____
ROOT
ATOM      1  C   UNL     1       2.748   0.096  -1.147  0.00  0.00    +0.000 C 
ATOM      2  P   UNL     1       4.164   0.161   0.011  0.00  0.00    +0.000 P 
ENDROOT
BRANCH   2   3
ATOM      3  C   UNL     1       3.633   1.395   1.234  0.00  0.00    +0.000 A 
ATOM      4  C   UNL     1       4.480   2.479   1.511  0.00  0.00    +0.000 A 
ATOM      5  C   UNL     1       4.113   3.455   2.441  0.00  0.00    +0.000 A 
ATOM      6  C   UNL     1       2.893   3.362   3.105  0.00  0.00    +0.000 A 
ATOM      7  C   UNL     1       2.041   2.293   2.841  0.00  0.00    +0.000 A 
ATOM      8  C   UNL     1       2.408   1.317   1.911  0.00  0.00    +0.000 A 
ENDBRANCH   2   3
BRANCH   2   9
ATOM      9  C   UNL     1       4.030  -1.409   0.904  0.00  0.00    +0.000 C 
ATOM     10  C   UNL     1       4.486  -1.534   2.160  0.00  0.00    +0.000 C 
BRANCH   9  11
ATOM     11  C   UNL     1       3.518  -2.608   0.219  0.00  0.00    +0.000 A 
ATOM     12  C   UNL     1       2.273  -3.148   0.572  0.00  0.00    +0.000 A 
ATOM     13  C   UNL     1       1.790  -4.290  -0.071  0.00  0.00    +0.000 A 
ATOM     14  C   UNL     1       2.548  -4.903  -1.067  0.00  0.00    +0.000 A 
ATOM     15  C   UNL     1       3.791  -4.379  -1.420  0.00  0.00    +0.000 A 
ATOM     16  C   UNL     1       4.275  -3.237  -0.778  0.00  0.00    +0.000 A 
ENDBRANCH   9  11
ENDBRANCH   2   9
TORSDOF 3
