REMARK  Name = *****
REMARK  7 active torsions:
REMARK  status: ('A' for Active; 'I' for Inactive)
REMARK    1  A    between atoms: C_1  and  C_2
REMARK    2  A    between atoms: C_3  and  C_10
REMARK    3  A    between atoms: C_4  and  C_7
REMARK    4  A    between atoms: C_7  and  C_9
REMARK    5  A    between atoms: C_10  and  O_11
REMARK    6  A    between atoms: O_11  and  C_12
REMARK    7  A    between atoms: C_12  and  C_14
REMARK                            x       y       z     vdW  Elec       q    Type
REMARK                         _______ _______ _______ _____ _____    ______ ____
ROOT
ATOM      1  C   UNL     1      -0.609   2.524   0.035  0.00  0.00    +0.000 C 
ENDROOT
BRANCH   1   4
ATOM      2  C   UNL     1      -2.284  -0.208  -0.174  0.00  0.00    +0.000 C 
ATOM      3  C   UNL     1      -0.810  -0.023  -0.063  0.00  0.00    +0.000 C 
ATOM      4  C   UNL     1      -0.101   1.116   0.028  0.00  0.00    +0.000 C 
ATOM      5  C   UNL     1       1.384   0.847   0.127  0.00  0.00    +0.000 C 
ATOM      6  C   UNL     1       1.473  -0.648  -0.232  0.00  0.00    +0.000 C 
ATOM      7  C   UNL     1       0.077  -1.231  -0.034  0.00  0.00    +0.000 C 
BRANCH   5   8
ATOM      8  C   UNL     1       1.962   1.223   1.484  0.00  0.00    +0.000 C 
ATOM      9  C   UNL     1       1.767   0.517   2.612  0.00  0.00    +0.000 C 
ATOM     10  C   UNL     1       2.805   2.471   1.498  0.00  0.00    +0.000 C 
ENDBRANCH   5   8
ENDBRANCH   1   4
BRANCH   1  11
ATOM     11  O   UNL     1      -0.016   3.240  -1.057  0.00  0.00    +0.000 OA
BRANCH  11  12
ATOM     12  C   UNL     1      -0.778   3.361  -2.170  0.00  0.00    +0.000 C 
ATOM     13  O   UNL     1      -1.922   2.959  -2.316  0.00  0.00    +0.000 OA
BRANCH  12  14
ATOM     14  C   UNL     1      -0.021   4.072  -3.237  0.00  0.00    +0.000 A 
ATOM     15  C   UNL     1       1.290   4.534  -3.051  0.00  0.00    +0.000 A 
ATOM     16  C   UNL     1       1.956   5.194  -4.087  0.00  0.00    +0.000 A 
ATOM     17  C   UNL     1       1.319   5.396  -5.311  0.00  0.00    +0.000 A 
ATOM     18  C   UNL     1       0.016   4.940  -5.504  0.00  0.00    +0.000 A 
ATOM     19  C   UNL     1      -0.653   4.280  -4.471  0.00  0.00    +0.000 A 
ENDBRANCH  12  14
ENDBRANCH  11  12
ENDBRANCH   1  11
TORSDOF 5
