REMARK  Name = *****
REMARK  5 active torsions:
REMARK  status: ('A' for Active; 'I' for Inactive)
REMARK    1  A    between atoms: C_1  and  C_2
REMARK    2  A    between atoms: C_7  and  C_8
REMARK    3  A    between atoms: C_8  and  C_10
REMARK    4  A    between atoms: C_10  and  C_11
REMARK    5  A    between atoms: C_11  and  C_12
REMARK                            x       y       z     vdW  Elec       q    Type
REMARK                         _______ _______ _______ _____ _____    ______ ____
ROOT
ATOM      1  C   UNL     1       1.381  -2.162   0.994  0.00  0.00    +0.000 C 
ATOM      2  O   UNL     1       0.734  -2.990   1.630  0.00  0.00    +0.000 OA
ENDROOT
BRANCH   1   9
ATOM      3  C   UNL     1      -1.532  -1.476   0.810  0.00  0.00    +0.000 C 
ATOM      4  C   UNL     1      -0.457  -0.425   0.840  0.00  0.00    +0.000 A 
ATOM      5  C   UNL     1      -0.836   0.928   0.802  0.00  0.00    +0.000 A 
ATOM      6  C   UNL     1       0.121   1.942   0.828  0.00  0.00    +0.000 A 
ATOM      7  C   UNL     1       1.473   1.623   0.900  0.00  0.00    +0.000 A 
ATOM      8  C   UNL     1       1.870   0.286   0.950  0.00  0.00    +0.000 A 
ATOM      9  C   UNL     1       0.915  -0.743   0.922  0.00  0.00    +0.000 A 
ENDBRANCH   1   9
BRANCH   1  10
ATOM     10  C   UNL     1       2.676  -2.516   0.287  0.00  0.00    +0.000 C 
BRANCH  10  11
ATOM     11  C   UNL     1       2.738  -4.007  -0.039  0.00  0.00    +0.000 C 
BRANCH  11  12
ATOM     12  C   UNL     1       4.002  -4.352  -0.788  0.00  0.00    +0.000 A 
ATOM     13  C   UNL     1       5.179  -4.653  -0.090  0.00  0.00    +0.000 A 
ATOM     14  C   UNL     1       6.355  -4.949  -0.782  0.00  0.00    +0.000 A 
ATOM     15  C   UNL     1       6.365  -4.943  -2.176  0.00  0.00    +0.000 A 
ATOM     16  C   UNL     1       5.200  -4.640  -2.879  0.00  0.00    +0.000 A 
ATOM     17  C   UNL     1       4.024  -4.344  -2.189  0.00  0.00    +0.000 A 
ENDBRANCH  11  12
ENDBRANCH  10  11
ENDBRANCH   1  10
TORSDOF 4
