REMARK  Name = *****
REMARK  4 active torsions:
REMARK  status: ('A' for Active; 'I' for Inactive)
REMARK    1  A    between atoms: C_1  and  C_2
REMARK    2  A    between atoms: C_5  and  C_8
REMARK    3  A    between atoms: C_9  and  C_10
REMARK    4  A    between atoms: C_15  and  C_16
REMARK                            x       y       z     vdW  Elec       q    Type
REMARK                         _______ _______ _______ _____ _____    ______ ____
ROOT
ATOM      1  C   UNL     1       6.829   0.219  -0.843  0.00  0.00    +0.000 C 
ATOM      2  C   UNL     1       8.008   0.226  -1.077  0.00  0.00    +0.000 C 
ENDROOT
BRANCH   1   7
ATOM      3  C   UNL     1       1.201   0.051   0.246  0.00  0.00    +0.000 C 
ATOM      4  C   UNL     1       2.678   0.099  -0.010  0.00  0.00    +0.000 A 
ATOM      5  C   UNL     1       3.327   1.326  -0.200  0.00  0.00    +0.000 A 
ATOM      6  C   UNL     1       4.697   1.367  -0.471  0.00  0.00    +0.000 A 
ATOM      7  C   UNL     1       5.427   0.181  -0.565  0.00  0.00    +0.000 A 
ATOM      8  C   UNL     1       4.785  -1.046  -0.392  0.00  0.00    +0.000 A 
ATOM      9  C   UNL     1       3.415  -1.086  -0.121  0.00  0.00    +0.000 A 
ENDBRANCH   1   7
BRANCH   2  10
ATOM     10  C   UNL     1       9.414   0.207  -1.355  0.00  0.00    +0.000 A 
ATOM     11  C   UNL     1      10.088   1.427  -1.493  0.00  0.00    +0.000 A 
ATOM     12  C   UNL     1      11.457   1.450  -1.764  0.00  0.00    +0.000 A 
ATOM     13  C   UNL     1      12.162   0.256  -1.900  0.00  0.00    +0.000 A 
ATOM     14  C   UNL     1      11.497  -0.965  -1.764  0.00  0.00    +0.000 A 
ATOM     15  C   UNL     1      10.122  -0.997  -1.491  0.00  0.00    +0.000 A 
BRANCH  15  16
ATOM     16  C   UNL     1       9.471  -2.269  -1.358  0.00  0.00    +0.000 C 
ATOM     17  N   UNL     1       8.965  -3.309  -1.254  0.00  0.00    +0.000 NA
ENDBRANCH  15  16
ENDBRANCH   2  10
TORSDOF 3
