REMARK  Name = *****
REMARK  5 active torsions:
REMARK  status: ('A' for Active; 'I' for Inactive)
REMARK    1  A    between atoms: C_1  and  C_2
REMARK    2  A    between atoms: C_8  and  C_9
REMARK    3  A    between atoms: C_8  and  C_10
REMARK    4  A    between atoms: C_10  and  C_11
REMARK    5  A    between atoms: C_11  and  C_12
REMARK                            x       y       z     vdW  Elec       q    Type
REMARK                         _______ _______ _______ _____ _____    ______ ____
ROOT
ATOM      1  C   UNL     1       1.024   0.134   0.173  0.00  0.00    +0.000 C 
ATOM      2  C   UNL     1       2.530   0.039  -0.135  0.00  0.00    +0.000 C 
ATOM      3  C   UNL     1       2.900   1.104  -1.193  0.00  0.00    +0.000 C 
ATOM      4  C   UNL     1       2.421   0.739  -2.596  0.00  0.00    +0.000 C 
ATOM      5  C   UNL     1       2.868  -0.659  -3.014  0.00  0.00    +0.000 C 
ATOM      6  C   UNL     1       2.482  -1.692  -1.971  0.00  0.00    +0.000 C 
ATOM      7  C   UNL     1       1.686  -2.714  -2.333  0.00  0.00    +0.000 C 
ATOM      8  C   UNL     1       3.003  -1.413  -0.544  0.00  0.00    +0.000 C 
ATOM      9  C   UNL     1       4.556  -1.452  -0.557  0.00  0.00    +0.000 C 
ENDROOT
BRANCH   8  10
ATOM     10  C   UNL     1       2.510  -2.430   0.545  0.00  0.00    +0.000 C 
BRANCH  10  11
ATOM     11  C   UNL     1       3.169  -3.821   0.530  0.00  0.00    +0.000 C 
BRANCH  11  12
ATOM     12  C   UNL     1       2.483  -4.772   1.456  0.00  0.00    +0.000 A 
ATOM     13  C   UNL     1       2.764  -4.988   2.790  0.00  0.00    +0.000 A 
ATOM     14  O   UNL     1       1.934  -5.926   3.313  0.00  0.00    +0.000 OA
ATOM     15  C   UNL     1       1.109  -6.323   2.312  0.00  0.00    +0.000 A 
ATOM     16  C   UNL     1       1.403  -5.647   1.151  0.00  0.00    +0.000 A 
ENDBRANCH  11  12
ENDBRANCH  10  11
ENDBRANCH   8  10
TORSDOF 3
