REMARK  Name = *****
REMARK  4 active torsions:
REMARK  status: ('A' for Active; 'I' for Inactive)
REMARK    1  A    between atoms: C_1  and  C_2
REMARK    2  A    between atoms: C_2  and  C_11
REMARK    3  A    between atoms: N_3  and  C_4
REMARK    4  A    between atoms: C_4  and  C_5
REMARK                            x       y       z     vdW  Elec       q    Type
REMARK                         _______ _______ _______ _____ _____    ______ ____
ROOT
ATOM      1  C   UNL     1       1.080  -0.179   0.061  0.00  0.00    +0.000 C 
ATOM      2  C   UNL     1       2.579   0.000  -0.031  0.00  0.00    +0.000 C 
ATOM      3  N   UNL     1       3.236   0.976   0.499  0.00  0.00    +0.000 NA
ENDROOT
BRANCH   2   4
ATOM      4  C   UNL     1       3.369  -1.110  -0.727  0.00  0.00    +0.000 C 
ATOM      5  C   UNL     1       4.171  -1.912   0.305  0.00  0.00    +0.000 C 
ATOM      6  C   UNL     1       5.007  -3.002  -0.361  0.00  0.00    +0.000 C 
ATOM      7  C   UNL     1       5.907  -2.433  -1.455  0.00  0.00    +0.000 C 
ATOM      8  C   UNL     1       5.111  -1.634  -2.483  0.00  0.00    +0.000 C 
ATOM      9  C   UNL     1       4.280  -0.537  -1.819  0.00  0.00    +0.000 C 
ENDBRANCH   2   4
BRANCH   3  10
ATOM     10  C   UNL     1       2.516   2.015   1.234  0.00  0.00    +0.000 C 
BRANCH  10  11
ATOM     11  C   UNL     1       3.448   2.955   1.967  0.00  0.00    +0.000 A 
ATOM     12  C   UNL     1       3.107   4.307   2.119  0.00  0.00    +0.000 A 
ATOM     13  C   UNL     1       3.938   5.175   2.832  0.00  0.00    +0.000 A 
ATOM     14  C   UNL     1       5.113   4.699   3.410  0.00  0.00    +0.000 A 
ATOM     15  C   UNL     1       5.457   3.355   3.278  0.00  0.00    +0.000 A 
ATOM     16  C   UNL     1       4.627   2.487   2.566  0.00  0.00    +0.000 A 
ENDBRANCH  10  11
ENDBRANCH   3  10
TORSDOF 3
