REMARK  Name = *****
REMARK  3 active torsions:
REMARK  status: ('A' for Active; 'I' for Inactive)
REMARK    1  A    between atoms: C_4  and  C_7
REMARK    2  A    between atoms: C_7  and  O_9
REMARK    3  A    between atoms: O_9  and  C_10
REMARK                            x       y       z     vdW  Elec       q    Type
REMARK                         _______ _______ _______ _____ _____    ______ ____
ROOT
ATOM      1  O   UNL     1      -3.140  -1.016   1.106  0.00  0.00    +0.000 OA
ENDROOT
BRANCH   1   2
ATOM      2  C   UNL     1      -4.492  -0.991   1.456  0.00  0.00    +0.000 A 
ATOM      3  C   UNL     1      -4.933  -0.190   2.509  0.00  0.00    +0.000 A 
ATOM      4  C   UNL     1      -6.278  -0.232   2.860  0.00  0.00    +0.000 A 
ATOM      5  C   UNL     1      -7.171  -1.063   2.195  0.00  0.00    +0.000 A 
ATOM      6  C   UNL     1      -6.702  -1.866   1.161  0.00  0.00    +0.000 A 
ATOM      7  C   UNL     1      -5.363  -1.847   0.785  0.00  0.00    +0.000 A 
ATOM      8  F   UNL     1      -7.552  -2.680   0.522  0.00  0.00    +0.000 F 
ATOM      9  F   UNL     1      -6.718   0.536   3.865  0.00  0.00    +0.000 F 
ENDBRANCH   1   2
BRANCH   1  10
ATOM     10  C   UNL     1      -2.721   0.110   0.420  0.00  0.00    +0.000 C 
ATOM     11  O   UNL     1      -3.405   1.072   0.104  0.00  0.00    +0.000 OA
BRANCH  10  15
ATOM     12  C   UNL     1       1.455  -0.097  -0.538  0.00  0.00    +0.000 A 
ATOM     13  C   UNL     1       0.853  -1.176   0.109  0.00  0.00    +0.000 A 
ATOM     14  C   UNL     1      -0.506  -1.131   0.431  0.00  0.00    +0.000 A 
ATOM     15  C   UNL     1      -1.270  -0.000   0.105  0.00  0.00    +0.000 A 
ATOM     16  C   UNL     1      -0.655   1.079  -0.546  0.00  0.00    +0.000 A 
ATOM     17  C   UNL     1       0.703   1.030  -0.865  0.00  0.00    +0.000 A 
ENDBRANCH  10  15
ENDBRANCH   1  10
TORSDOF 3
