REMARK  Name = *****
REMARK  5 active torsions:
REMARK  status: ('A' for Active; 'I' for Inactive)
REMARK    1  A    between atoms: C_1  and  O_2
REMARK    2  A    between atoms: O_2  and  C_3
REMARK    3  A    between atoms: C_6  and  S_9
REMARK    4  A    between atoms: S_9  and  C_10
REMARK    5  A    between atoms: C_10  and  C_11
REMARK                            x       y       z     vdW  Elec       q    Type
REMARK                         _______ _______ _______ _____ _____    ______ ____
ROOT
ATOM      1  C   UNL     1       3.202   0.484  -1.138  0.00  0.00    +0.000 A 
ATOM      2  C   UNL     1       2.625   1.473  -1.933  0.00  0.00    +0.000 A 
ATOM      3  C   UNL     1       3.256   1.885  -3.114  0.00  0.00    +0.000 A 
ATOM      4  C   UNL     1       4.473   1.319  -3.506  0.00  0.00    +0.000 A 
ATOM      5  C   UNL     1       5.040   0.318  -2.716  0.00  0.00    +0.000 A 
ATOM      6  C   UNL     1       4.410  -0.092  -1.538  0.00  0.00    +0.000 A 
ENDROOT
BRANCH   1   8
ATOM      7  C   UNL     1       1.462   0.543   0.481  0.00  0.00    +0.000 C 
ATOM      8  O   UNL     1       2.694  -0.007   0.032  0.00  0.00    +0.000 OA
ENDBRANCH   1   8
BRANCH   4   9
ATOM      9  S   UNL     1       5.300   1.808  -5.007  0.00  0.00    +0.000 S 
BRANCH   9  10
ATOM     10  C   UNL     1       5.459   3.601  -4.714  0.00  0.00    +0.000 C 
BRANCH  10  11
ATOM     11  C   UNL     1       6.318   4.259  -5.765  0.00  0.00    +0.000 A 
ATOM     12  C   UNL     1       5.765   4.664  -6.988  0.00  0.00    +0.000 A 
ATOM     13  C   UNL     1       6.563   5.265  -7.963  0.00  0.00    +0.000 A 
ATOM     14  C   UNL     1       7.922   5.463  -7.727  0.00  0.00    +0.000 A 
ATOM     15  C   UNL     1       8.486   5.057  -6.519  0.00  0.00    +0.000 A 
ATOM     16  C   UNL     1       7.690   4.454  -5.544  0.00  0.00    +0.000 A 
ENDBRANCH  10  11
ENDBRANCH   9  10
ENDBRANCH   4   9
TORSDOF 4
