REMARK  Name = *****
REMARK  3 active torsions:
REMARK  status: ('A' for Active; 'I' for Inactive)
REMARK    1  A    between atoms: C_4  and  C_8
REMARK    2  A    between atoms: C_8  and  O_10
REMARK    3  A    between atoms: O_10  and  C_11
REMARK                            x       y       z     vdW  Elec       q    Type
REMARK                         _______ _______ _______ _____ _____    ______ ____
ROOT
ATOM      1  C   UNL     1       1.158  -3.506  -1.798  0.00  0.00    +0.000 A 
ATOM      2  C   UNL     1      -0.221  -3.324  -1.879  0.00  0.00    +0.000 A 
ATOM      3  C   UNL     1      -1.035  -4.382  -2.267  0.00  0.00    +0.000 A 
ATOM      4  C   UNL     1      -0.471  -5.614  -2.581  0.00  0.00    +0.000 A 
ATOM      5  C   UNL     1       0.907  -5.789  -2.514  0.00  0.00    +0.000 A 
ATOM      6  C   UNL     1       1.724  -4.734  -2.127  0.00  0.00    +0.000 A 
ATOM      7  F   UNL     1       3.054  -4.896  -2.071  0.00  0.00    +0.000 F 
ATOM      8  F   UNL     1       1.448  -6.974  -2.832  0.00  0.00    +0.000 F 
ATOM      9  F   UNL     1      -1.256  -6.631  -2.962  0.00  0.00    +0.000 F 
ATOM     10  F   UNL     1      -2.362  -4.211  -2.347  0.00  0.00    +0.000 F 
ATOM     11  F   UNL     1      -0.758  -2.132  -1.585  0.00  0.00    +0.000 F 
ENDROOT
BRANCH   1  12
ATOM     12  O   UNL     1       1.975  -2.443  -1.420  0.00  0.00    +0.000 OA
BRANCH  12  13
ATOM     13  C   UNL     1       2.126  -2.398  -0.036  0.00  0.00    +0.000 C 
ATOM     14  O   UNL     1       1.650  -3.202   0.754  0.00  0.00    +0.000 OA
BRANCH  13  18
ATOM     15  C   UNL     1       1.473   0.382   1.236  0.00  0.00    +0.000 C 
ATOM     16  C   UNL     1       2.694   0.346   2.156  0.00  0.00    +0.000 C 
ATOM     17  C   UNL     1       3.253  -1.062   1.856  0.00  0.00    +0.000 C 
ATOM     18  C   UNL     1       3.002  -1.214   0.322  0.00  0.00    +0.000 C 
ATOM     19  C   UNL     1       2.297   0.119  -0.032  0.00  0.00    +0.000 C 
ATOM     20  C   UNL     1       3.318   1.224   0.123  0.00  0.00    +0.000 C 
ATOM     21  C   UNL     1       3.561   1.354   1.436  0.00  0.00    +0.000 C 
ENDBRANCH  13  18
ENDBRANCH  12  13
ENDBRANCH   1  12
TORSDOF 3
