REMARK  Name = *****
REMARK  4 active torsions:
REMARK  status: ('A' for Active; 'I' for Inactive)
REMARK    1  A    between atoms: C_5  and  C_7
REMARK    2  A    between atoms: C_5  and  S_16
REMARK    3  A    between atoms: C_7  and  C_8
REMARK    4  A    between atoms: C_9  and  C_10
REMARK                            x       y       z     vdW  Elec       q    Type
REMARK                         _______ _______ _______ _____ _____    ______ ____
ROOT
ATOM      1  C   UNL     1       1.762  -1.701   1.162  0.00  0.00    +0.000 C 
ENDROOT
BRANCH   1   6
ATOM      2  C   UNL     1       1.746  -0.188  -2.459  0.00  0.00    +0.000 C 
ATOM      3  C   UNL     1       1.937   1.257  -1.993  0.00  0.00    +0.000 C 
ATOM      4  C   UNL     1       1.368   1.518  -0.631  0.00  0.00    +0.000 C 
ATOM      5  C   UNL     1       1.014   0.545   0.223  0.00  0.00    +0.000 C 
ATOM      6  C   UNL     1       1.184  -0.936  -0.063  0.00  0.00    +0.000 C 
ATOM      7  C   UNL     1       2.039  -1.183  -1.334  0.00  0.00    +0.000 C 
BRANCH   6   8
ATOM      8  S   UNL     1      -0.527  -1.592  -0.346  0.00  0.00    +0.000 S 
ATOM      9  H   UNL     1      -1.086  -0.958  -1.411  0.00  0.00    +0.000 HD
ENDBRANCH   6   8
ENDBRANCH   1   6
BRANCH   1  10
ATOM     10  C   UNL     1       3.152  -1.276   1.576  0.00  0.00    +0.000 C 
ATOM     11  C   UNL     1       4.191  -2.118   1.678  0.00  0.00    +0.000 C 
BRANCH  11  12
ATOM     12  C   UNL     1       5.517  -1.652   2.080  0.00  0.00    +0.000 A 
ATOM     13  C   UNL     1       6.013  -1.972   3.348  0.00  0.00    +0.000 A 
ATOM     14  C   UNL     1       7.277  -1.527   3.741  0.00  0.00    +0.000 A 
ATOM     15  C   UNL     1       8.051  -0.764   2.867  0.00  0.00    +0.000 A 
ATOM     16  C   UNL     1       7.563  -0.444   1.601  0.00  0.00    +0.000 A 
ATOM     17  C   UNL     1       6.298  -0.884   1.208  0.00  0.00    +0.000 A 
ENDBRANCH  11  12
ENDBRANCH   1  10
TORSDOF 4
