REMARK  Name = *****
REMARK  5 active torsions:
REMARK  status: ('A' for Active; 'I' for Inactive)
REMARK    1  A    between atoms: C_1  and  C_2
REMARK    2  A    between atoms: C_2  and  C_3
REMARK    3  A    between atoms: C_2  and  O_10
REMARK    4  A    between atoms: O_10  and  C_11
REMARK    5  A    between atoms: C_11  and  C_13
REMARK                            x       y       z     vdW  Elec       q    Type
REMARK                         _______ _______ _______ _____ _____    ______ ____
ROOT
ATOM      1  C   UNL     1       1.095   0.140   0.138  0.00  0.00    +0.000 C 
ATOM      2  C   UNL     1       2.602  -0.094   0.056  0.00  0.00    +0.000 C 
ENDROOT
BRANCH   2   3
ATOM      3  C   UNL     1       3.097   0.100  -1.369  0.00  0.00    +0.000 A 
ATOM      4  C   UNL     1       3.243   1.384  -1.923  0.00  0.00    +0.000 A 
ATOM      5  C   UNL     1       3.685   1.545  -3.237  0.00  0.00    +0.000 A 
ATOM      6  C   UNL     1       3.975   0.424  -4.003  0.00  0.00    +0.000 A 
ATOM      7  C   UNL     1       3.832  -0.856  -3.481  0.00  0.00    +0.000 A 
ATOM      8  C   UNL     1       3.392  -1.019  -2.166  0.00  0.00    +0.000 A 
ATOM      9  F   UNL     1       4.397   0.578  -5.265  0.00  0.00    +0.000 F 
ENDBRANCH   2   3
BRANCH   2  10
ATOM     10  O   UNL     1       3.285   0.874   0.896  0.00  0.00    +0.000 OA
BRANCH  10  11
ATOM     11  C   UNL     1       3.595   0.694   2.207  0.00  0.00    +0.000 C 
ATOM     12  S   UNL     1       3.232  -0.676   3.081  0.00  0.00    +0.000 S 
BRANCH  11  13
ATOM     13  C   UNL     1       4.267   1.921   2.707  0.00  0.00    +0.000 A 
ATOM     14  C   UNL     1       4.074   2.363   4.024  0.00  0.00    +0.000 A 
ATOM     15  C   UNL     1       4.713   3.519   4.480  0.00  0.00    +0.000 A 
ATOM     16  C   UNL     1       5.546   4.241   3.628  0.00  0.00    +0.000 A 
ATOM     17  C   UNL     1       5.745   3.810   2.317  0.00  0.00    +0.000 A 
ATOM     18  C   UNL     1       5.110   2.655   1.857  0.00  0.00    +0.000 A 
ENDBRANCH  11  13
ENDBRANCH  10  11
ENDBRANCH   2  10
TORSDOF 4
