REMARK  Name = *****
REMARK  5 active torsions:
REMARK  status: ('A' for Active; 'I' for Inactive)
REMARK    1  A    between atoms: C_1  and  C_2
REMARK    2  A    between atoms: C_5  and  S_8
REMARK    3  A    between atoms: S_8  and  C_10
REMARK    4  A    between atoms: C_10  and  C_11
REMARK    5  A    between atoms: C_11  and  C_12
REMARK                            x       y       z     vdW  Elec       q    Type
REMARK                         _______ _______ _______ _____ _____    ______ ____
ROOT
ATOM      1  S   UNL     1      -3.717  -0.197  -0.080  0.00  0.00    +0.000 S 
ATOM      2  O   UNL     1      -4.101  -0.750  -1.422  0.00  0.00    +0.000 OA
ENDROOT
BRANCH   1   7
ATOM      3  C   UNL     1       2.339   0.666  -0.234  0.00  0.00    +0.000 C 
ATOM      4  C   UNL     1       0.851   0.484  -0.205  0.00  0.00    +0.000 A 
ATOM      5  C   UNL     1       0.132   0.681   0.979  0.00  0.00    +0.000 A 
ATOM      6  C   UNL     1      -1.251   0.477   1.011  0.00  0.00    +0.000 A 
ATOM      7  C   UNL     1      -1.930   0.069  -0.141  0.00  0.00    +0.000 A 
ATOM      8  C   UNL     1      -1.211  -0.151  -1.319  0.00  0.00    +0.000 A 
ATOM      9  C   UNL     1       0.171   0.053  -1.350  0.00  0.00    +0.000 A 
ENDBRANCH   1   7
BRANCH   1  10
ATOM     10  C   UNL     1      -4.207   1.560  -0.057  0.00  0.00    +0.000 C 
BRANCH  10  11
ATOM     11  C   UNL     1      -5.726   1.680  -0.124  0.00  0.00    +0.000 C 
BRANCH  11  12
ATOM     12  C   UNL     1      -6.166   3.121  -0.035  0.00  0.00    +0.000 A 
ATOM     13  C   UNL     1      -6.214   3.918  -1.187  0.00  0.00    +0.000 A 
ATOM     14  C   UNL     1      -6.598   5.257  -1.103  0.00  0.00    +0.000 A 
ATOM     15  C   UNL     1      -6.935   5.811   0.131  0.00  0.00    +0.000 A 
ATOM     16  C   UNL     1      -6.886   5.027   1.282  0.00  0.00    +0.000 A 
ATOM     17  C   UNL     1      -6.501   3.688   1.201  0.00  0.00    +0.000 A 
ENDBRANCH  11  12
ENDBRANCH  10  11
ENDBRANCH   1  10
TORSDOF 4
