REMARK  Name = *****
REMARK  6 active torsions:
REMARK  status: ('A' for Active; 'I' for Inactive)
REMARK    1  A    between atoms: C_1  and  O_2
REMARK    2  A    between atoms: O_2  and  C_3
REMARK    3  A    between atoms: C_3  and  C_13
REMARK    4  A    between atoms: C_4  and  C_5
REMARK    5  A    between atoms: C_4  and  O_11
REMARK    6  A    between atoms: O_11  and  C_12
REMARK                            x       y       z     vdW  Elec       q    Type
REMARK                         _______ _______ _______ _____ _____    ______ ____
ROOT
ATOM      1  C   UNL     1       3.291   0.330   1.263  0.00  0.00    +0.000 C 
ATOM      2  C   UNL     1       2.570   1.167   2.057  0.00  0.00    +0.000 C 
ENDROOT
BRANCH   2   3
ATOM      3  C   UNL     1       3.214   2.202   2.898  0.00  0.00    +0.000 A 
ATOM      4  C   UNL     1       3.005   3.559   2.613  0.00  0.00    +0.000 A 
ATOM      5  C   UNL     1       3.601   4.548   3.398  0.00  0.00    +0.000 A 
ATOM      6  C   UNL     1       4.404   4.189   4.480  0.00  0.00    +0.000 A 
ATOM      7  C   UNL     1       4.607   2.843   4.781  0.00  0.00    +0.000 A 
ATOM      8  C   UNL     1       4.010   1.853   3.998  0.00  0.00    +0.000 A 
ENDBRANCH   2   3
BRANCH   1   9
ATOM      9  C   UNL     1       4.774   0.344   1.194  0.00  0.00    +0.000 A 
ATOM     10  C   UNL     1       5.497  -0.778   1.624  0.00  0.00    +0.000 A 
ATOM     11  C   UNL     1       6.891  -0.792   1.553  0.00  0.00    +0.000 A 
ATOM     12  C   UNL     1       7.574   0.313   1.047  0.00  0.00    +0.000 A 
ATOM     13  C   UNL     1       6.865   1.431   0.609  0.00  0.00    +0.000 A 
ATOM     14  C   UNL     1       5.471   1.445   0.677  0.00  0.00    +0.000 A 
ENDBRANCH   1   9
BRANCH   1  16
ATOM     15  C   UNL     1       2.958  -0.578  -0.871  0.00  0.00    +0.000 C 
ATOM     16  O   UNL     1       2.695  -0.685   0.528  0.00  0.00    +0.000 OA
ENDBRANCH   1  16
BRANCH   2  17
ATOM     17  O   UNL     1       1.200   1.218   2.217  0.00  0.00    +0.000 OA
ATOM     18  C   UNL     1       0.376   0.242   1.601  0.00  0.00    +0.000 C 
ENDBRANCH   2  17
TORSDOF 4
