REMARK  Name = *****
REMARK  3 active torsions:
REMARK  status: ('A' for Active; 'I' for Inactive)
REMARK    1  A    between atoms: C_4  and  S_7
REMARK    2  A    between atoms: S_7  and  C_9
REMARK    3  A    between atoms: C_9  and  C_10
REMARK                            x       y       z     vdW  Elec       q    Type
REMARK                         _______ _______ _______ _____ _____    ______ ____
ROOT
ATOM      1  C   UNL     1      -4.030  -0.919  -0.399  0.00  0.00    +0.000 C 
ATOM      2  F   UNL     1      -5.312  -0.558  -0.705  0.00  0.00    +0.000 F 
ENDROOT
BRANCH   1   3
ATOM      3  C   UNL     1      -3.959  -1.788   0.839  0.00  0.00    +0.000 A 
ATOM      4  C   UNL     1      -4.856  -1.577   1.899  0.00  0.00    +0.000 A 
ATOM      5  C   UNL     1      -4.792  -2.362   3.052  0.00  0.00    +0.000 A 
ATOM      6  C   UNL     1      -3.829  -3.362   3.154  0.00  0.00    +0.000 A 
ATOM      7  C   UNL     1      -2.928  -3.583   2.114  0.00  0.00    +0.000 A 
ATOM      8  C   UNL     1      -2.990  -2.797   0.960  0.00  0.00    +0.000 A 
ATOM      9 CL   UNL     1      -3.749  -4.332   4.573  0.00  0.00    +0.000 Cl
ENDBRANCH   1   3
BRANCH   1  10
ATOM     10  S   UNL     1      -2.966   0.568  -0.210  0.00  0.00    +0.000 S 
ATOM     11  O   UNL     1      -3.634   1.526   0.737  0.00  0.00    +0.000 OA
BRANCH  10  15
ATOM     12  C   UNL     1      -3.625   2.256  -4.442  0.00  0.00    +0.000 A 
ATOM     13  C   UNL     1      -4.403   2.722  -3.383  0.00  0.00    +0.000 A 
ATOM     14  C   UNL     1      -4.207   2.216  -2.097  0.00  0.00    +0.000 A 
ATOM     15  C   UNL     1      -3.235   1.237  -1.866  0.00  0.00    +0.000 A 
ATOM     16  C   UNL     1      -2.450   0.779  -2.931  0.00  0.00    +0.000 A 
ATOM     17  C   UNL     1      -2.648   1.287  -4.217  0.00  0.00    +0.000 A 
ENDBRANCH  10  15
ENDBRANCH   1  10
TORSDOF 3
