REMARK  Name = *****
REMARK  3 active torsions:
REMARK  status: ('A' for Active; 'I' for Inactive)
REMARK    1  A    between atoms: C_3  and  C_4
REMARK    2  A    between atoms: C_3  and  C_11
REMARK    3  A    between atoms: C_4  and  C_5
REMARK                            x       y       z     vdW  Elec       q    Type
REMARK                         _______ _______ _______ _____ _____    ______ ____
ROOT
ATOM      1  C   UNL     1       1.099  -0.363   0.462  0.00  0.00    +0.000 C 
ATOM      2  C   UNL     1       2.367  -0.229   0.216  0.00  0.00    +0.000 C 
ATOM      3  C   UNL     1       3.642  -0.080  -0.045  0.00  0.00    +0.000 C 
ENDROOT
BRANCH   3   4
ATOM      4  C   UNL     1       4.621  -1.149   0.320  0.00  0.00    +0.000 A 
ATOM      5  C   UNL     1       5.928  -1.172  -0.194  0.00  0.00    +0.000 A 
ATOM      6  C   UNL     1       6.835  -2.179   0.158  0.00  0.00    +0.000 A 
ATOM      7  C   UNL     1       6.454  -3.189   1.034  0.00  0.00    +0.000 A 
ATOM      8  C   UNL     1       5.166  -3.193   1.557  0.00  0.00    +0.000 A 
ATOM      9  C   UNL     1       4.262  -2.186   1.202  0.00  0.00    +0.000 A 
ENDBRANCH   3   4
BRANCH   3  10
ATOM     10  C   UNL     1       4.145   1.221  -0.650  0.00  0.00    +0.000 C 
BRANCH  10  11
ATOM     11  C   UNL     1       4.415   1.203  -2.143  0.00  0.00    +0.000 A 
ATOM     12  C   UNL     1       3.566   0.545  -3.046  0.00  0.00    +0.000 A 
ATOM     13  C   UNL     1       3.825   0.574  -4.418  0.00  0.00    +0.000 A 
ATOM     14  C   UNL     1       4.925   1.274  -4.908  0.00  0.00    +0.000 A 
ATOM     15  C   UNL     1       5.765   1.950  -4.027  0.00  0.00    +0.000 A 
ATOM     16  C   UNL     1       5.508   1.921  -2.655  0.00  0.00    +0.000 A 
ENDBRANCH  10  11
ENDBRANCH   3  10
TORSDOF 3
