REMARK  Name = *****
REMARK  3 active torsions:
REMARK  status: ('A' for Active; 'I' for Inactive)
REMARK    1  A    between atoms: C_7  and  C_8
REMARK    2  A    between atoms: C_8  and  N_10
REMARK    3  A    between atoms: N_10  and  C_11
REMARK                            x       y       z     vdW  Elec       q    Type
REMARK                         _______ _______ _______ _____ _____    ______ ____
ROOT
ATOM      1  C   UNL     1      -0.658   2.720  -0.110  0.00  0.00    +0.000 C 
ATOM      2  S   UNL     1      -1.007   3.722  -1.413  0.00  0.00    +0.000 S 
ENDROOT
BRANCH   1   9
ATOM      3  C   UNL     1      -2.331   0.279   0.430  0.00  0.00    +0.000 C 
ATOM      4  C   UNL     1      -1.070   0.143  -0.016  0.00  0.00    +0.000 C 
ATOM      5  C   UNL     1      -0.486  -1.238  -0.231  0.00  0.00    +0.000 C 
ATOM      6  C   UNL     1       0.879  -1.384   0.437  0.00  0.00    +0.000 C 
ATOM      7  C   UNL     1       1.840  -0.286  -0.011  0.00  0.00    +0.000 C 
ATOM      8  C   UNL     1       1.253   1.099   0.256  0.00  0.00    +0.000 C 
ATOM      9  C   UNL     1      -0.130   1.283  -0.407  0.00  0.00    +0.000 C 
ENDBRANCH   1   9
BRANCH   1  10
ATOM     10  N   UNL     1      -0.803   2.981   1.248  0.00  0.00    +0.000 N 
ATOM     11  H   UNL     1      -0.690   2.185   1.817  0.00  0.00    +0.000 HD
BRANCH  10  12
ATOM     12  C   UNL     1      -1.080   4.162   1.973  0.00  0.00    +0.000 A 
ATOM     13  C   UNL     1      -1.432   3.996   3.321  0.00  0.00    +0.000 A 
ATOM     14  C   UNL     1      -1.711   5.098   4.135  0.00  0.00    +0.000 A 
ATOM     15  C   UNL     1      -1.628   6.384   3.614  0.00  0.00    +0.000 A 
ATOM     16  C   UNL     1      -1.259   6.563   2.284  0.00  0.00    +0.000 A 
ATOM     17  C   UNL     1      -0.981   5.458   1.470  0.00  0.00    +0.000 A 
ENDBRANCH  10  12
ENDBRANCH   1  10
TORSDOF 3
