REMARK  Name = *****
REMARK  2 active torsions:
REMARK  status: ('A' for Active; 'I' for Inactive)
REMARK    1  A    between atoms: C_7  and  S_8
REMARK    2  A    between atoms: S_8  and  C_9
REMARK                            x       y       z     vdW  Elec       q    Type
REMARK                         _______ _______ _______ _____ _____    ______ ____
ROOT
ATOM      1  C   UNL     1      -1.240   0.369   0.709  0.00  0.00    +0.000 C 
ATOM      2  C   UNL     1      -0.975  -1.113   0.405  0.00  0.00    +0.000 C 
ATOM      3  C   UNL     1       0.222  -1.059  -0.565  0.00  0.00    +0.000 C 
ATOM      4  C   UNL     1      -0.114   0.191  -1.381  0.00  0.00    +0.000 C 
ATOM      5  C   UNL     1      -0.186   1.090  -0.149  0.00  0.00    +0.000 C 
ATOM      6  C   UNL     1       1.206   0.879   0.477  0.00  0.00    +0.000 C 
ATOM      7  C   UNL     1       1.471  -0.626   0.242  0.00  0.00    +0.000 C 
ENDROOT
BRANCH   7   8
ATOM      8  S   UNL     1       3.038  -0.876  -0.675  0.00  0.00    +0.000 S 
BRANCH   8   9
ATOM      9  C   UNL     1       3.128  -2.657  -0.683  0.00  0.00    +0.000 A 
ATOM     10  C   UNL     1       3.154  -3.332  -1.907  0.00  0.00    +0.000 A 
ATOM     11  C   UNL     1       3.230  -4.726  -1.943  0.00  0.00    +0.000 A 
ATOM     12  C   UNL     1       3.290  -5.452  -0.754  0.00  0.00    +0.000 A 
ATOM     13  C   UNL     1       3.281  -4.784   0.469  0.00  0.00    +0.000 A 
ATOM     14  C   UNL     1       3.204  -3.390   0.505  0.00  0.00    +0.000 A 
ENDBRANCH   8   9
ENDBRANCH   7   8
TORSDOF 2
