REMARK  Name = *****
REMARK  3 active torsions:
REMARK  status: ('A' for Active; 'I' for Inactive)
REMARK    1  A    between atoms: C_4  and  C_7
REMARK    2  A    between atoms: C_8  and  C_9
REMARK    3  A    between atoms: C_9  and  C_11
REMARK                            x       y       z     vdW  Elec       q    Type
REMARK                         _______ _______ _______ _____ _____    ______ ____
ROOT
ATOM      1  C   UNL     1      -5.152  -0.362  -0.368  0.00  0.00    +0.000 C 
ATOM      2  O   UNL     1      -5.564   0.758  -0.658  0.00  0.00    +0.000 OA
ENDROOT
BRANCH   1   3
ATOM      3  C   UNL     1      -6.119  -1.474  -0.205  0.00  0.00    +0.000 A 
ATOM      4  C   UNL     1      -7.317  -1.417  -0.934  0.00  0.00    +0.000 A 
ATOM      5  C   UNL     1      -8.268  -2.434  -0.812  0.00  0.00    +0.000 A 
ATOM      6  C   UNL     1      -8.035  -3.508   0.046  0.00  0.00    +0.000 A 
ATOM      7  C   UNL     1      -6.855  -3.561   0.787  0.00  0.00    +0.000 A 
ATOM      8  C   UNL     1      -5.908  -2.546   0.663  0.00  0.00    +0.000 A 
ATOM      9  F   UNL     1      -4.806  -2.621   1.423  0.00  0.00    +0.000 F 
ENDBRANCH   1   3
BRANCH   1  11
ATOM     10  C   UNL     1      -2.816   0.357  -0.262  0.00  0.00    +0.000 C 
ATOM     11  C   UNL     1      -3.698  -0.654  -0.241  0.00  0.00    +0.000 C 
BRANCH  10  15
ATOM     12  C   UNL     1       1.424  -0.061   0.101  0.00  0.00    +0.000 A 
ATOM     13  C   UNL     1       0.705  -0.991  -0.647  0.00  0.00    +0.000 A 
ATOM     14  C   UNL     1      -0.682  -0.870  -0.770  0.00  0.00    +0.000 A 
ATOM     15  C   UNL     1      -1.364   0.177  -0.137  0.00  0.00    +0.000 A 
ATOM     16  C   UNL     1      -0.628   1.116   0.598  0.00  0.00    +0.000 A 
ATOM     17  C   UNL     1       0.758   0.994   0.721  0.00  0.00    +0.000 A 
ENDBRANCH  10  15
ENDBRANCH   1  11
TORSDOF 3
