REMARK  Name = *****
REMARK  5 active torsions:
REMARK  status: ('A' for Active; 'I' for Inactive)
REMARK    1  A    between atoms: C_1  and  C_2
REMARK    2  A    between atoms: C_7  and  C_8
REMARK    3  A    between atoms: C_8  and  O_10
REMARK    4  A    between atoms: O_10  and  C_11
REMARK    5  A    between atoms: C_11  and  C_12
REMARK                            x       y       z     vdW  Elec       q    Type
REMARK                         _______ _______ _______ _____ _____    ______ ____
ROOT
ATOM      1  C   UNL     1       0.896  -2.358   0.496  0.00  0.00    +0.000 C 
ATOM      2  O   UNL     1       1.018  -2.600   1.685  0.00  0.00    +0.000 OA
ENDROOT
BRANCH   1   9
ATOM      3  C   UNL     1      -1.437  -1.171   1.950  0.00  0.00    +0.000 C 
ATOM      4  C   UNL     1      -0.957  -0.640   0.627  0.00  0.00    +0.000 A 
ATOM      5  C   UNL     1      -1.615   0.470   0.068  0.00  0.00    +0.000 A 
ATOM      6  C   UNL     1      -1.212   1.002  -1.157  0.00  0.00    +0.000 A 
ATOM      7  C   UNL     1      -0.141   0.438  -1.843  0.00  0.00    +0.000 A 
ATOM      8  C   UNL     1       0.530  -0.658  -1.302  0.00  0.00    +0.000 A 
ATOM      9  C   UNL     1       0.134  -1.205  -0.068  0.00  0.00    +0.000 A 
ENDBRANCH   1   9
BRANCH   1  10
ATOM     10  O   UNL     1       1.408  -3.104  -0.514  0.00  0.00    +0.000 OA
BRANCH  10  11
ATOM     11  C   UNL     1       2.143  -4.247  -0.068  0.00  0.00    +0.000 C 
BRANCH  11  12
ATOM     12  C   UNL     1       2.664  -4.982  -1.278  0.00  0.00    +0.000 A 
ATOM     13  C   UNL     1       2.323  -6.324  -1.502  0.00  0.00    +0.000 A 
ATOM     14  C   UNL     1       2.820  -6.996  -2.620  0.00  0.00    +0.000 A 
ATOM     15  C   UNL     1       3.659  -6.347  -3.523  0.00  0.00    +0.000 A 
ATOM     16  C   UNL     1       4.005  -5.013  -3.308  0.00  0.00    +0.000 A 
ATOM     17  C   UNL     1       3.512  -4.335  -2.191  0.00  0.00    +0.000 A 
ATOM     18 CL   UNL     1       2.395  -8.643  -2.883  0.00  0.00    +0.000 Cl
ENDBRANCH  11  12
ENDBRANCH  10  11
ENDBRANCH   1  10
TORSDOF 4
