REMARK  Name = *****
REMARK  2 active torsions:
REMARK  status: ('A' for Active; 'I' for Inactive)
REMARK    1  A    between atoms: C_4  and  C_7
REMARK    2  A    between atoms: C_8  and  C_9
REMARK                            x       y       z     vdW  Elec       q    Type
REMARK                         _______ _______ _______ _____ _____    ______ ____
ROOT
ATOM      1  C   UNL     1       2.910   0.139  -0.260  0.00  0.00    +0.000 C 
ATOM      2  C   UNL     1       4.108   0.181  -0.338  0.00  0.00    +0.000 C 
ENDROOT
BRANCH   2   3
ATOM      3  C   UNL     1       5.538   0.224  -0.431  0.00  0.00    +0.000 A 
ATOM      4  C   UNL     1       6.183   1.464  -0.428  0.00  0.00    +0.000 A 
ATOM      5  C   UNL     1       7.571   1.560  -0.515  0.00  0.00    +0.000 A 
ATOM      6  C   UNL     1       8.340   0.403  -0.606  0.00  0.00    +0.000 A 
ATOM      7  C   UNL     1       7.714  -0.845  -0.610  0.00  0.00    +0.000 A 
ATOM      8  C   UNL     1       6.318  -0.935  -0.523  0.00  0.00    +0.000 A 
ATOM      9 BR   UNL     1       5.550  -2.675  -0.536  0.00  0.00    +0.000 Br
ATOM     10  F   UNL     1       5.473   2.600  -0.341  0.00  0.00    +0.000 F 
ENDBRANCH   2   3
BRANCH   1  14
ATOM     11  C   UNL     1      -1.299  -0.044   0.023  0.00  0.00    +0.000 A 
ATOM     12  C   UNL     1      -0.657   1.194  -0.024  0.00  0.00    +0.000 A 
ATOM     13  C   UNL     1       0.735   1.256  -0.118  0.00  0.00    +0.000 A 
ATOM     14  C   UNL     1       1.485   0.078  -0.165  0.00  0.00    +0.000 A 
ATOM     15  C   UNL     1       0.841  -1.160  -0.117  0.00  0.00    +0.000 A 
ATOM     16  C   UNL     1      -0.551  -1.221  -0.023  0.00  0.00    +0.000 A 
ENDBRANCH   1  14
TORSDOF 2
