REMARK  Name = *****
REMARK  5 active torsions:
REMARK  status: ('A' for Active; 'I' for Inactive)
REMARK    1  A    between atoms: C_1  and  C_2
REMARK    2  A    between atoms: C_5  and  C_8
REMARK    3  A    between atoms: C_10  and  C_11
REMARK    4  A    between atoms: C_16  and  O_17
REMARK    5  A    between atoms: O_17  and  C_18
REMARK                            x       y       z     vdW  Elec       q    Type
REMARK                         _______ _______ _______ _____ _____    ______ ____
ROOT
ATOM      1  C   UNL     1      -2.995   0.045  -0.032  0.00  0.00    +0.000 C 
ATOM      2  C   UNL     1      -3.496   0.321  -1.432  0.00  0.00    +0.000 C 
ATOM      3  C   UNL     1      -3.615   1.389  -0.378  0.00  0.00    +0.000 C 
ENDROOT
BRANCH   1   8
ATOM      4  C   UNL     1       2.709  -0.724   1.017  0.00  0.00    +0.000 C 
ATOM      5  C   UNL     1       1.250  -0.514   0.745  0.00  0.00    +0.000 A 
ATOM      6  C   UNL     1       0.470   0.283   1.586  0.00  0.00    +0.000 A 
ATOM      7  C   UNL     1      -0.894   0.459   1.331  0.00  0.00    +0.000 A 
ATOM      8  C   UNL     1      -1.521  -0.150   0.233  0.00  0.00    +0.000 A 
ATOM      9  C   UNL     1      -0.729  -0.977  -0.580  0.00  0.00    +0.000 A 
ATOM     10  C   UNL     1       0.636  -1.156  -0.333  0.00  0.00    +0.000 A 
ENDBRANCH   1   8
BRANCH   3  11
ATOM     11  C   UNL     1      -2.837   2.699  -0.474  0.00  0.00    +0.000 A 
ATOM     12  C   UNL     1      -1.604   2.825  -1.145  0.00  0.00    +0.000 A 
ATOM     13  C   UNL     1      -0.899   4.034  -1.194  0.00  0.00    +0.000 A 
ATOM     14  C   UNL     1      -1.410   5.168  -0.573  0.00  0.00    +0.000 A 
ATOM     15  C   UNL     1      -2.632   5.093   0.085  0.00  0.00    +0.000 A 
ATOM     16  C   UNL     1      -3.338   3.884   0.110  0.00  0.00    +0.000 A 
BRANCH  16  17
ATOM     17  O   UNL     1      -4.540   3.850   0.781  0.00  0.00    +0.000 OA
ATOM     18  C   UNL     1      -5.568   4.412  -0.037  0.00  0.00    +0.000 C 
ENDBRANCH  16  17
ENDBRANCH   3  11
TORSDOF 3
