REMARK  Name = *****
REMARK  2 active torsions:
REMARK  status: ('A' for Active; 'I' for Inactive)
REMARK    1  A    between atoms: P_4  and  S_7
REMARK    2  A    between atoms: S_7  and  C_8
REMARK                            x       y       z     vdW  Elec       q    Type
REMARK                         _______ _______ _______ _____ _____    ______ ____
ROOT
ATOM      1  S   UNL     1       1.000   1.962  -1.717  0.00  0.00    +0.000 S 
ENDROOT
BRANCH   1   5
ATOM      2  C   UNL     1       1.986  -2.124  -0.183  0.00  0.00    +0.000 C 
ATOM      3  C   UNL     1       1.182  -2.143  -1.480  0.00  0.00    +0.000 C 
ATOM      4  S   UNL     1      -0.302  -1.098  -1.323  0.00  0.00    +0.000 S 
ATOM      5  P   UNL     1       0.534   0.525  -0.211  0.00  0.00    +0.000 P 
ATOM      6  S   UNL     1      -0.571   1.101   1.303  0.00  0.00    +0.000 S 
ATOM      7  S   UNL     1       2.384  -0.409   0.291  0.00  0.00    +0.000 S 
ENDBRANCH   1   5
BRANCH   1   8
ATOM      8  C   UNL     1       1.900   3.114  -0.707  0.00  0.00    +0.000 A 
ATOM      9  C   UNL     1       3.295   3.043  -0.631  0.00  0.00    +0.000 A 
ATOM     10  C   UNL     1       4.005   3.956   0.152  0.00  0.00    +0.000 A 
ATOM     11  C   UNL     1       3.327   4.952   0.850  0.00  0.00    +0.000 A 
ATOM     12  C   UNL     1       1.939   5.042   0.761  0.00  0.00    +0.000 A 
ATOM     13  C   UNL     1       1.228   4.131  -0.022  0.00  0.00    +0.000 A 
ENDBRANCH   1   8
TORSDOF 2
