REMARK  Name = *****
REMARK  4 active torsions:
REMARK  status: ('A' for Active; 'I' for Inactive)
REMARK    1  A    between atoms: C_4  and  P_7
REMARK    2  A    between atoms: P_7  and  C_8
REMARK    3  A    between atoms: C_8  and  C_9
REMARK    4  A    between atoms: C_9  and  C_10
REMARK                            x       y       z     vdW  Elec       q    Type
REMARK                         _______ _______ _______ _____ _____    ______ ____
ROOT
ATOM      1  C   UNL     1      -4.136  -0.940  -0.282  0.00  0.00    +0.000 C 
ENDROOT
BRANCH   1   2
ATOM      2  P   UNL     1      -3.198   0.642  -0.036  0.00  0.00    +0.000 P 
ATOM      3  H   UNL     1      -1.848   0.412   0.139  0.00  0.00    +0.000 HD
BRANCH   2   7
ATOM      4  C   UNL     1      -5.202   2.212   3.825  0.00  0.00    +0.000 A 
ATOM      5  C   UNL     1      -4.221   1.226   3.906  0.00  0.00    +0.000 A 
ATOM      6  C   UNL     1      -3.610   0.750   2.743  0.00  0.00    +0.000 A 
ATOM      7  C   UNL     1      -3.978   1.252   1.489  0.00  0.00    +0.000 A 
ATOM      8  C   UNL     1      -4.961   2.249   1.421  0.00  0.00    +0.000 A 
ATOM      9  C   UNL     1      -5.571   2.724   2.584  0.00  0.00    +0.000 A 
ENDBRANCH   2   7
ENDBRANCH   1   2
BRANCH   1  10
ATOM     10  C   UNL     1      -5.555  -0.710  -0.805  0.00  0.00    +0.000 C 
BRANCH  10  11
ATOM     11  C   UNL     1      -6.285  -2.017  -1.034  0.00  0.00    +0.000 A 
ATOM     12  C   UNL     1      -7.022  -2.548   0.043  0.00  0.00    +0.000 A 
ATOM     13  C   UNL     1      -7.709  -3.757  -0.076  0.00  0.00    +0.000 A 
ATOM     14  C   UNL     1      -7.669  -4.461  -1.273  0.00  0.00    +0.000 A 
ATOM     15  C   UNL     1      -6.941  -3.958  -2.351  0.00  0.00    +0.000 A 
ATOM     16  C   UNL     1      -6.249  -2.744  -2.236  0.00  0.00    +0.000 A 
ATOM     17  I   UNL     1      -5.186  -2.115  -3.935  0.00  0.00    +0.000 I 
ENDBRANCH  10  11
ENDBRANCH   1  10
TORSDOF 4
