REMARK  Name = *****
REMARK  2 active torsions:
REMARK  status: ('A' for Active; 'I' for Inactive)
REMARK    1  A    between atoms: C_1  and  C_2
REMARK    2  A    between atoms: C_9  and  C_11
REMARK                            x       y       z     vdW  Elec       q    Type
REMARK                         _______ _______ _______ _____ _____    ______ ____
ROOT
ATOM      1  C   UNL     1       1.075  -0.060  -0.035  0.00  0.00    +0.000 C 
ATOM      2  C   UNL     1       2.576  -0.085   0.031  0.00  0.00    +0.000 A 
ATOM      3  C   UNL     1       3.260  -1.315  -0.024  0.00  0.00    +0.000 A 
ATOM      4  C   UNL     1       4.660  -1.306   0.007  0.00  0.00    +0.000 A 
ATOM      5  C   UNL     1       5.321  -0.092   0.078  0.00  0.00    +0.000 A 
ATOM      6  C   UNL     1       4.697   1.148   0.120  0.00  0.00    +0.000 A 
ATOM      7  C   UNL     1       3.296   1.123   0.089  0.00  0.00    +0.000 A 
ATOM      8  O   UNL     1       6.660  -0.345   0.094  0.00  0.00    +0.000 OA
ATOM      9  C   UNL     1       6.740  -1.715   0.030  0.00  0.00    +0.000 A 
ATOM     10  N   UNL     1       5.572  -2.331  -0.024  0.00  0.00    +0.000 NA
ENDROOT
BRANCH   9  11
ATOM     11  C   UNL     1       8.082  -2.294   0.031  0.00  0.00    +0.000 A 
ATOM     12  C   UNL     1       9.238  -1.496   0.089  0.00  0.00    +0.000 A 
ATOM     13  C   UNL     1      10.508  -2.080   0.088  0.00  0.00    +0.000 A 
ATOM     14  C   UNL     1      10.628  -3.463   0.030  0.00  0.00    +0.000 A 
ATOM     15  C   UNL     1       9.502  -4.275  -0.028  0.00  0.00    +0.000 A 
ATOM     16  C   UNL     1       8.233  -3.691  -0.027  0.00  0.00    +0.000 A 
ATOM     17  F   UNL     1      11.845  -4.021   0.030  0.00  0.00    +0.000 F 
ENDBRANCH   9  11
TORSDOF 1
