REMARK  Name = *****
REMARK  5 active torsions:
REMARK  status: ('A' for Active; 'I' for Inactive)
REMARK    1  A    between atoms: C_1  and  C_2
REMARK    2  A    between atoms: C_7  and  S_8
REMARK    3  A    between atoms: S_8  and  S_9
REMARK    4  A    between atoms: S_9  and  C_11
REMARK    5  A    between atoms: C_16  and  C_17
REMARK                            x       y       z     vdW  Elec       q    Type
REMARK                         _______ _______ _______ _____ _____    ______ ____
ROOT
ATOM      1  S   UNL     1       3.255  -2.311   0.470  0.00  0.00    +0.000 S 
ATOM      2  O   UNL     1       3.470  -2.090   1.938  0.00  0.00    +0.000 OA
ENDROOT
BRANCH   1   3
ATOM      3  C   UNL     1       3.930  -3.955   0.051  0.00  0.00    +0.000 A 
ATOM      4  C   UNL     1       3.583  -4.481  -1.211  0.00  0.00    +0.000 A 
ATOM      5  C   UNL     1       4.058  -5.723  -1.634  0.00  0.00    +0.000 A 
ATOM      6  C   UNL     1       4.898  -6.456  -0.808  0.00  0.00    +0.000 A 
ATOM      7  C   UNL     1       5.270  -5.944   0.434  0.00  0.00    +0.000 A 
ATOM      8  C   UNL     1       4.807  -4.689   0.877  0.00  0.00    +0.000 A 
ATOM      9  C   UNL     1       5.273  -4.209   2.224  0.00  0.00    +0.000 C 
ENDBRANCH   1   3
BRANCH   1  10
ATOM     10  S   UNL     1       1.260  -2.696   0.484  0.00  0.00    +0.000 S 
BRANCH  10  17
ATOM     11  C   UNL     1       0.080  -0.669  -1.662  0.00  0.00    +0.000 C 
ATOM     12  C   UNL     1       0.080  -0.246  -0.218  0.00  0.00    +0.000 A 
ATOM     13  C   UNL     1      -0.448   1.013   0.118  0.00  0.00    +0.000 A 
ATOM     14  C   UNL     1      -0.475   1.448   1.444  0.00  0.00    +0.000 A 
ATOM     15  C   UNL     1       0.022   0.631   2.453  0.00  0.00    +0.000 A 
ATOM     16  C   UNL     1       0.548  -0.621   2.136  0.00  0.00    +0.000 A 
ATOM     17  C   UNL     1       0.589  -1.068   0.807  0.00  0.00    +0.000 A 
ENDBRANCH  10  17
ENDBRANCH   1  10
TORSDOF 3
