REMARK  Name = *****
REMARK  4 active torsions:
REMARK  status: ('A' for Active; 'I' for Inactive)
REMARK    1  A    between atoms: C_1  and  O_2
REMARK    2  A    between atoms: O_2  and  C_3
REMARK    3  A    between atoms: C_6  and  C_9
REMARK    4  A    between atoms: C_10  and  C_11
REMARK                            x       y       z     vdW  Elec       q    Type
REMARK                         _______ _______ _______ _____ _____    ______ ____
ROOT
ATOM      1  C   UNL     1       5.120   4.442  -2.401  0.00  0.00    +0.000 C 
ATOM      2  C   UNL     1       6.165   4.370  -3.242  0.00  0.00    +0.000 C 
ATOM      3  F   UNL     1       4.607   5.655  -2.083  0.00  0.00    +0.000 F 
ENDROOT
BRANCH   1   7
ATOM      4  C   UNL     1       3.188   1.136  -0.440  0.00  0.00    +0.000 A 
ATOM      5  C   UNL     1       3.153   2.416   0.107  0.00  0.00    +0.000 A 
ATOM      6  C   UNL     1       3.790   3.479  -0.549  0.00  0.00    +0.000 A 
ATOM      7  C   UNL     1       4.481   3.281  -1.754  0.00  0.00    +0.000 A 
ATOM      8  C   UNL     1       4.497   1.992  -2.300  0.00  0.00    +0.000 A 
ATOM      9  C   UNL     1       3.860   0.932  -1.646  0.00  0.00    +0.000 A 
BRANCH   4  11
ATOM     10  C   UNL     1       1.920   0.173   1.324  0.00  0.00    +0.000 C 
ATOM     11  O   UNL     1       2.612   0.016   0.092  0.00  0.00    +0.000 OA
ENDBRANCH   4  11
ENDBRANCH   1   7
BRANCH   2  12
ATOM     12  C   UNL     1       6.818   5.521  -3.884  0.00  0.00    +0.000 A 
ATOM     13  C   UNL     1       7.052   6.727  -3.210  0.00  0.00    +0.000 A 
ATOM     14  C   UNL     1       7.711   7.782  -3.846  0.00  0.00    +0.000 A 
ATOM     15  C   UNL     1       8.155   7.640  -5.158  0.00  0.00    +0.000 A 
ATOM     16  C   UNL     1       7.944   6.440  -5.835  0.00  0.00    +0.000 A 
ATOM     17  C   UNL     1       7.284   5.385  -5.199  0.00  0.00    +0.000 A 
ENDBRANCH   2  12
TORSDOF 3
