REMARK  Name = *****
REMARK  4 active torsions:
REMARK  status: ('A' for Active; 'I' for Inactive)
REMARK    1  A    between atoms: C_1  and  C_2
REMARK    2  A    between atoms: C_5  and  C_8
REMARK    3  A    between atoms: C_8  and  C_9
REMARK    4  A    between atoms: C_9  and  C_15
REMARK                            x       y       z     vdW  Elec       q    Type
REMARK                         _______ _______ _______ _____ _____    ______ ____
ROOT
ATOM      1  C   UNL     1      -3.441   0.219  -2.077  0.00  0.00    +0.000 C 
ENDROOT
BRANCH   1   6
ATOM      2  C   UNL     1       1.284  -2.512  -0.021  0.00  0.00    +0.000 C 
ATOM      3  C   UNL     1       0.071  -1.827  -0.578  0.00  0.00    +0.000 A 
ATOM      4  C   UNL     1      -1.202  -2.375  -0.392  0.00  0.00    +0.000 A 
ATOM      5  C   UNL     1      -2.334  -1.719  -0.882  0.00  0.00    +0.000 A 
ATOM      6  C   UNL     1      -2.213  -0.500  -1.562  0.00  0.00    +0.000 A 
ATOM      7  C   UNL     1      -0.938   0.057  -1.729  0.00  0.00    +0.000 A 
ATOM      8  C   UNL     1       0.193  -0.600  -1.238  0.00  0.00    +0.000 A 
ENDBRANCH   1   6
BRANCH   1   9
ATOM      9  C   UNL     1      -3.947   1.291  -1.128  0.00  0.00    +0.000 C 
ATOM     10  C   UNL     1      -3.848   2.623  -1.343  0.00  0.00    +0.000 C 
ATOM     11  S   UNL     1      -4.478   3.823  -0.226  0.00  0.00    +0.000 S 
ATOM     12  C   UNL     1      -4.298   5.244  -1.340  0.00  0.00    +0.000 C 
ATOM     13  C   UNL     1      -3.042   5.022  -2.159  0.00  0.00    +0.000 C 
ATOM     14  S   UNL     1      -3.079   3.308  -2.761  0.00  0.00    +0.000 S 
BRANCH   9  15
ATOM     15  C   UNL     1      -4.612   0.789   0.038  0.00  0.00    +0.000 C 
ATOM     16  N   UNL     1      -5.161   0.339   0.957  0.00  0.00    +0.000 NA
ENDBRANCH   9  15
ENDBRANCH   1   9
TORSDOF 3
