REMARK  Name = *****
REMARK  2 active torsions:
REMARK  status: ('A' for Active; 'I' for Inactive)
REMARK    1  A    between atoms: C_4  and  C_7
REMARK    2  A    between atoms: C_8  and  C_9
REMARK                            x       y       z     vdW  Elec       q    Type
REMARK                         _______ _______ _______ _____ _____    ______ ____
ROOT
ATOM      1  C   UNL     1      -2.881   0.226  -0.151  0.00  0.00    +0.000 C 
ATOM      2  C   UNL     1      -3.732  -0.785  -0.399  0.00  0.00    +0.000 C 
ATOM      3 BR   UNL     1      -3.239  -2.577  -0.613  0.00  0.00    +0.000 Br
ENDROOT
BRANCH   1   7
ATOM      4  C   UNL     1       1.342  -0.175   0.261  0.00  0.00    +0.000 A 
ATOM      5  C   UNL     1       0.788   0.148  -0.978  0.00  0.00    +0.000 A 
ATOM      6  C   UNL     1      -0.595   0.280  -1.113  0.00  0.00    +0.000 A 
ATOM      7  C   UNL     1      -1.430   0.088  -0.007  0.00  0.00    +0.000 A 
ATOM      8  C   UNL     1      -0.870  -0.237   1.233  0.00  0.00    +0.000 A 
ATOM      9  C   UNL     1       0.513  -0.368   1.366  0.00  0.00    +0.000 A 
ENDBRANCH   1   7
BRANCH   2  10
ATOM     10  C   UNL     1      -5.166  -0.484  -0.517  0.00  0.00    +0.000 A 
ATOM     11  C   UNL     1      -5.701  -0.054  -1.739  0.00  0.00    +0.000 A 
ATOM     12  C   UNL     1      -7.061   0.245  -1.846  0.00  0.00    +0.000 A 
ATOM     13  C   UNL     1      -7.893   0.118  -0.734  0.00  0.00    +0.000 A 
ATOM     14  C   UNL     1      -7.368  -0.308   0.486  0.00  0.00    +0.000 A 
ATOM     15  C   UNL     1      -6.009  -0.607   0.596  0.00  0.00    +0.000 A 
ENDBRANCH   2  10
TORSDOF 2
