REMARK  Name = *****
REMARK  5 active torsions:
REMARK  status: ('A' for Active; 'I' for Inactive)
REMARK    1  A    between atoms: C_5  and  S_6
REMARK    2  A    between atoms: S_6  and  C_7
REMARK    3  A    between atoms: C_7  and  C_8
REMARK    4  A    between atoms: C_8  and  S_9
REMARK    5  A    between atoms: S_9  and  C_10
REMARK                            x       y       z     vdW  Elec       q    Type
REMARK                         _______ _______ _______ _____ _____    ______ ____
ROOT
ATOM      1  C   UNL     1       4.119  -0.843  -0.547  0.00  0.00    +0.000 C 
ENDROOT
BRANCH   1   2
ATOM      2  S   UNL     1       3.043  -1.393   0.821  0.00  0.00    +0.000 S 
BRANCH   2   7
ATOM      3  C   UNL     1       1.386   0.862   0.756  0.00  0.00    +0.000 A 
ATOM      4  C   UNL     1       0.159   1.321   0.325  0.00  0.00    +0.000 A 
ATOM      5  S   UNL     1      -0.741   0.102  -0.473  0.00  0.00    +0.000 S 
ATOM      6  C   UNL     1       0.507  -1.048  -0.240  0.00  0.00    +0.000 A 
ATOM      7  C   UNL     1       1.585  -0.504   0.418  0.00  0.00    +0.000 A 
ENDBRANCH   2   7
ENDBRANCH   1   2
BRANCH   1   8
ATOM      8  C   UNL     1       5.482  -1.536  -0.535  0.00  0.00    +0.000 C 
BRANCH   8   9
ATOM      9  S   UNL     1       5.379  -3.283  -1.056  0.00  0.00    +0.000 S 
BRANCH   9  10
ATOM     10  C   UNL     1       7.080  -3.718  -1.037  0.00  0.00    +0.000 A 
ATOM     11  C   UNL     1       7.894  -3.683   0.071  0.00  0.00    +0.000 A 
ATOM     12  S   UNL     1       9.492  -4.181  -0.296  0.00  0.00    +0.000 S 
ATOM     13  C   UNL     1       9.084  -4.469  -1.934  0.00  0.00    +0.000 A 
ATOM     14  C   UNL     1       7.760  -4.186  -2.195  0.00  0.00    +0.000 A 
ENDBRANCH   9  10
ENDBRANCH   8   9
ENDBRANCH   1   8
TORSDOF 5
