REMARK  Name = *****
REMARK  6 active torsions:
REMARK  status: ('A' for Active; 'I' for Inactive)
REMARK    1  A    between atoms: C_1  and  C_2
REMARK    2  A    between atoms: C_5  and  C_8
REMARK    3  A    between atoms: C_9  and  C_10
REMARK    4  A    between atoms: C_13  and  O_16
REMARK    5  A    between atoms: O_16  and  C_17
REMARK    6  A    between atoms: C_17  and  C_19
REMARK                            x       y       z     vdW  Elec       q    Type
REMARK                         _______ _______ _______ _____ _____    ______ ____
ROOT
ATOM      1  C   UNL     1      -5.547   0.909  -0.068  0.00  0.00    +0.000 A 
ATOM      2  C   UNL     1      -6.238  -0.098   0.623  0.00  0.00    +0.000 A 
ATOM      3  C   UNL     1      -7.634  -0.151   0.595  0.00  0.00    +0.000 A 
ATOM      4  C   UNL     1      -8.340   0.826  -0.103  0.00  0.00    +0.000 A 
ATOM      5  C   UNL     1      -7.675   1.832  -0.798  0.00  0.00    +0.000 A 
ATOM      6  C   UNL     1      -6.280   1.879  -0.768  0.00  0.00    +0.000 A 
ENDROOT
BRANCH   1   8
ATOM      7  C   UNL     1      -3.258  -0.048  -0.092  0.00  0.00    +0.000 C 
ATOM      8  C   UNL     1      -4.081   1.012  -0.039  0.00  0.00    +0.000 C 
BRANCH   7  13
ATOM      9  C   UNL     1       2.529   0.163  -0.040  0.00  0.00    +0.000 C 
ATOM     10  C   UNL     1       1.030   0.141  -0.072  0.00  0.00    +0.000 A 
ATOM     11  C   UNL     1       0.288   1.023   0.720  0.00  0.00    +0.000 A 
ATOM     12  C   UNL     1      -1.110   0.980   0.714  0.00  0.00    +0.000 A 
ATOM     13  C   UNL     1      -1.792   0.053  -0.083  0.00  0.00    +0.000 A 
ATOM     14  C   UNL     1      -1.046  -0.850  -0.850  0.00  0.00    +0.000 A 
ATOM     15  C   UNL     1       0.352  -0.807  -0.846  0.00  0.00    +0.000 A 
ENDBRANCH   7  13
ENDBRANCH   1   8
BRANCH   4  16
ATOM     16  O   UNL     1      -9.735   0.779  -0.209  0.00  0.00    +0.000 OA
BRANCH  16  17
ATOM     17  C   UNL     1     -10.438   0.887   0.987  0.00  0.00    +0.000 C 
ATOM     18  O   UNL     1      -9.971   1.038   2.107  0.00  0.00    +0.000 OA
ATOM     19  C   UNL     1     -11.905   0.800   0.689  0.00  0.00    +0.000 C 
ENDBRANCH  16  17
ENDBRANCH   4  16
TORSDOF 4
