REMARK  Name = *****
REMARK  4 active torsions:
REMARK  status: ('A' for Active; 'I' for Inactive)
REMARK    1  A    between atoms: C_1  and  C_2
REMARK    2  A    between atoms: C_5  and  C_8
REMARK    3  A    between atoms: C_9  and  C_10
REMARK    4  A    between atoms: C_13  and  C_15
REMARK                            x       y       z     vdW  Elec       q    Type
REMARK                         _______ _______ _______ _____ _____    ______ ____
ROOT
ATOM      1  C   UNL     1      -3.338   0.143  -0.038  0.00  0.00    +0.000 C 
ATOM      2  C   UNL     1      -4.064   1.089  -0.653  0.00  0.00    +0.000 C 
ENDROOT
BRANCH   1   7
ATOM      3  C   UNL     1       2.446  -0.111   0.042  0.00  0.00    +0.000 C 
ATOM      4  C   UNL     1       0.950  -0.029  -0.011  0.00  0.00    +0.000 A 
ATOM      5  C   UNL     1       0.300   1.204   0.106  0.00  0.00    +0.000 A 
ATOM      6  C   UNL     1      -1.097   1.276   0.088  0.00  0.00    +0.000 A 
ATOM      7  C   UNL     1      -1.868   0.115  -0.046  0.00  0.00    +0.000 A 
ATOM      8  C   UNL     1      -1.216  -1.121  -0.130  0.00  0.00    +0.000 A 
ATOM      9  C   UNL     1       0.181  -1.192  -0.113  0.00  0.00    +0.000 A 
ENDBRANCH   1   7
BRANCH   2  10
ATOM     10  C   UNL     1      -5.484   1.074  -0.629  0.00  0.00    +0.000 A 
ATOM     11  N   UNL     1      -6.279   1.962  -1.207  0.00  0.00    +0.000 NA
ATOM     12  N   UNL     1      -7.583   1.602  -0.953  0.00  0.00    +0.000 NA
ATOM     13  C   UNL     1      -7.535   0.505  -0.228  0.00  0.00    +0.000 A 
ATOM     14  O   UNL     1      -6.241   0.111   0.018  0.00  0.00    +0.000 OA
BRANCH  13  15
ATOM     15  C   UNL     1      -8.634  -0.333   0.340  0.00  0.00    +0.000 C 
ATOM     16 CL   UNL     1     -10.249   0.316  -0.086  0.00  0.00    +0.000 Cl
ATOM     17 CL   UNL     1      -8.521  -2.009  -0.291  0.00  0.00    +0.000 Cl
ATOM     18 CL   UNL     1      -8.506  -0.384   2.130  0.00  0.00    +0.000 Cl
ENDBRANCH  13  15
ENDBRANCH   2  10
TORSDOF 3
