REMARK  Name = *****
REMARK  3 active torsions:
REMARK  status: ('A' for Active; 'I' for Inactive)
REMARK    1  A    between atoms: C_1  and  C_2
REMARK    2  A    between atoms: C_3  and  C_8
REMARK    3  A    between atoms: C_9  and  C_10
REMARK                            x       y       z     vdW  Elec       q    Type
REMARK                         _______ _______ _______ _____ _____    ______ ____
ROOT
ATOM      1  C   UNL     1       1.024   2.441  -0.343  0.00  0.00    +0.000 C 
ATOM      2  C   UNL     1       2.295   2.715  -0.007  0.00  0.00    +0.000 C 
ENDROOT
BRANCH   1   5
ATOM      3  C   UNL     1       1.913  -0.129  -1.708  0.00  0.00    +0.000 C 
ATOM      4  C   UNL     1       0.783  -0.003  -0.716  0.00  0.00    +0.000 C 
ATOM      5  C   UNL     1       0.393   1.149  -0.124  0.00  0.00    +0.000 C 
ATOM      6  C   UNL     1      -0.767   1.211   0.849  0.00  0.00    +0.000 C 
ATOM      7  C   UNL     1      -1.180  -0.154   1.396  0.00  0.00    +0.000 C 
ATOM      8  C   UNL     1      -1.264  -1.176   0.274  0.00  0.00    +0.000 C 
ATOM      9  C   UNL     1       0.081  -1.317  -0.437  0.00  0.00    +0.000 C 
ENDBRANCH   1   5
BRANCH   2  10
ATOM     10  C   UNL     1       2.974   3.994  -0.167  0.00  0.00    +0.000 C 
ATOM     11  C   UNL     1       4.230   4.142   0.295  0.00  0.00    +0.000 C 
ATOM     12  C   UNL     1       5.012   5.421   0.220  0.00  0.00    +0.000 C 
ATOM     13  C   UNL     1       4.152   6.632  -0.134  0.00  0.00    +0.000 C 
ATOM     14  C   UNL     1       3.178   6.296  -1.255  0.00  0.00    +0.000 C 
ATOM     15  C   UNL     1       2.259   5.135  -0.861  0.00  0.00    +0.000 C 
ENDBRANCH   2  10
TORSDOF 2
