REMARK  Name = *****
REMARK  3 active torsions:
REMARK  status: ('A' for Active; 'I' for Inactive)
REMARK    1  A    between atoms: C_4  and  C_7
REMARK    2  A    between atoms: C_7  and  C_8
REMARK    3  A    between atoms: C_8  and  C_9
REMARK                            x       y       z     vdW  Elec       q    Type
REMARK                         _______ _______ _______ _____ _____    ______ ____
ROOT
ATOM      1  C   UNL     1      -3.131   1.274  -1.523  0.00  0.00    +0.000 C 
ATOM      2  F   UNL     1      -2.417   2.443  -1.466  0.00  0.00    +0.000 F 
ATOM      3  F   UNL     1      -2.610   0.592  -2.589  0.00  0.00    +0.000 F 
ENDROOT
BRANCH   1   4
ATOM      4  C   UNL     1      -4.612   1.556  -1.715  0.00  0.00    +0.000 A 
ATOM      5  C   UNL     1      -5.170   2.774  -1.296  0.00  0.00    +0.000 A 
ATOM      6  C   UNL     1      -6.533   3.023  -1.463  0.00  0.00    +0.000 A 
ATOM      7  C   UNL     1      -7.353   2.060  -2.048  0.00  0.00    +0.000 A 
ATOM      8  C   UNL     1      -6.811   0.848  -2.471  0.00  0.00    +0.000 A 
ATOM      9  C   UNL     1      -5.449   0.596  -2.307  0.00  0.00    +0.000 A 
ENDBRANCH   1   4
BRANCH   1  10
ATOM     10  C   UNL     1      -2.878   0.468  -0.223  0.00  0.00    +0.000 C 
ATOM     11  F   UNL     1      -3.587  -0.707  -0.267  0.00  0.00    +0.000 F 
BRANCH  10  15
ATOM     12  C   UNL     1       1.317  -0.271   0.520  0.00  0.00    +0.000 A 
ATOM     13  C   UNL     1       0.766   0.973   0.822  0.00  0.00    +0.000 A 
ATOM     14  C   UNL     1      -0.588   1.215   0.585  0.00  0.00    +0.000 A 
ATOM     15  C   UNL     1      -1.406   0.212   0.042  0.00  0.00    +0.000 A 
ATOM     16  C   UNL     1      -0.839  -1.035  -0.259  0.00  0.00    +0.000 A 
ATOM     17  C   UNL     1       0.515  -1.274  -0.020  0.00  0.00    +0.000 A 
ENDBRANCH  10  15
ENDBRANCH   1  10
TORSDOF 3
