REMARK  Name = *****
REMARK  4 active torsions:
REMARK  status: ('A' for Active; 'I' for Inactive)
REMARK    1  A    between atoms: C_1  and  C_2
REMARK    2  A    between atoms: C_5  and  C_8
REMARK    3  A    between atoms: C_8  and  O_10
REMARK    4  A    between atoms: O_10  and  C_11
REMARK                            x       y       z     vdW  Elec       q    Type
REMARK                         _______ _______ _______ _____ _____    ______ ____
ROOT
ATOM      1  C   UNL     1      -3.032  -0.189   0.753  0.00  0.00    +0.000 C 
ATOM      2  O   UNL     1      -3.832  -0.843   0.101  0.00  0.00    +0.000 OA
ENDROOT
BRANCH   1   7
ATOM      3  C   UNL     1       2.578   0.072  -0.710  0.00  0.00    +0.000 C 
ATOM      4  C   UNL     1       1.125   0.037  -0.337  0.00  0.00    +0.000 A 
ATOM      5  C   UNL     1       0.662   0.750   0.775  0.00  0.00    +0.000 A 
ATOM      6  C   UNL     1      -0.685   0.694   1.145  0.00  0.00    +0.000 A 
ATOM      7  C   UNL     1      -1.586  -0.088   0.410  0.00  0.00    +0.000 A 
ATOM      8  C   UNL     1      -1.120  -0.813  -0.694  0.00  0.00    +0.000 A 
ATOM      9  C   UNL     1       0.227  -0.756  -1.061  0.00  0.00    +0.000 A 
ENDBRANCH   1   7
BRANCH   1  10
ATOM     10  O   UNL     1      -3.299   0.553   1.890  0.00  0.00    +0.000 OA
BRANCH  10  11
ATOM     11  C   UNL     1      -4.636   0.503   2.290  0.00  0.00    +0.000 A 
ATOM     12  C   UNL     1      -5.428   1.632   2.096  0.00  0.00    +0.000 A 
ATOM     13  C   UNL     1      -6.746   1.607   2.537  0.00  0.00    +0.000 A 
ATOM     14  C   UNL     1      -7.272   0.488   3.173  0.00  0.00    +0.000 A 
ATOM     15  C   UNL     1      -6.455  -0.619   3.371  0.00  0.00    +0.000 A 
ATOM     16  C   UNL     1      -5.132  -0.625   2.943  0.00  0.00    +0.000 A 
ATOM     17  F   UNL     1      -6.949  -1.697   3.994  0.00  0.00    +0.000 F 
ATOM     18  F   UNL     1      -7.521   2.684   2.354  0.00  0.00    +0.000 F 
ENDBRANCH  10  11
ENDBRANCH   1  10
TORSDOF 3
