REMARK  Name = *****
REMARK  4 active torsions:
REMARK  status: ('A' for Active; 'I' for Inactive)
REMARK    1  A    between atoms: C_1  and  C_2
REMARK    2  A    between atoms: C_3  and  C_7
REMARK    3  A    between atoms: C_8  and  C_9
REMARK    4  A    between atoms: C_10  and  C_14
REMARK                            x       y       z     vdW  Elec       q    Type
REMARK                         _______ _______ _______ _____ _____    ______ ____
ROOT
ATOM      1  C   UNL     1       0.607  -2.792  -0.024  0.00  0.00    +0.000 C 
ATOM      2  C   UNL     1       1.872  -3.193   0.193  0.00  0.00    +0.000 C 
ENDROOT
BRANCH   1   5
ATOM      3  C   UNL     1       2.010  -0.265  -1.364  0.00  0.00    +0.000 C 
ATOM      4  C   UNL     1       0.764  -0.342  -0.542  0.00  0.00    +0.000 A 
ATOM      5  C   UNL     1       0.142  -1.437   0.036  0.00  0.00    +0.000 A 
ATOM      6  C   UNL     1      -1.078  -1.075   0.687  0.00  0.00    +0.000 A 
ATOM      7  C   UNL     1      -1.322   0.278   0.627  0.00  0.00    +0.000 A 
ATOM      8  S   UNL     1      -0.101   1.110  -0.224  0.00  0.00    +0.000 S 
ENDBRANCH   1   5
BRANCH   2   9
ATOM      9  C   UNL     1       2.350  -4.548   0.152  0.00  0.00    +0.000 A 
ATOM     10  C   UNL     1       3.573  -4.929   0.682  0.00  0.00    +0.000 A 
ATOM     11  S   UNL     1       3.867  -6.606   0.465  0.00  0.00    +0.000 S 
ATOM     12  C   UNL     1       2.377  -6.833  -0.332  0.00  0.00    +0.000 A 
ATOM     13  C   UNL     1       1.665  -5.659  -0.436  0.00  0.00    +0.000 A 
ATOM     14  C   UNL     1       4.603  -4.100   1.382  0.00  0.00    +0.000 C 
ENDBRANCH   2   9
TORSDOF 2
