REMARK  Name = *****
REMARK  6 active torsions:
REMARK  status: ('A' for Active; 'I' for Inactive)
REMARK    1  A    between atoms: C_1  and  C_2
REMARK    2  A    between atoms: C_2  and  C_3
REMARK    3  A    between atoms: C_3  and  C_15
REMARK    4  A    between atoms: C_5  and  C_7
REMARK    5  A    between atoms: C_7  and  C_8
REMARK    6  A    between atoms: C_8  and  C_9
REMARK                            x       y       z     vdW  Elec       q    Type
REMARK                         _______ _______ _______ _____ _____    ______ ____
ROOT
ATOM      1  C   UNL     1       2.426   4.684  -0.106  0.00  0.00    +0.000 C 
ENDROOT
BRANCH   1   4
ATOM      2  C   UNL     1       2.992   1.105  -0.444  0.00  0.00    +0.000 C 
ATOM      3  C   UNL     1       3.601   2.215   0.464  0.00  0.00    +0.000 C 
ATOM      4  C   UNL     1       2.673   3.187  -0.243  0.00  0.00    +0.000 C 
ATOM      5  C   UNL     1       2.148   2.235  -1.039  0.00  0.00    +0.000 C 
ATOM      6  C   UNL     1       2.152   0.066   0.304  0.00  0.00    +0.000 C 
BRANCH   2   8
ATOM      7  C   UNL     1       5.010  -0.405  -0.799  0.00  0.00    +0.000 C 
ATOM      8  C   UNL     1       3.963   0.479  -1.461  0.00  0.00    +0.000 C 
ENDBRANCH   2   8
ENDBRANCH   1   4
BRANCH   1   9
ATOM      9  C   UNL     1       3.475   5.400   0.732  0.00  0.00    +0.000 C 
BRANCH   9  10
ATOM     10  C   UNL     1       3.181   6.873   0.865  0.00  0.00    +0.000 A 
ATOM     11  C   UNL     1       2.495   7.363   1.985  0.00  0.00    +0.000 A 
ATOM     12  C   UNL     1       2.210   8.725   2.098  0.00  0.00    +0.000 A 
ATOM     13  C   UNL     1       2.601   9.607   1.093  0.00  0.00    +0.000 A 
ATOM     14  C   UNL     1       3.277   9.129  -0.028  0.00  0.00    +0.000 A 
ATOM     15  C   UNL     1       3.565   7.768  -0.143  0.00  0.00    +0.000 A 
ENDBRANCH   9  10
ENDBRANCH   1   9
TORSDOF 4
