REMARK  Name = *****
REMARK  3 active torsions:
REMARK  status: ('A' for Active; 'I' for Inactive)
REMARK    1  A    between atoms: C_1  and  C_2
REMARK    2  A    between atoms: C_5  and  S_8
REMARK    3  A    between atoms: S_8  and  C_10
REMARK                            x       y       z     vdW  Elec       q    Type
REMARK                         _______ _______ _______ _____ _____    ______ ____
ROOT
ATOM      1  S   UNL     1      -3.648  -0.306   0.459  0.00  0.00    +0.000 S 
ATOM      2  O   UNL     1      -4.221  -0.697   1.792  0.00  0.00    +0.000 OA
ENDROOT
BRANCH   1   3
ATOM      3  C   UNL     1      -3.965   1.452   0.265  0.00  0.00    +0.000 C 
ATOM      4  C   UNL     1      -5.219   1.967   0.265  0.00  0.00    +0.000 C 
ATOM      5  C   UNL     1      -5.481   3.454   0.030  0.00  0.00    +0.000 C 
ATOM      6  C   UNL     1      -6.729   3.978   0.742  0.00  0.00    +0.000 C 
ATOM      7  C   UNL     1      -7.959   3.153   0.383  0.00  0.00    +0.000 C 
ATOM      8  C   UNL     1      -7.672   1.688   0.463  0.00  0.00    +0.000 C 
ATOM      9  C   UNL     1      -6.436   1.168   0.437  0.00  0.00    +0.000 C 
ATOM     10 CL   UNL     1      -2.579   2.443  -0.066  0.00  0.00    +0.000 Cl
ENDBRANCH   1   3
BRANCH   1  15
ATOM     11  C   UNL     1       2.408  -0.973   0.989  0.00  0.00    +0.000 C 
ATOM     12  C   UNL     1       0.922  -0.815   0.858  0.00  0.00    +0.000 A 
ATOM     13  C   UNL     1       0.318  -0.754  -0.403  0.00  0.00    +0.000 A 
ATOM     14  C   UNL     1      -1.066  -0.592  -0.518  0.00  0.00    +0.000 A 
ATOM     15  C   UNL     1      -1.860  -0.465   0.628  0.00  0.00    +0.000 A 
ATOM     16  C   UNL     1      -1.257  -0.517   1.888  0.00  0.00    +0.000 A 
ATOM     17  C   UNL     1       0.125  -0.684   2.002  0.00  0.00    +0.000 A 
ENDBRANCH   1  15
TORSDOF 2
