REMARK  Name = *****
REMARK  5 active torsions:
REMARK  status: ('A' for Active; 'I' for Inactive)
REMARK    1  A    between atoms: C_1  and  C_2
REMARK    2  A    between atoms: C_2  and  O_4
REMARK    3  A    between atoms: O_4  and  C_5
REMARK    4  A    between atoms: C_8  and  C_11
REMARK    5  A    between atoms: C_12  and  C_13
REMARK                            x       y       z     vdW  Elec       q    Type
REMARK                         _______ _______ _______ _____ _____    ______ ____
ROOT
ATOM      1  C   UNL     1       4.581  -0.936  -0.498  0.00  0.00    +0.000 C 
ATOM      2  C   UNL     1       5.105   0.427  -0.961  0.00  0.00    +0.000 C 
ATOM      3  C   UNL     1       6.626   0.435  -1.086  0.00  0.00    +0.000 C 
ATOM      4  C   UNL     1       7.122  -0.684  -2.014  0.00  0.00    +0.000 C 
ATOM      5  C   UNL     1       6.594  -2.051  -1.551  0.00  0.00    +0.000 C 
ATOM      6  C   UNL     1       5.074  -2.048  -1.426  0.00  0.00    +0.000 C 
ENDROOT
BRANCH   4   7
ATOM      7  C   UNL     1       8.630  -0.695  -2.066  0.00  0.00    +0.000 C 
ATOM      8  C   UNL     1       9.334  -0.501  -3.193  0.00  0.00    +0.000 C 
BRANCH   8   9
ATOM      9  C   UNL     1      10.802  -0.499  -3.262  0.00  0.00    +0.000 A 
ATOM     10  C   UNL     1      11.589  -1.374  -2.501  0.00  0.00    +0.000 A 
ATOM     11  C   UNL     1      12.982  -1.363  -2.619  0.00  0.00    +0.000 A 
ATOM     12  C   UNL     1      13.601  -0.486  -3.506  0.00  0.00    +0.000 A 
ATOM     13  C   UNL     1      12.829   0.377  -4.280  0.00  0.00    +0.000 A 
ATOM     14  C   UNL     1      11.437   0.366  -4.163  0.00  0.00    +0.000 A 
ENDBRANCH   8   9
ENDBRANCH   4   7
BRANCH   1  15
ATOM     15  O   UNL     1       3.143  -0.946  -0.541  0.00  0.00    +0.000 OA
BRANCH  15  17
ATOM     16  C   UNL     1       1.025  -0.496   0.351  0.00  0.00    +0.000 C 
ATOM     17  C   UNL     1       2.509  -0.418   0.542  0.00  0.00    +0.000 C 
ATOM     18  O   UNL     1       3.054   0.053   1.529  0.00  0.00    +0.000 OA
ENDBRANCH  15  17
ENDBRANCH   1  15
TORSDOF 4
