REMARK  Name = *****
REMARK  2 active torsions:
REMARK  status: ('A' for Active; 'I' for Inactive)
REMARK    1  A    between atoms: C_6  and  C_7
REMARK    2  A    between atoms: N_8  and  C_9
REMARK                            x       y       z     vdW  Elec       q    Type
REMARK                         _______ _______ _______ _____ _____    ______ ____
ROOT
ATOM      1  C   UNL     1      -3.474   0.199  -0.142  0.00  0.00    +0.000 C 
ATOM      2  N   UNL     1      -4.147   1.189   0.354  0.00  0.00    +0.000 NA
ENDROOT
BRANCH   2   3
ATOM      3  C   UNL     1      -5.539   1.115   0.229  0.00  0.00    +0.000 A 
ATOM      4  C   UNL     1      -6.299   0.405   1.161  0.00  0.00    +0.000 A 
ATOM      5  C   UNL     1      -7.684   0.361   1.031  0.00  0.00    +0.000 A 
ATOM      6  C   UNL     1      -8.316   1.028  -0.012  0.00  0.00    +0.000 A 
ATOM      7  C   UNL     1      -7.573   1.751  -0.937  0.00  0.00    +0.000 A 
ATOM      8  C   UNL     1      -6.182   1.798  -0.812  0.00  0.00    +0.000 A 
ATOM      9  F   UNL     1      -9.650   0.981  -0.132  0.00  0.00    +0.000 F 
ATOM     10  F   UNL     1      -8.405  -0.331   1.924  0.00  0.00    +0.000 F 
ENDBRANCH   2   3
BRANCH   1  16
ATOM     11  C   UNL     1      -1.339  -0.958  -0.624  0.00  0.00    +0.000 A 
ATOM     12  C   UNL     1       0.055  -1.022  -0.572  0.00  0.00    +0.000 A 
ATOM     13  C   UNL     1       0.771   0.014   0.021  0.00  0.00    +0.000 A 
ATOM     14  C   UNL     1       0.120   1.117   0.565  0.00  0.00    +0.000 A 
ATOM     15  C   UNL     1      -1.273   1.186   0.517  0.00  0.00    +0.000 A 
ATOM     16  C   UNL     1      -2.000   0.148  -0.078  0.00  0.00    +0.000 A 
ATOM     17  F   UNL     1       2.107  -0.052   0.067  0.00  0.00    +0.000 F 
ENDBRANCH   1  16
TORSDOF 2
