REMARK  Name = *****
REMARK  5 active torsions:
REMARK  status: ('A' for Active; 'I' for Inactive)
REMARK    1  A    between atoms: C_1  and  C_2
REMARK    2  A    between atoms: C_3  and  N_9
REMARK    3  A    between atoms: C_4  and  C_8
REMARK    4  A    between atoms: C_10  and  C_11
REMARK    5  A    between atoms: C_10  and  C_12
REMARK                            x       y       z     vdW  Elec       q    Type
REMARK                         _______ _______ _______ _____ _____    ______ ____
ROOT
ATOM      1  N   UNL     1       0.648   2.453   0.634  0.00  0.00    +0.000 NA
ATOM      2  C   UNL     1       1.007   3.217  -0.355  0.00  0.00    +0.000 C 
ATOM      3  C   UNL     1       1.235   2.755  -1.780  0.00  0.00    +0.000 C 
ENDROOT
BRANCH   1   6
ATOM      4  C   UNL     1       2.901   0.664   0.922  0.00  0.00    +0.000 C 
ATOM      5  C   UNL     1       1.525   0.176   0.565  0.00  0.00    +0.000 A 
ATOM      6  C   UNL     1       0.449   1.077   0.429  0.00  0.00    +0.000 A 
ATOM      7  C   UNL     1      -0.842   0.589   0.143  0.00  0.00    +0.000 A 
ATOM      8  C   UNL     1      -1.030  -0.784  -0.072  0.00  0.00    +0.000 A 
ATOM      9  C   UNL     1       0.042  -1.668   0.022  0.00  0.00    +0.000 A 
ATOM     10  C   UNL     1       1.312  -1.193   0.342  0.00  0.00    +0.000 A 
ATOM     11  C   UNL     1      -2.012   1.526   0.042  0.00  0.00    +0.000 C 
ENDBRANCH   1   6
BRANCH   2  12
ATOM     12  C   UNL     1       1.234   4.704  -0.077  0.00  0.00    +0.000 C 
ATOM     13  C   UNL     1       2.044   4.929   1.205  0.00  0.00    +0.000 C 
ATOM     14  C   UNL     1       2.220   6.418   1.497  0.00  0.00    +0.000 C 
ATOM     15  C   UNL     1       0.877   7.140   1.554  0.00  0.00    +0.000 C 
ATOM     16  C   UNL     1       0.059   6.913   0.286  0.00  0.00    +0.000 C 
ATOM     17  C   UNL     1      -0.116   5.427  -0.016  0.00  0.00    +0.000 C 
ENDBRANCH   2  12
TORSDOF 2
