REMARK  Name = *****
REMARK  4 active torsions:
REMARK  status: ('A' for Active; 'I' for Inactive)
REMARK    1  A    between atoms: C_1  and  C_2
REMARK    2  A    between atoms: C_6  and  C_16
REMARK    3  A    between atoms: N_8  and  C_9
REMARK    4  A    between atoms: C_9  and  C_10
REMARK                            x       y       z     vdW  Elec       q    Type
REMARK                         _______ _______ _______ _____ _____    ______ ____
ROOT
ATOM      1  C   UNL     1       1.132   0.068   0.394  0.00  0.00    +0.000 C 
ATOM      2  C   UNL     1       2.618   0.137   0.049  0.00  0.00    +0.000 C 
ATOM      3  C   UNL     1       2.925   1.166  -1.045  0.00  0.00    +0.000 C 
ATOM      4  C   UNL     1       2.476   0.728  -2.437  0.00  0.00    +0.000 C 
ATOM      5  C   UNL     1       3.071  -0.628  -2.807  0.00  0.00    +0.000 C 
ATOM      6  C   UNL     1       2.699  -1.708  -1.787  0.00  0.00    +0.000 C 
ATOM      7  C   UNL     1       3.120  -1.242  -0.385  0.00  0.00    +0.000 C 
ATOM      8  N   UNL     1       3.819  -2.041   0.346  0.00  0.00    +0.000 NA
ATOM      9  C   UNL     1       3.309  -3.050  -2.188  0.00  0.00    +0.000 C 
ENDROOT
BRANCH   8  10
ATOM     10  C   UNL     1       4.217  -1.656   1.698  0.00  0.00    +0.000 C 
BRANCH  10  11
ATOM     11  C   UNL     1       4.974  -2.753   2.416  0.00  0.00    +0.000 A 
ATOM     12  C   UNL     1       5.945  -2.422   3.373  0.00  0.00    +0.000 A 
ATOM     13  C   UNL     1       6.624  -3.421   4.074  0.00  0.00    +0.000 A 
ATOM     14  C   UNL     1       6.334  -4.762   3.833  0.00  0.00    +0.000 A 
ATOM     15  C   UNL     1       5.362  -5.105   2.896  0.00  0.00    +0.000 A 
ATOM     16  C   UNL     1       4.682  -4.107   2.197  0.00  0.00    +0.000 A 
ENDBRANCH  10  11
ENDBRANCH   8  10
TORSDOF 2
