REMARK  Name = *****
REMARK  3 active torsions:
REMARK  status: ('A' for Active; 'I' for Inactive)
REMARK    1  A    between atoms: C_1  and  N_2
REMARK    2  A    between atoms: C_3  and  C_7
REMARK    3  A    between atoms: C_8  and  C_9
REMARK                            x       y       z     vdW  Elec       q    Type
REMARK                         _______ _______ _______ _____ _____    ______ ____
ROOT
ATOM      1  C   UNL     1       2.738   2.533  -0.094  0.00  0.00    +0.000 C 
ATOM      2  C   UNL     1       3.378   3.625   0.355  0.00  0.00    +0.000 C 
ATOM      3 CL   UNL     1       4.836   3.596   1.273  0.00  0.00    +0.000 Cl
ENDROOT
BRANCH   2   4
ATOM      4  C   UNL     1       2.792   4.957   0.138  0.00  0.00    +0.000 A 
ATOM      5  C   UNL     1       2.292   5.698   1.220  0.00  0.00    +0.000 A 
ATOM      6  C   UNL     1       1.720   6.957   1.012  0.00  0.00    +0.000 A 
ATOM      7  C   UNL     1       1.647   7.481  -0.277  0.00  0.00    +0.000 A 
ATOM      8  C   UNL     1       2.143   6.759  -1.360  0.00  0.00    +0.000 A 
ATOM      9  C   UNL     1       2.715   5.500  -1.154  0.00  0.00    +0.000 A 
ATOM     10 CL   UNL     1       0.940   9.027  -0.532  0.00  0.00    +0.000 Cl
ENDBRANCH   2   4
BRANCH   1  13
ATOM     11  C   UNL     1       0.964   0.054   0.285  0.00  0.00    +0.000 C 
ATOM     12  N   UNL     1       2.434   0.094   0.155  0.00  0.00    +0.000 NA
ATOM     13  C   UNL     1       3.191   1.133   0.039  0.00  0.00    +0.000 C 
ATOM     14  C   UNL     1       4.635   0.697  -0.010  0.00  0.00    +0.000 C 
ATOM     15  C   UNL     1       4.517  -0.758  -0.434  0.00  0.00    +0.000 C 
ATOM     16  C   UNL     1       3.196  -1.183   0.170  0.00  0.00    +0.000 C 
ENDBRANCH   1  13
TORSDOF 2
