REMARK  Name = *****
REMARK  4 active torsions:
REMARK  status: ('A' for Active; 'I' for Inactive)
REMARK    1  A    between atoms: C_5  and  C_7
REMARK    2  A    between atoms: C_7  and  O_8
REMARK    3  A    between atoms: O_8  and  C_9
REMARK    4  A    between atoms: C_9  and  C_11
REMARK                            x       y       z     vdW  Elec       q    Type
REMARK                         _______ _______ _______ _____ _____    ______ ____
ROOT
ATOM      1  O   UNL     1      -3.306  -1.600  -0.796  0.00  0.00    +0.000 OA
ENDROOT
BRANCH   1   2
ATOM      2  C   UNL     1      -4.092  -2.332  -1.634  0.00  0.00    +0.000 C 
ATOM      3  O   UNL     1      -3.696  -3.288  -2.289  0.00  0.00    +0.000 OA
BRANCH   2   4
ATOM      4  C   UNL     1      -5.541  -1.863  -1.571  0.00  0.00    +0.000 C 
ATOM      5  C   UNL     1      -6.374  -2.494  -2.698  0.00  0.00    +0.000 C 
ATOM      6  C   UNL     1      -5.984  -1.965  -4.084  0.00  0.00    +0.000 C 
ATOM      7  C   UNL     1      -5.717  -0.489  -4.101  0.00  0.00    +0.000 C 
ATOM      8  C   UNL     1      -5.597   0.250  -2.989  0.00  0.00    +0.000 C 
ATOM      9  C   UNL     1      -5.678  -0.331  -1.607  0.00  0.00    +0.000 C 
ENDBRANCH   2   4
ENDBRANCH   1   2
BRANCH   1  10
ATOM     10  C   UNL     1      -1.907  -1.944  -0.787  0.00  0.00    +0.000 C 
BRANCH  10  15
ATOM     11  C   UNL     1       1.126  -1.088  -3.038  0.00  0.00    +0.000 C 
ATOM     12  C   UNL     1       1.225   0.378  -2.616  0.00  0.00    +0.000 C 
ATOM     13  C   UNL     1      -0.090   0.950  -2.176  0.00  0.00    +0.000 C 
ATOM     14  C   UNL     1      -1.167   0.196  -1.908  0.00  0.00    +0.000 C 
ATOM     15  C   UNL     1      -1.169  -1.317  -1.985  0.00  0.00    +0.000 C 
ATOM     16  C   UNL     1       0.260  -1.886  -2.066  0.00  0.00    +0.000 C 
ENDBRANCH  10  15
ENDBRANCH   1  10
TORSDOF 4
