REMARK  Name = *****
REMARK  1 active torsions:
REMARK  status: ('A' for Active; 'I' for Inactive)
REMARK    1  A    between atoms: C_10  and  C_11
REMARK                            x       y       z     vdW  Elec       q    Type
REMARK                         _______ _______ _______ _____ _____    ______ ____
ROOT
ATOM      1  C   UNL     1      -1.751   0.794   0.121  0.00  0.00    +0.000 C 
ATOM      2  C   UNL     1      -0.274   0.632   0.047  0.00  0.00    +0.000 A 
ATOM      3  C   UNL     1       0.042  -0.717  -0.033  0.00  0.00    +0.000 A 
ATOM      4  C   UNL     1       1.360  -1.135  -0.113  0.00  0.00    +0.000 A 
ATOM      5  C   UNL     1       2.352  -0.159  -0.108  0.00  0.00    +0.000 A 
ATOM      6  C   UNL     1       2.042   1.203  -0.027  0.00  0.00    +0.000 A 
ATOM      7  C   UNL     1       0.710   1.611   0.052  0.00  0.00    +0.000 A 
ATOM      8  F   UNL     1       3.637  -0.531  -0.183  0.00  0.00    +0.000 F 
ATOM      9  C   UNL     1      -1.221  -1.435  -0.013  0.00  0.00    +0.000 C 
ATOM     10  C   UNL     1      -1.361  -2.769  -0.044  0.00  0.00    +0.000 C 
ATOM     11  O   UNL     1      -2.292  -0.547   0.069  0.00  0.00    +0.000 OA
ENDROOT
BRANCH  10  12
ATOM     12  C   UNL     1      -2.634  -3.506  -0.013  0.00  0.00    +0.000 A 
ATOM     13  C   UNL     1      -3.750  -3.109  -0.760  0.00  0.00    +0.000 A 
ATOM     14  C   UNL     1      -4.927  -3.862  -0.737  0.00  0.00    +0.000 A 
ATOM     15  C   UNL     1      -4.996  -5.027   0.024  0.00  0.00    +0.000 A 
ATOM     16  C   UNL     1      -3.888  -5.442   0.758  0.00  0.00    +0.000 A 
ATOM     17  C   UNL     1      -2.711  -4.689   0.735  0.00  0.00    +0.000 A 
ENDBRANCH  10  12
TORSDOF 1
