REMARK  Name = *****
REMARK  4 active torsions:
REMARK  status: ('A' for Active; 'I' for Inactive)
REMARK    1  A    between atoms: C_1  and  O_2
REMARK    2  A    between atoms: O_2  and  C_3
REMARK    3  A    between atoms: C_6  and  C_9
REMARK    4  A    between atoms: C_10  and  C_11
REMARK                            x       y       z     vdW  Elec       q    Type
REMARK                         _______ _______ _______ _____ _____    ______ ____
ROOT
ATOM      1  C   UNL     1       5.180  -3.594  -3.383  0.00  0.00    +0.000 C 
ATOM      2  C   UNL     1       4.899  -3.863  -4.668  0.00  0.00    +0.000 C 
ENDROOT
BRANCH   2   3
ATOM      3  C   UNL     1       5.642  -4.834  -5.484  0.00  0.00    +0.000 A 
ATOM      4  C   UNL     1       6.127  -6.039  -4.958  0.00  0.00    +0.000 A 
ATOM      5  C   UNL     1       6.800  -6.943  -5.781  0.00  0.00    +0.000 A 
ATOM      6  C   UNL     1       6.990  -6.670  -7.127  0.00  0.00    +0.000 A 
ATOM      7  C   UNL     1       6.498  -5.486  -7.657  0.00  0.00    +0.000 A 
ATOM      8  C   UNL     1       5.822  -4.571  -6.850  0.00  0.00    +0.000 A 
ATOM      9  F   UNL     1       6.665  -5.210  -8.957  0.00  0.00    +0.000 F 
ATOM     10  F   UNL     1       7.636  -7.545  -7.910  0.00  0.00    +0.000 F 
ATOM     11  F   UNL     1       7.258  -8.087  -5.255  0.00  0.00    +0.000 F 
ENDBRANCH   2   3
BRANCH   1  15
ATOM     12  C   UNL     1       3.091  -0.740  -0.955  0.00  0.00    +0.000 A 
ATOM     13  C   UNL     1       2.380  -1.537  -1.852  0.00  0.00    +0.000 A 
ATOM     14  C   UNL     1       3.054  -2.467  -2.655  0.00  0.00    +0.000 A 
ATOM     15  C   UNL     1       4.445  -2.607  -2.580  0.00  0.00    +0.000 A 
ATOM     16  C   UNL     1       5.149  -1.817  -1.665  0.00  0.00    +0.000 A 
ATOM     17  C   UNL     1       4.476  -0.888  -0.865  0.00  0.00    +0.000 A 
BRANCH  12  19
ATOM     18  C   UNL     1       1.153   0.401  -0.184  0.00  0.00    +0.000 C 
ATOM     19  O   UNL     1       2.560   0.201  -0.118  0.00  0.00    +0.000 OA
ENDBRANCH  12  19
ENDBRANCH   1  15
TORSDOF 3
