REMARK  Name = *****
REMARK  4 active torsions:
REMARK  status: ('A' for Active; 'I' for Inactive)
REMARK    1  A    between atoms: C_4  and  S_7
REMARK    2  A    between atoms: S_7  and  C_8
REMARK    3  A    between atoms: C_8  and  C_9
REMARK    4  A    between atoms: C_14  and  C_15
REMARK                            x       y       z     vdW  Elec       q    Type
REMARK                         _______ _______ _______ _____ _____    ______ ____
ROOT
ATOM      1  C   UNL     1      -5.436  -0.642  -0.326  0.00  0.00    +0.000 A 
ATOM      2  C   UNL     1      -6.089   0.367   0.410  0.00  0.00    +0.000 A 
ATOM      3  C   UNL     1      -7.426   0.694   0.170  0.00  0.00    +0.000 A 
ATOM      4  C   UNL     1      -8.153   0.006  -0.794  0.00  0.00    +0.000 A 
ATOM      5  C   UNL     1      -7.547  -1.025  -1.509  0.00  0.00    +0.000 A 
ATOM      6  C   UNL     1      -6.202  -1.360  -1.274  0.00  0.00    +0.000 A 
ENDROOT
BRANCH   6   7
ATOM      7  C   UNL     1      -5.640  -2.527  -2.018  0.00  0.00    +0.000 C 
ATOM      8  O   UNL     1      -4.979  -3.340  -1.375  0.00  0.00    +0.000 OA
ATOM      9 CL   UNL     1      -5.961  -2.663  -3.732  0.00  0.00    +0.000 Cl
ENDBRANCH   6   7
BRANCH   1  10
ATOM     10  C   UNL     1      -3.983  -0.988  -0.051  0.00  0.00    +0.000 C 
BRANCH  10  11
ATOM     11  S   UNL     1      -2.908   0.453   0.292  0.00  0.00    +0.000 S 
BRANCH  11  15
ATOM     12  C   UNL     1       1.078  -1.758   0.717  0.00  0.00    +0.000 A 
ATOM     13  C   UNL     1       0.692  -1.244  -0.520  0.00  0.00    +0.000 A 
ATOM     14  C   UNL     1      -0.522  -0.567  -0.646  0.00  0.00    +0.000 A 
ATOM     15  C   UNL     1      -1.357  -0.406   0.463  0.00  0.00    +0.000 A 
ATOM     16  C   UNL     1      -0.962  -0.914   1.704  0.00  0.00    +0.000 A 
ATOM     17  C   UNL     1       0.254  -1.591   1.829  0.00  0.00    +0.000 A 
ENDBRANCH  11  15
ENDBRANCH  10  11
ENDBRANCH   1  10
TORSDOF 4
