REMARK  Name = *****
REMARK  6 active torsions:
REMARK  status: ('A' for Active; 'I' for Inactive)
REMARK    1  A    between atoms: C_1  and  C_2
REMARK    2  A    between atoms: C_2  and  N_3
REMARK    3  A    between atoms: N_3  and  C_4
REMARK    4  A    between atoms: N_3  and  C_10
REMARK    5  A    between atoms: C_10  and  C_12
REMARK    6  A    between atoms: C_15  and  C_18
REMARK                            x       y       z     vdW  Elec       q    Type
REMARK                         _______ _______ _______ _____ _____    ______ ____
ROOT
ATOM      1  N   UNL     1       3.103   1.529  -0.219  0.00  0.00    +0.000 N 
ENDROOT
BRANCH   1   2
ATOM      2  C   UNL     1       2.077   2.515  -0.393  0.00  0.00    +0.000 A 
ATOM      3  C   UNL     1       0.771   2.365   0.113  0.00  0.00    +0.000 A 
ATOM      4  C   UNL     1      -0.215   3.346  -0.068  0.00  0.00    +0.000 A 
ATOM      5  C   UNL     1       0.076   4.514  -0.760  0.00  0.00    +0.000 A 
ATOM      6  C   UNL     1       1.354   4.702  -1.266  0.00  0.00    +0.000 A 
ATOM      7  C   UNL     1       2.335   3.718  -1.082  0.00  0.00    +0.000 A 
ENDBRANCH   1   2
BRANCH   1   9
ATOM      8  C   UNL     1       3.648  -0.892   0.177  0.00  0.00    +0.000 C 
ATOM      9  C   UNL     1       2.699   0.272   0.453  0.00  0.00    +0.000 C 
ENDBRANCH   1   9
BRANCH   1  10
ATOM     10  C   UNL     1       4.460   1.888  -0.272  0.00  0.00    +0.000 C 
ATOM     11  C   UNL     1       5.141   1.976  -1.428  0.00  0.00    +0.000 C 
BRANCH  10  12
ATOM     12  C   UNL     1       5.171   2.143   1.012  0.00  0.00    +0.000 A 
ATOM     13  C   UNL     1       4.596   2.957   1.998  0.00  0.00    +0.000 A 
ATOM     14  C   UNL     1       5.252   3.191   3.211  0.00  0.00    +0.000 A 
ATOM     15  C   UNL     1       6.503   2.620   3.464  0.00  0.00    +0.000 A 
ATOM     16  C   UNL     1       7.074   1.789   2.496  0.00  0.00    +0.000 A 
ATOM     17  C   UNL     1       6.417   1.557   1.283  0.00  0.00    +0.000 A 
ATOM     18  C   UNL     1       7.190   2.842   4.778  0.00  0.00    +0.000 C 
ENDBRANCH  10  12
ENDBRANCH   1  10
TORSDOF 4
