REMARK  Name = *****
REMARK  7 active torsions:
REMARK  status: ('A' for Active; 'I' for Inactive)
REMARK    1  A    between atoms: C_1  and  C_2
REMARK    2  A    between atoms: C_4  and  C_18
REMARK    3  A    between atoms: C_5  and  N_9
REMARK    4  A    between atoms: C_6  and  C_8
REMARK    5  A    between atoms: C_10  and  C_11
REMARK    6  A    between atoms: C_10  and  O_16
REMARK    7  A    between atoms: O_16  and  C_17
REMARK                            x       y       z     vdW  Elec       q    Type
REMARK                         _______ _______ _______ _____ _____    ______ ____
ROOT
ATOM      1  C   UNL     1       1.560   2.554   0.238  0.00  0.00    +0.000 C 
ATOM      2  C   UNL     1       0.628   1.390   0.076  0.00  0.00    +0.000 A 
ATOM      3  C   UNL     1       1.107   0.079   0.156  0.00  0.00    +0.000 A 
ATOM      4  C   UNL     1       0.246  -1.014  -0.021  0.00  0.00    +0.000 A 
ATOM      5  C   UNL     1      -1.124  -0.794  -0.270  0.00  0.00    +0.000 A 
ATOM      6  C   UNL     1      -1.598   0.524  -0.425  0.00  0.00    +0.000 A 
ATOM      7  C   UNL     1      -0.720   1.602  -0.229  0.00  0.00    +0.000 A 
ATOM      8  C   UNL     1      -3.037   0.811  -0.759  0.00  0.00    +0.000 C 
ATOM      9  C   UNL     1       0.793  -2.413   0.068  0.00  0.00    +0.000 C 
ENDROOT
BRANCH   5  10
ATOM     10  N   UNL     1      -1.973  -1.898  -0.442  0.00  0.00    +0.000 NA
ATOM     11  C   UNL     1      -2.806  -2.269   0.481  0.00  0.00    +0.000 C 
BRANCH  11  12
ATOM     12  C   UNL     1      -3.007  -1.723   1.815  0.00  0.00    +0.000 A 
ATOM     13  C   UNL     1      -2.084  -1.216   2.713  0.00  0.00    +0.000 A 
ATOM     14  C   UNL     1      -2.679  -0.753   3.923  0.00  0.00    +0.000 A 
ATOM     15  C   UNL     1      -4.043  -0.921   3.921  0.00  0.00    +0.000 A 
ATOM     16  S   UNL     1      -4.597  -1.633   2.472  0.00  0.00    +0.000 S 
ENDBRANCH  11  12
BRANCH  11  17
ATOM     17  O   UNL     1      -3.642  -3.329   0.267  0.00  0.00    +0.000 OA
ATOM     18  C   UNL     1      -3.557  -3.960  -1.014  0.00  0.00    +0.000 C 
ENDBRANCH  11  17
ENDBRANCH   5  10
TORSDOF 3
