REMARK  Name = *****
REMARK  2 active torsions:
REMARK  status: ('A' for Active; 'I' for Inactive)
REMARK    1  A    between atoms: C_3  and  N_8
REMARK    2  A    between atoms: C_9  and  C_11
REMARK                            x       y       z     vdW  Elec       q    Type
REMARK                         _______ _______ _______ _____ _____    ______ ____
ROOT
ATOM      1  N   UNL     1       2.083   2.650   0.060  0.00  0.00    +0.000 N 
ATOM      2  C   UNL     1       1.469   3.885  -0.052  0.00  0.00    +0.000 C 
ATOM      3  O   UNL     1       0.267   4.111  -0.103  0.00  0.00    +0.000 OA
ATOM      4  H   UNL     1       3.062   2.655   0.155  0.00  0.00    +0.000 HD
ENDROOT
BRANCH   2   5
ATOM      5  C   UNL     1       2.399   5.048  -0.069  0.00  0.00    +0.000 A 
ATOM      6  C   UNL     1       1.994   6.231   0.563  0.00  0.00    +0.000 A 
ATOM      7  C   UNL     1       2.839   7.335   0.555  0.00  0.00    +0.000 A 
ATOM      8  C   UNL     1       4.073   7.275  -0.082  0.00  0.00    +0.000 A 
ATOM      9  C   UNL     1       4.478   6.111  -0.728  0.00  0.00    +0.000 A 
ATOM     10  C   UNL     1       3.639   4.993  -0.727  0.00  0.00    +0.000 A 
ATOM     11  F   UNL     1       4.883   8.342  -0.086  0.00  0.00    +0.000 F 
ATOM     12  F   UNL     1       2.454   8.461   1.171  0.00  0.00    +0.000 F 
ENDBRANCH   2   5
BRANCH   1  15
ATOM     13  C   UNL     1      -0.453  -0.100  -0.168  0.00  0.00    +0.000 A 
ATOM     14  C   UNL     1       0.092   1.188  -0.169  0.00  0.00    +0.000 A 
ATOM     15  C   UNL     1       1.458   1.384   0.053  0.00  0.00    +0.000 A 
ATOM     16  C   UNL     1       2.274   0.266   0.271  0.00  0.00    +0.000 A 
ATOM     17  C   UNL     1       1.724  -1.017   0.271  0.00  0.00    +0.000 A 
ATOM     18  C   UNL     1       0.364  -1.206   0.053  0.00  0.00    +0.000 A 
ATOM     19 CL   UNL     1       2.743  -2.379   0.543  0.00  0.00    +0.000 Cl
ENDBRANCH   1  15
TORSDOF 2
