REMARK  Name = *****
REMARK  4 active torsions:
REMARK  status: ('A' for Active; 'I' for Inactive)
REMARK    1  A    between atoms: C_1  and  C_2
REMARK    2  A    between atoms: C_2  and  C_11
REMARK    3  A    between atoms: N_3  and  C_4
REMARK    4  A    between atoms: C_4  and  C_5
REMARK                            x       y       z     vdW  Elec       q    Type
REMARK                         _______ _______ _______ _____ _____    ______ ____
ROOT
ATOM      1  C   UNL     1       0.862  -0.097   0.091  0.00  0.00    +0.000 C 
ATOM      2  C   UNL     1       2.378  -0.057   0.035  0.00  0.00    +0.000 C 
ATOM      3  N   UNL     1       3.060   0.774  -0.679  0.00  0.00    +0.000 NA
ENDROOT
BRANCH   2   4
ATOM      4  C   UNL     1       3.144  -1.024   0.822  0.00  0.00    +0.000 A 
ATOM      5  C   UNL     1       4.522  -1.102   0.940  0.00  0.00    +0.000 A 
ATOM      6  C   UNL     1       4.949  -2.167   1.784  0.00  0.00    +0.000 A 
ATOM      7  C   UNL     1       3.885  -2.878   2.287  0.00  0.00    +0.000 A 
ATOM      8  S   UNL     1       2.389  -2.261   1.740  0.00  0.00    +0.000 S 
ENDBRANCH   2   4
BRANCH   3   9
ATOM      9  C   UNL     1       2.387   1.765  -1.512  0.00  0.00    +0.000 C 
BRANCH   9  10
ATOM     10  C   UNL     1       3.372   2.572  -2.327  0.00  0.00    +0.000 A 
ATOM     11  C   UNL     1       4.383   1.935  -3.061  0.00  0.00    +0.000 A 
ATOM     12  C   UNL     1       5.271   2.677  -3.842  0.00  0.00    +0.000 A 
ATOM     13  C   UNL     1       5.153   4.063  -3.905  0.00  0.00    +0.000 A 
ATOM     14  C   UNL     1       4.147   4.709  -3.189  0.00  0.00    +0.000 A 
ATOM     15  C   UNL     1       3.258   3.968  -2.407  0.00  0.00    +0.000 A 
ENDBRANCH   9  10
ENDBRANCH   3   9
TORSDOF 3
