REMARK  Name = *****
REMARK  2 active torsions:
REMARK  status: ('A' for Active; 'I' for Inactive)
REMARK    1  A    between atoms: P_3  and  C_11
REMARK    2  A    between atoms: P_4  and  C_5
REMARK                            x       y       z     vdW  Elec       q    Type
REMARK                         _______ _______ _______ _____ _____    ______ ____
ROOT
ATOM      1  C   UNL     1       0.387   0.871  -0.220  0.00  0.00    +0.000 C 
ATOM      2  C   UNL     1      -0.930   0.194   0.250  0.00  0.00    +0.000 C 
ATOM      3  P   UNL     1      -0.457  -1.550  -0.155  0.00  0.00    +0.000 P 
ATOM      4  P   UNL     1       1.522  -0.550   0.126  0.00  0.00    +0.000 P 
ENDROOT
BRANCH   4   5
ATOM      5  C   UNL     1       1.699  -0.477   1.939  0.00  0.00    +0.000 A 
ATOM      6  C   UNL     1       1.504  -1.617   2.733  0.00  0.00    +0.000 A 
ATOM      7  C   UNL     1       1.664  -1.564   4.121  0.00  0.00    +0.000 A 
ATOM      8  C   UNL     1       2.040  -0.373   4.735  0.00  0.00    +0.000 A 
ATOM      9  C   UNL     1       2.265   0.762   3.961  0.00  0.00    +0.000 A 
ATOM     10  C   UNL     1       2.104   0.707   2.573  0.00  0.00    +0.000 A 
ENDBRANCH   4   5
BRANCH   3  11
ATOM     11  C   UNL     1      -0.647  -1.597  -1.967  0.00  0.00    +0.000 A 
ATOM     12  C   UNL     1       0.377  -2.088  -2.791  0.00  0.00    +0.000 A 
ATOM     13  C   UNL     1       0.218  -2.146  -4.179  0.00  0.00    +0.000 A 
ATOM     14  C   UNL     1      -0.974  -1.729  -4.763  0.00  0.00    +0.000 A 
ATOM     15  C   UNL     1      -2.012  -1.265  -3.959  0.00  0.00    +0.000 A 
ATOM     16  C   UNL     1      -1.852  -1.208  -2.572  0.00  0.00    +0.000 A 
ENDBRANCH   3  11
TORSDOF 2
