REMARK  Name = *****
REMARK  5 active torsions:
REMARK  status: ('A' for Active; 'I' for Inactive)
REMARK    1  A    between atoms: C_1  and  C_2
REMARK    2  A    between atoms: C_2  and  C_3
REMARK    3  A    between atoms: C_2  and  O_9
REMARK    4  A    between atoms: O_9  and  N_10
REMARK    5  A    between atoms: C_11  and  C_12
REMARK                            x       y       z     vdW  Elec       q    Type
REMARK                         _______ _______ _______ _____ _____    ______ ____
ROOT
ATOM      1  O   UNL     1       2.818  -0.686  -1.169  0.00  0.00    +0.000 OA
ENDROOT
BRANCH   1   3
ATOM      2  C   UNL     1       1.090   0.405   0.127  0.00  0.00    +0.000 C 
ATOM      3  C   UNL     1       2.576   0.072   0.026  0.00  0.00    +0.000 C 
BRANCH   3   4
ATOM      4  C   UNL     1       3.032  -0.745   1.222  0.00  0.00    +0.000 A 
ATOM      5  C   UNL     1       2.690  -2.100   1.355  0.00  0.00    +0.000 A 
ATOM      6  C   UNL     1       3.101  -2.833   2.469  0.00  0.00    +0.000 A 
ATOM      7  C   UNL     1       3.858  -2.221   3.466  0.00  0.00    +0.000 A 
ATOM      8  C   UNL     1       4.204  -0.877   3.350  0.00  0.00    +0.000 A 
ATOM      9  C   UNL     1       3.792  -0.142   2.236  0.00  0.00    +0.000 A 
ENDBRANCH   3   4
ENDBRANCH   1   3
BRANCH   1  10
ATOM     10  N   UNL     1       2.925   0.182  -2.265  0.00  0.00    +0.000 NA
ATOM     11  C   UNL     1       3.210  -0.444  -3.369  0.00  0.00    +0.000 C 
BRANCH  11  12
ATOM     12  C   UNL     1       3.336  -1.895  -3.619  0.00  0.00    +0.000 A 
ATOM     13  C   UNL     1       2.484  -2.830  -3.025  0.00  0.00    +0.000 A 
ATOM     14  C   UNL     1       2.619  -4.186  -3.331  0.00  0.00    +0.000 A 
ATOM     15  C   UNL     1       3.593  -4.605  -4.238  0.00  0.00    +0.000 A 
ATOM     16  C   UNL     1       4.430  -3.670  -4.847  0.00  0.00    +0.000 A 
ATOM     17  C   UNL     1       4.298  -2.313  -4.545  0.00  0.00    +0.000 A 
ENDBRANCH  11  12
ENDBRANCH   1  10
TORSDOF 4
