REMARK  Name = *****
REMARK  4 active torsions:
REMARK  status: ('A' for Active; 'I' for Inactive)
REMARK    1  A    between atoms: C_1  and  C_2
REMARK    2  A    between atoms: C_7  and  N_8
REMARK    3  A    between atoms: N_8  and  S_9
REMARK    4  A    between atoms: S_9  and  C_10
REMARK                            x       y       z     vdW  Elec       q    Type
REMARK                         _______ _______ _______ _____ _____    ______ ____
ROOT
ATOM      1  N   UNL     1       0.923  -2.370   0.459  0.00  0.00    +0.000 N 
ATOM      2  H   UNL     1       1.834  -2.447   0.094  0.00  0.00    +0.000 HD
ENDROOT
BRANCH   1   9
ATOM      3  C   UNL     1       2.482  -0.006  -0.215  0.00  0.00    +0.000 C 
ATOM      4  C   UNL     1       0.992   0.038   0.001  0.00  0.00    +0.000 A 
ATOM      5  C   UNL     1       0.335   1.273  -0.153  0.00  0.00    +0.000 A 
ATOM      6  C   UNL     1      -1.044   1.373   0.007  0.00  0.00    +0.000 A 
ATOM      7  C   UNL     1      -1.784   0.239   0.312  0.00  0.00    +0.000 A 
ATOM      8  C   UNL     1      -1.142  -0.992   0.474  0.00  0.00    +0.000 A 
ATOM      9  C   UNL     1       0.254  -1.117   0.361  0.00  0.00    +0.000 A 
ENDBRANCH   1   9
BRANCH   1  10
ATOM     10  S   UNL     1       0.231  -3.715   1.163  0.00  0.00    +0.000 S 
BRANCH  10  11
ATOM     11  C   UNL     1      -0.522  -4.518  -0.250  0.00  0.00    +0.000 A 
ATOM     12  C   UNL     1      -0.044  -4.364  -1.557  0.00  0.00    +0.000 A 
ATOM     13  C   UNL     1      -0.664  -5.022  -2.622  0.00  0.00    +0.000 A 
ATOM     14  C   UNL     1      -1.764  -5.845  -2.390  0.00  0.00    +0.000 A 
ATOM     15  C   UNL     1      -2.244  -6.012  -1.093  0.00  0.00    +0.000 A 
ATOM     16  C   UNL     1      -1.624  -5.353  -0.028  0.00  0.00    +0.000 A 
ENDBRANCH  10  11
ENDBRANCH   1  10
TORSDOF 3
