REMARK  Name = *****
REMARK  4 active torsions:
REMARK  status: ('A' for Active; 'I' for Inactive)
REMARK    1  A    between atoms: C_3  and  C_8
REMARK    2  A    between atoms: C_8  and  C_10
REMARK    3  A    between atoms: C_10  and  C_11
REMARK    4  A    between atoms: C_11  and  C_12
REMARK                            x       y       z     vdW  Elec       q    Type
REMARK                         _______ _______ _______ _____ _____    ______ ____
ROOT
ATOM      1  C   UNL     1       2.487   2.494   0.022  0.00  0.00    +0.000 C 
ATOM      2  O   UNL     1       3.715   2.446   0.059  0.00  0.00    +0.000 OA
ENDROOT
BRANCH   1   5
ATOM      3  C   UNL     1       1.738  -1.215   0.038  0.00  0.00    +0.000 A 
ATOM      4  C   UNL     1       2.417   0.005   0.040  0.00  0.00    +0.000 A 
ATOM      5  C   UNL     1       1.709   1.217   0.019  0.00  0.00    +0.000 A 
ATOM      6  C   UNL     1       0.310   1.192  -0.005  0.00  0.00    +0.000 A 
ATOM      7  C   UNL     1      -0.360  -0.032  -0.007  0.00  0.00    +0.000 A 
ATOM      8  C   UNL     1       0.345  -1.234   0.015  0.00  0.00    +0.000 A 
ATOM      9 CL   UNL     1      -2.082  -0.058  -0.035  0.00  0.00    +0.000 Cl
ENDBRANCH   1   5
BRANCH   1  10
ATOM     10  C   UNL     1       1.730   3.808  -0.023  0.00  0.00    +0.000 C 
BRANCH  10  11
ATOM     11  C   UNL     1       2.679   5.007  -0.030  0.00  0.00    +0.000 C 
BRANCH  11  12
ATOM     12  C   UNL     1       1.918   6.309  -0.086  0.00  0.00    +0.000 A 
ATOM     13  C   UNL     1       1.520   6.950   1.097  0.00  0.00    +0.000 A 
ATOM     14  C   UNL     1       0.796   8.142   1.043  0.00  0.00    +0.000 A 
ATOM     15  C   UNL     1       0.467   8.688  -0.191  0.00  0.00    +0.000 A 
ATOM     16  C   UNL     1       0.848   8.066  -1.374  0.00  0.00    +0.000 A 
ATOM     17  C   UNL     1       1.572   6.875  -1.323  0.00  0.00    +0.000 A 
ATOM     18  F   UNL     1      -0.230   9.831  -0.242  0.00  0.00    +0.000 F 
ENDBRANCH  11  12
ENDBRANCH  10  11
ENDBRANCH   1  10
TORSDOF 4
