REMARK  Name = *****
REMARK  2 active torsions:
REMARK  status: ('A' for Active; 'I' for Inactive)
REMARK    1  A    between atoms: C_4  and  C_7
REMARK    2  A    between atoms: N_8  and  C_9
REMARK                            x       y       z     vdW  Elec       q    Type
REMARK                         _______ _______ _______ _____ _____    ______ ____
ROOT
ATOM      1  C   UNL     1      -2.868   0.243  -0.100  0.00  0.00    +0.000 C 
ATOM      2  N   UNL     1      -3.587  -0.458  -0.919  0.00  0.00    +0.000 NA
ENDROOT
BRANCH   2   3
ATOM      3  C   UNL     1      -4.979  -0.208  -0.894  0.00  0.00    +0.000 A 
ATOM      4  C   UNL     1      -5.559   0.777  -1.715  0.00  0.00    +0.000 A 
ATOM      5  C   UNL     1      -6.941   1.004  -1.708  0.00  0.00    +0.000 A 
ATOM      6  C   UNL     1      -7.771   0.243  -0.887  0.00  0.00    +0.000 A 
ATOM      7  C   UNL     1      -7.220  -0.744  -0.073  0.00  0.00    +0.000 A 
ATOM      8  C   UNL     1      -5.838  -0.970  -0.079  0.00  0.00    +0.000 A 
ATOM      9 CL   UNL     1      -5.223  -2.212   0.959  0.00  0.00    +0.000 Cl
ATOM     10 CL   UNL     1      -4.591   1.761  -2.760  0.00  0.00    +0.000 Cl
ENDBRANCH   2   3
BRANCH   1  14
ATOM     11  C   UNL     1       1.366  -0.172   0.173  0.00  0.00    +0.000 A 
ATOM     12  C   UNL     1       0.651  -0.972  -0.720  0.00  0.00    +0.000 A 
ATOM     13  C   UNL     1      -0.735  -0.843  -0.816  0.00  0.00    +0.000 A 
ATOM     14  C   UNL     1      -1.403   0.088  -0.017  0.00  0.00    +0.000 A 
ATOM     15  C   UNL     1      -0.689   0.890   0.878  0.00  0.00    +0.000 A 
ATOM     16  C   UNL     1       0.698   0.758   0.970  0.00  0.00    +0.000 A 
ENDBRANCH   1  14
TORSDOF 2
