REMARK  Name = *****
REMARK  5 active torsions:
REMARK  status: ('A' for Active; 'I' for Inactive)
REMARK    1  A    between atoms: C_1  and  C_2
REMARK    2  A    between atoms: C_2  and  C_3
REMARK    3  A    between atoms: C_2  and  O_9
REMARK    4  A    between atoms: O_9  and  C_10
REMARK    5  A    between atoms: C_10  and  C_12
REMARK                            x       y       z     vdW  Elec       q    Type
REMARK                         _______ _______ _______ _____ _____    ______ ____
ROOT
ATOM      1  O   UNL     1       2.952  -0.338   1.310  0.00  0.00    +0.000 OA
ENDROOT
BRANCH   1   3
ATOM      2  C   UNL     1       1.171  -0.190  -0.332  0.00  0.00    +0.000 C 
ATOM      3  C   UNL     1       2.661   0.004  -0.057  0.00  0.00    +0.000 C 
BRANCH   3   4
ATOM      4  C   UNL     1       3.073   1.449  -0.270  0.00  0.00    +0.000 A 
ATOM      5  C   UNL     1       2.693   2.457   0.631  0.00  0.00    +0.000 A 
ATOM      6  C   UNL     1       3.071   3.783   0.417  0.00  0.00    +0.000 A 
ATOM      7  C   UNL     1       3.831   4.120  -0.701  0.00  0.00    +0.000 A 
ATOM      8  C   UNL     1       4.213   3.132  -1.605  0.00  0.00    +0.000 A 
ATOM      9  C   UNL     1       3.836   1.805  -1.393  0.00  0.00    +0.000 A 
ENDBRANCH   3   4
ENDBRANCH   1   3
BRANCH   1  10
ATOM     10  C   UNL     1       3.186  -1.651   1.548  0.00  0.00    +0.000 C 
ATOM     11  O   UNL     1       3.166  -2.557   0.736  0.00  0.00    +0.000 OA
BRANCH  10  12
ATOM     12  C   UNL     1       3.482  -1.811   2.986  0.00  0.00    +0.000 A 
ATOM     13  C   UNL     1       4.446  -0.975   3.573  0.00  0.00    +0.000 A 
ATOM     14  C   UNL     1       4.773  -1.119   4.922  0.00  0.00    +0.000 A 
ATOM     15  C   UNL     1       4.142  -2.097   5.688  0.00  0.00    +0.000 A 
ATOM     16  C   UNL     1       3.182  -2.929   5.109  0.00  0.00    +0.000 A 
ATOM     17  C   UNL     1       2.847  -2.790   3.757  0.00  0.00    +0.000 A 
ATOM     18 CL   UNL     1       1.611  -3.822   3.134  0.00  0.00    +0.000 Cl
ENDBRANCH  10  12
ENDBRANCH   1  10
TORSDOF 4
