REMARK  Name = *****
REMARK  4 active torsions:
REMARK  status: ('A' for Active; 'I' for Inactive)
REMARK    1  A    between atoms: C_1  and  C_2
REMARK    2  A    between atoms: C_5  and  N_8
REMARK    3  A    between atoms: N_8  and  C_9
REMARK    4  A    between atoms: C_9  and  C_10
REMARK                            x       y       z     vdW  Elec       q    Type
REMARK                         _______ _______ _______ _____ _____    ______ ____
ROOT
ATOM      1  N   UNL     1      -3.256   0.262   0.013  0.00  0.00    +0.000 N 
ATOM      2  O   UNL     1      -3.750   1.429   0.139  0.00  0.00    +0.000 OA
ENDROOT
BRANCH   1   7
ATOM      3  C   UNL     1       2.468  -0.272  -0.141  0.00  0.00    +0.000 C 
ATOM      4  C   UNL     1       0.976  -0.119  -0.077  0.00  0.00    +0.000 A 
ATOM      5  C   UNL     1       0.317   0.751  -0.957  0.00  0.00    +0.000 A 
ATOM      6  C   UNL     1      -1.072   0.876  -0.920  0.00  0.00    +0.000 A 
ATOM      7  C   UNL     1      -1.810   0.110  -0.013  0.00  0.00    +0.000 A 
ATOM      8  C   UNL     1      -1.166  -0.760   0.874  0.00  0.00    +0.000 A 
ATOM      9  C   UNL     1       0.224  -0.879   0.831  0.00  0.00    +0.000 A 
ENDBRANCH   1   7
BRANCH   1  10
ATOM     10  C   UNL     1      -3.978  -0.830  -0.112  0.00  0.00    +0.000 C 
BRANCH  10  11
ATOM     11  C   UNL     1      -5.449  -0.910  -0.119  0.00  0.00    +0.000 A 
ATOM     12  C   UNL     1      -6.304   0.171  -0.345  0.00  0.00    +0.000 A 
ATOM     13  C   UNL     1      -7.690  -0.016  -0.350  0.00  0.00    +0.000 A 
ATOM     14  C   UNL     1      -8.222  -1.286  -0.136  0.00  0.00    +0.000 A 
ATOM     15  C   UNL     1      -7.379  -2.373   0.078  0.00  0.00    +0.000 A 
ATOM     16  C   UNL     1      -5.994  -2.186   0.082  0.00  0.00    +0.000 A 
ATOM     17 BR   UNL     1     -10.095  -1.535  -0.144  0.00  0.00    +0.000 Br
ENDBRANCH  10  11
ENDBRANCH   1  10
TORSDOF 3
