REMARK  Name = *****
REMARK  5 active torsions:
REMARK  status: ('A' for Active; 'I' for Inactive)
REMARK    1  A    between atoms: C_1  and  O_2
REMARK    2  A    between atoms: O_2  and  C_3
REMARK    3  A    between atoms: C_3  and  C_4
REMARK    4  A    between atoms: C_3  and  C_11
REMARK    5  A    between atoms: C_4  and  C_5
REMARK                            x       y       z     vdW  Elec       q    Type
REMARK                         _______ _______ _______ _____ _____    ______ ____
ROOT
ATOM      1  C   UNL     1       2.747   0.752  -1.150  0.00  0.00    +0.000 C 
ENDROOT
BRANCH   1   2
ATOM      2  C   UNL     1       4.247   0.538  -1.280  0.00  0.00    +0.000 A 
ATOM      3  C   UNL     1       4.747  -0.397  -2.198  0.00  0.00    +0.000 A 
ATOM      4  C   UNL     1       6.122  -0.614  -2.312  0.00  0.00    +0.000 A 
ATOM      5  C   UNL     1       7.010   0.098  -1.509  0.00  0.00    +0.000 A 
ATOM      6  C   UNL     1       6.527   1.027  -0.590  0.00  0.00    +0.000 A 
ATOM      7  C   UNL     1       5.154   1.245  -0.474  0.00  0.00    +0.000 A 
ENDBRANCH   1   2
BRANCH   1   9
ATOM      8  C   UNL     1       2.410   2.803  -2.309  0.00  0.00    +0.000 C 
ATOM      9  O   UNL     1       2.463   2.159  -1.042  0.00  0.00    +0.000 OA
ENDBRANCH   1   9
BRANCH   1  10
ATOM     10  C   UNL     1       2.223   0.044   0.116  0.00  0.00    +0.000 C 
BRANCH  10  11
ATOM     11  C   UNL     1       0.722  -0.149   0.087  0.00  0.00    +0.000 A 
ATOM     12  C   UNL     1       0.168  -1.376  -0.303  0.00  0.00    +0.000 A 
ATOM     13  C   UNL     1      -1.217  -1.546  -0.343  0.00  0.00    +0.000 A 
ATOM     14  C   UNL     1      -2.060  -0.491   0.001  0.00  0.00    +0.000 A 
ATOM     15  C   UNL     1      -1.520   0.735   0.386  0.00  0.00    +0.000 A 
ATOM     16  C   UNL     1      -0.136   0.906   0.427  0.00  0.00    +0.000 A 
ENDBRANCH  10  11
ENDBRANCH   1  10
TORSDOF 4
