REMARK  Name = *****
REMARK  3 active torsions:
REMARK  status: ('A' for Active; 'I' for Inactive)
REMARK    1  A    between atoms: C_4  and  C_6
REMARK    2  A    between atoms: C_6  and  C_7
REMARK    3  A    between atoms: C_7  and  C_8
REMARK                            x       y       z     vdW  Elec       q    Type
REMARK                         _______ _______ _______ _____ _____    ______ ____
ROOT
ATOM      1  C   UNL     1      -1.024   3.476   0.170  0.00  0.00    +0.000 C 
ENDROOT
BRANCH   1   2
ATOM      2  C   UNL     1      -2.090   4.544   0.226  0.00  0.00    +0.000 A 
ATOM      3  C   UNL     1      -2.620   4.956   1.456  0.00  0.00    +0.000 A 
ATOM      4  C   UNL     1      -3.618   5.930   1.505  0.00  0.00    +0.000 A 
ATOM      5  C   UNL     1      -4.099   6.497   0.326  0.00  0.00    +0.000 A 
ATOM      6  C   UNL     1      -3.583   6.090  -0.903  0.00  0.00    +0.000 A 
ATOM      7  C   UNL     1      -2.585   5.116  -0.954  0.00  0.00    +0.000 A 
ENDBRANCH   1   2
BRANCH   1   8
ATOM      8  C   UNL     1      -1.632   2.071   0.078  0.00  0.00    +0.000 C 
BRANCH   8  12
ATOM      9  C   UNL     1       0.101  -1.305   0.153  0.00  0.00    +0.000 C 
ATOM     10  C   UNL     1       1.289  -0.388  -0.120  0.00  0.00    +0.000 C 
ATOM     11  C   UNL     1       0.693   0.975   0.004  0.00  0.00    +0.000 C 
ATOM     12  C   UNL     1      -0.647   0.942   0.008  0.00  0.00    +0.000 C 
ATOM     13  C   UNL     1      -1.149  -0.468  -0.109  0.00  0.00    +0.000 C 
ENDBRANCH   8  12
ENDBRANCH   1   8
TORSDOF 3
