REMARK  Name = *****
REMARK  4 active torsions:
REMARK  status: ('A' for Active; 'I' for Inactive)
REMARK    1  A    between atoms: C_6  and  C_7
REMARK    2  A    between atoms: C_7  and  C_8
REMARK    3  A    between atoms: C_8  and  C_9
REMARK    4  A    between atoms: C_8  and  C_11
REMARK                            x       y       z     vdW  Elec       q    Type
REMARK                         _______ _______ _______ _____ _____    ______ ____
ROOT
ATOM      1  C   UNL     1       4.450   1.394   0.407  0.00  0.00    +0.000 C 
ENDROOT
BRANCH   1   2
ATOM      2  C   UNL     1       5.964   1.342   0.226  0.00  0.00    +0.000 A 
ATOM      3  C   UNL     1       6.561   1.981  -0.875  0.00  0.00    +0.000 A 
ATOM      4  C   UNL     1       7.945   1.936  -1.059  0.00  0.00    +0.000 A 
ATOM      5  C   UNL     1       8.746   1.254  -0.147  0.00  0.00    +0.000 A 
ATOM      6  C   UNL     1       8.174   0.616   0.951  0.00  0.00    +0.000 A 
ATOM      7  C   UNL     1       6.790   0.659   1.138  0.00  0.00    +0.000 A 
ATOM      8 CL   UNL     1      10.449   1.199  -0.377  0.00  0.00    +0.000 Cl
ENDBRANCH   1   2
BRANCH   1   9
ATOM      9  C   UNL     1       4.082   2.039   1.687  0.00  0.00    +0.000 C 
ATOM     10  N   UNL     1       3.788   2.525   2.700  0.00  0.00    +0.000 NA
ENDBRANCH   1   9
BRANCH   1  11
ATOM     11  C   UNL     1       3.842  -0.022   0.306  0.00  0.00    +0.000 C 
BRANCH  11  17
ATOM     12  C   UNL     1       1.455  -0.073   1.150  0.00  0.00    +0.000 A 
ATOM     13  C   UNL     1       0.076  -0.045   0.930  0.00  0.00    +0.000 A 
ATOM     14  C   UNL     1      -0.417   0.046  -0.370  0.00  0.00    +0.000 A 
ATOM     15  C   UNL     1       0.458   0.110  -1.452  0.00  0.00    +0.000 A 
ATOM     16  C   UNL     1       1.837   0.083  -1.233  0.00  0.00    +0.000 A 
ATOM     17  C   UNL     1       2.347  -0.012   0.071  0.00  0.00    +0.000 A 
ATOM     18 CL   UNL     1      -2.115   0.081  -0.641  0.00  0.00    +0.000 Cl
ENDBRANCH  11  17
ENDBRANCH   1  11
TORSDOF 4
