REMARK  Name = *****
REMARK  1 active torsions:
REMARK  status: ('A' for Active; 'I' for Inactive)
REMARK    1  A    between atoms: N_9  and  C_10
REMARK                            x       y       z     vdW  Elec       q    Type
REMARK                         _______ _______ _______ _____ _____    ______ ____
ROOT
ATOM      1  C   UNL     1      -1.024   1.174  -0.372  0.00  0.00    +0.000 C 
ATOM      2  C   UNL     1      -1.656  -0.032   0.322  0.00  0.00    +0.000 C 
ATOM      3  C   UNL     1      -0.932  -1.360   0.105  0.00  0.00    +0.000 C 
ATOM      4  C   UNL     1       0.537  -1.336   0.519  0.00  0.00    +0.000 C 
ATOM      5  N   UNL     1       1.333  -0.670  -0.504  0.00  0.00    +0.000 N 
ATOM      6  C   UNL     1       1.509   0.780  -0.447  0.00  0.00    +0.000 C 
ATOM      7  C   UNL     1       0.349   1.542   0.192  0.00  0.00    +0.000 C 
ATOM      8  C   UNL     1       2.025  -1.402  -1.445  0.00  0.00    +0.000 C 
ATOM      9  N   UNL     1       2.836  -0.931  -2.335  0.00  0.00    +0.000 NA
ENDROOT
BRANCH   9  10
ATOM     10  C   UNL     1       3.421  -1.873  -3.190  0.00  0.00    +0.000 A 
ATOM     11  C   UNL     1       2.755  -2.296  -4.344  0.00  0.00    +0.000 A 
ATOM     12  C   UNL     1       3.348  -3.223  -5.204  0.00  0.00    +0.000 A 
ATOM     13  C   UNL     1       4.617  -3.719  -4.912  0.00  0.00    +0.000 A 
ATOM     14  C   UNL     1       5.299  -3.293  -3.773  0.00  0.00    +0.000 A 
ATOM     15  C   UNL     1       4.700  -2.366  -2.917  0.00  0.00    +0.000 A 
ATOM     16 BR   UNL     1       5.424  -4.974  -6.073  0.00  0.00    +0.000 Br
ENDBRANCH   9  10
TORSDOF 1
