REMARK  Name = *****
REMARK  3 active torsions:
REMARK  status: ('A' for Active; 'I' for Inactive)
REMARK    1  A    between atoms: C_4  and  N_7
REMARK    2  A    between atoms: N_7  and  S_8
REMARK    3  A    between atoms: S_8  and  C_9
REMARK                            x       y       z     vdW  Elec       q    Type
REMARK                         _______ _______ _______ _____ _____    ______ ____
ROOT
ATOM      1  N   UNL     1       2.783  -0.915   0.262  0.00  0.00    +0.000 NA
ATOM      2  H   UNL     1       3.335  -0.191   0.722  0.00  0.00    +0.000 HD
ENDROOT
BRANCH   1   6
ATOM      3  C   UNL     1      -1.217   0.489  -0.507  0.00  0.00    +0.000 C 
ATOM      4  C   UNL     1      -1.023  -0.998  -0.229  0.00  0.00    +0.000 C 
ATOM      5  C   UNL     1       0.437  -1.418  -0.392  0.00  0.00    +0.000 C 
ATOM      6  C   UNL     1       1.371  -0.570   0.488  0.00  0.00    +0.000 C 
ATOM      7  C   UNL     1       1.170   0.926   0.188  0.00  0.00    +0.000 C 
ATOM      8  C   UNL     1      -0.290   1.343   0.351  0.00  0.00    +0.000 C 
ENDBRANCH   1   6
BRANCH   1   9
ATOM      9  S   UNL     1       3.403  -2.373   0.765  0.00  0.00    +0.000 S 
BRANCH   9  10
ATOM     10  C   UNL     1       4.976  -2.384  -0.082  0.00  0.00    +0.000 A 
ATOM     11  C   UNL     1       6.130  -2.743   0.624  0.00  0.00    +0.000 A 
ATOM     12  C   UNL     1       7.372  -2.770  -0.018  0.00  0.00    +0.000 A 
ATOM     13  C   UNL     1       7.459  -2.443  -1.370  0.00  0.00    +0.000 A 
ATOM     14  C   UNL     1       6.317  -2.093  -2.086  0.00  0.00    +0.000 A 
ATOM     15  C   UNL     1       5.076  -2.067  -1.443  0.00  0.00    +0.000 A 
ATOM     16 CL   UNL     1       8.987  -2.475  -2.160  0.00  0.00    +0.000 Cl
ENDBRANCH   9  10
ENDBRANCH   1   9
TORSDOF 3
