REMARK  Name = *****
REMARK  5 active torsions:
REMARK  status: ('A' for Active; 'I' for Inactive)
REMARK    1  A    between atoms: C_1  and  C_2
REMARK    2  A    between atoms: C_3  and  C_17
REMARK    3  A    between atoms: C_6  and  O_7
REMARK    4  A    between atoms: O_7  and  C_8
REMARK    5  A    between atoms: C_8  and  C_9
REMARK                            x       y       z     vdW  Elec       q    Type
REMARK                         _______ _______ _______ _____ _____    ______ ____
ROOT
ATOM      1  C   UNL     1       1.086  -0.211  -0.943  0.00  0.00    +0.000 C 
ATOM      2  C   UNL     1       2.426   0.020  -0.297  0.00  0.00    +0.000 C 
ATOM      3  C   UNL     1       2.863   1.203   0.198  0.00  0.00    +0.000 C 
ATOM      4  C   UNL     1       4.266   1.392   0.763  0.00  0.00    +0.000 C 
ATOM      5  C   UNL     1       5.174   0.209   0.538  0.00  0.00    +0.000 C 
ATOM      6  C   UNL     1       6.471   0.315   0.214  0.00  0.00    +0.000 C 
ATOM      7  C   UNL     1       4.494  -1.123   0.687  0.00  0.00    +0.000 C 
ATOM      8  C   UNL     1       3.300  -1.221  -0.264  0.00  0.00    +0.000 C 
ATOM      9  C   UNL     1       2.040   2.465   0.253  0.00  0.00    +0.000 C 
ENDROOT
BRANCH   6  10
ATOM     10  O   UNL     1       7.099   1.522   0.063  0.00  0.00    +0.000 OA
BRANCH  10  11
ATOM     11  C   UNL     1       8.518   1.430   0.226  0.00  0.00    +0.000 C 
BRANCH  11  12
ATOM     12  C   UNL     1       9.133   2.810   0.198  0.00  0.00    +0.000 A 
ATOM     13  C   UNL     1       8.530   3.882   0.873  0.00  0.00    +0.000 A 
ATOM     14  C   UNL     1       9.123   5.145   0.876  0.00  0.00    +0.000 A 
ATOM     15  C   UNL     1      10.331   5.350   0.214  0.00  0.00    +0.000 A 
ATOM     16  C   UNL     1      10.949   4.291  -0.449  0.00  0.00    +0.000 A 
ATOM     17  C   UNL     1      10.356   3.026  -0.454  0.00  0.00    +0.000 A 
ENDBRANCH  11  12
ENDBRANCH  10  11
ENDBRANCH   6  10
TORSDOF 3
