REMARK  Name = *****
REMARK  4 active torsions:
REMARK  status: ('A' for Active; 'I' for Inactive)
REMARK    1  A    between atoms: C_1  and  C_2
REMARK    2  A    between atoms: C_7  and  O_8
REMARK    3  A    between atoms: O_8  and  C_9
REMARK    4  A    between atoms: C_10  and  C_11
REMARK                            x       y       z     vdW  Elec       q    Type
REMARK                         _______ _______ _______ _____ _____    ______ ____
ROOT
ATOM      1  O   UNL     1       1.281  -2.029   0.971  0.00  0.00    +0.000 OA
ENDROOT
BRANCH   1   8
ATOM      2  C   UNL     1       1.323   0.553   2.221  0.00  0.00    +0.000 C 
ATOM      3  C   UNL     1       0.532   0.257   0.981  0.00  0.00    +0.000 A 
ATOM      4  C   UNL     1      -0.223   1.264   0.364  0.00  0.00    +0.000 A 
ATOM      5  C   UNL     1      -0.956   0.994  -0.795  0.00  0.00    +0.000 A 
ATOM      6  C   UNL     1      -0.942  -0.284  -1.353  0.00  0.00    +0.000 A 
ATOM      7  C   UNL     1      -0.187  -1.292  -0.758  0.00  0.00    +0.000 A 
ATOM      8  C   UNL     1       0.558  -1.014   0.390  0.00  0.00    +0.000 A 
ENDBRANCH   1   8
BRANCH   1   9
ATOM      9  C   UNL     1       2.533  -2.248   0.439  0.00  0.00    +0.000 C 
ATOM     10  C   UNL     1       3.333  -3.215   0.903  0.00  0.00    +0.000 C 
BRANCH  10  11
ATOM     11  C   UNL     1       4.678  -3.497   0.386  0.00  0.00    +0.000 A 
ATOM     12  C   UNL     1       5.540  -2.484  -0.055  0.00  0.00    +0.000 A 
ATOM     13  C   UNL     1       6.825  -2.792  -0.509  0.00  0.00    +0.000 A 
ATOM     14  C   UNL     1       7.266  -4.113  -0.517  0.00  0.00    +0.000 A 
ATOM     15  C   UNL     1       6.424  -5.128  -0.067  0.00  0.00    +0.000 A 
ATOM     16  C   UNL     1       5.139  -4.820   0.388  0.00  0.00    +0.000 A 
ENDBRANCH  10  11
ENDBRANCH   1   9
TORSDOF 3
