REMARK  Name = *****
REMARK  5 active torsions:
REMARK  status: ('A' for Active; 'I' for Inactive)
REMARK    1  A    between atoms: C_1  and  C_2
REMARK    2  A    between atoms: C_5  and  N_8
REMARK    3  A    between atoms: C_9  and  C_10
REMARK    4  A    between atoms: C_11  and  C_17
REMARK    5  A    between atoms: C_13  and  C_16
REMARK                            x       y       z     vdW  Elec       q    Type
REMARK                         _______ _______ _______ _____ _____    ______ ____
ROOT
ATOM      1  N   UNL     1      -3.221  -0.185   0.223  0.00  0.00    +0.000 NA
ATOM      2  C   UNL     1      -3.939   0.843  -0.111  0.00  0.00    +0.000 C 
ENDROOT
BRANCH   2   3
ATOM      3  C   UNL     1      -5.420   0.821  -0.052  0.00  0.00    +0.000 A 
ATOM      4  C   UNL     1      -6.181   1.953  -0.397  0.00  0.00    +0.000 A 
ATOM      5  C   UNL     1      -7.584   1.869  -0.325  0.00  0.00    +0.000 A 
ATOM      6  C   UNL     1      -8.224   0.694   0.092  0.00  0.00    +0.000 A 
ATOM      7  C   UNL     1      -7.452  -0.423   0.417  0.00  0.00    +0.000 A 
ATOM      8  C   UNL     1      -6.060  -0.359   0.351  0.00  0.00    +0.000 A 
ATOM      9  C   UNL     1      -9.723   0.618   0.128  0.00  0.00    +0.000 C 
ATOM     10  C   UNL     1      -5.554   3.244  -0.842  0.00  0.00    +0.000 C 
ENDBRANCH   2   3
BRANCH   1  15
ATOM     11  C   UNL     1       2.447   0.411  -0.193  0.00  0.00    +0.000 C 
ATOM     12  C   UNL     1       0.955   0.285  -0.096  0.00  0.00    +0.000 A 
ATOM     13  C   UNL     1       0.284   0.684   1.066  0.00  0.00    +0.000 A 
ATOM     14  C   UNL     1      -1.101   0.532   1.170  0.00  0.00    +0.000 A 
ATOM     15  C   UNL     1      -1.833  -0.020   0.117  0.00  0.00    +0.000 A 
ATOM     16  C   UNL     1      -1.162  -0.447  -1.030  0.00  0.00    +0.000 A 
ATOM     17  C   UNL     1       0.223  -0.298  -1.138  0.00  0.00    +0.000 A 
ENDBRANCH   1  15
TORSDOF 2
