REMARK  Name = *****
REMARK  2 active torsions:
REMARK  status: ('A' for Active; 'I' for Inactive)
REMARK    1  A    between atoms: C_4  and  P_7
REMARK    2  A    between atoms: P_7  and  C_8
REMARK                            x       y       z     vdW  Elec       q    Type
REMARK                         _______ _______ _______ _____ _____    ______ ____
ROOT
ATOM      1  P   UNL     1       3.086  -0.685  -0.658  0.00  0.00    +0.000 P 
ATOM      2  S   UNL     1       3.625  -2.557   0.042  0.00  0.00    +0.000 S 
ENDROOT
BRANCH   1   6
ATOM      3  C   UNL     1      -1.447   0.452  -0.085  0.00  0.00    +0.000 C 
ATOM      4  C   UNL     1      -1.049  -1.009   0.082  0.00  0.00    +0.000 C 
ATOM      5  C   UNL     1       0.339  -1.283  -0.494  0.00  0.00    +0.000 C 
ATOM      6  C   UNL     1       1.414  -0.363   0.124  0.00  0.00    +0.000 C 
ATOM      7  C   UNL     1       0.992   1.109  -0.056  0.00  0.00    +0.000 C 
ATOM      8  C   UNL     1      -0.399   1.381   0.514  0.00  0.00    +0.000 C 
ENDBRANCH   1   6
BRANCH   1   9
ATOM      9  C   UNL     1       4.219   0.516   0.213  0.00  0.00    +0.000 C 
ATOM     10  C   UNL     1       5.659   0.411  -0.325  0.00  0.00    +0.000 C 
ATOM     11  C   UNL     1       6.569   1.471   0.295  0.00  0.00    +0.000 C 
ATOM     12  C   UNL     1       6.543   1.413   1.818  0.00  0.00    +0.000 C 
ATOM     13  C   UNL     1       5.121   1.519   2.357  0.00  0.00    +0.000 C 
ATOM     14  C   UNL     1       4.204   0.458   1.748  0.00  0.00    +0.000 C 
ENDBRANCH   1   9
TORSDOF 2
