REMARK  Name = *****
REMARK  4 active torsions:
REMARK  status: ('A' for Active; 'I' for Inactive)
REMARK    1  A    between atoms: C_1  and  C_2
REMARK    2  A    between atoms: C_4  and  S_8
REMARK    3  A    between atoms: S_8  and  C_9
REMARK    4  A    between atoms: C_10  and  C_11
REMARK                            x       y       z     vdW  Elec       q    Type
REMARK                         _______ _______ _______ _____ _____    ______ ____
ROOT
ATOM      1  S   UNL     1      -1.633   2.624  -1.436  0.00  0.00    +0.000 S 
ENDROOT
BRANCH   1   5
ATOM      2  C   UNL     1       2.084  -1.115  -1.140  0.00  0.00    +0.000 C 
ATOM      3  C   UNL     1       0.904  -0.432  -0.513  0.00  0.00    +0.000 A 
ATOM      4  C   UNL     1       0.276   0.637  -1.167  0.00  0.00    +0.000 A 
ATOM      5  C   UNL     1      -0.844   1.260  -0.602  0.00  0.00    +0.000 A 
ATOM      6  C   UNL     1      -1.352   0.793   0.613  0.00  0.00    +0.000 A 
ATOM      7  C   UNL     1      -0.743  -0.281   1.262  0.00  0.00    +0.000 A 
ATOM      8  C   UNL     1       0.378  -0.893   0.699  0.00  0.00    +0.000 A 
ENDBRANCH   1   5
BRANCH   1   9
ATOM      9  C   UNL     1      -0.581   3.904  -0.919  0.00  0.00    +0.000 C 
ATOM     10  C   UNL     1      -0.696   5.140  -1.428  0.00  0.00    +0.000 C 
BRANCH  10  11
ATOM     11  C   UNL     1       0.155   6.271  -1.034  0.00  0.00    +0.000 A 
ATOM     12  C   UNL     1       1.524   6.125  -0.770  0.00  0.00    +0.000 A 
ATOM     13  C   UNL     1       2.304   7.233  -0.429  0.00  0.00    +0.000 A 
ATOM     14  C   UNL     1       1.728   8.499  -0.358  0.00  0.00    +0.000 A 
ATOM     15  C   UNL     1       0.372   8.660  -0.635  0.00  0.00    +0.000 A 
ATOM     16  C   UNL     1      -0.409   7.553  -0.976  0.00  0.00    +0.000 A 
ENDBRANCH  10  11
ENDBRANCH   1   9
TORSDOF 3
