REMARK  Name = *****
REMARK  6 active torsions:
REMARK  status: ('A' for Active; 'I' for Inactive)
REMARK    1  A    between atoms: C_1  and  C_2
REMARK    2  A    between atoms: C_5  and  C_16
REMARK    3  A    between atoms: N_6  and  C_7
REMARK    4  A    between atoms: C_7  and  C_8
REMARK    5  A    between atoms: C_8  and  C_9
REMARK    6  A    between atoms: C_9  and  C_10
REMARK                            x       y       z     vdW  Elec       q    Type
REMARK                         _______ _______ _______ _____ _____    ______ ____
ROOT
ATOM      1  C   UNL     1       2.773  -2.437  -0.092  0.00  0.00    +0.000 C 
ENDROOT
BRANCH   1   7
ATOM      2  C   UNL     1       3.278  -0.695   2.361  0.00  0.00    +0.000 C 
ATOM      3  C   UNL     1       3.494  -0.260   0.955  0.00  0.00    +0.000 A 
ATOM      4  C   UNL     1       3.947   0.958   0.486  0.00  0.00    +0.000 A 
ATOM      5  C   UNL     1       3.989   0.890  -0.922  0.00  0.00    +0.000 A 
ATOM      6  C   UNL     1       3.560  -0.367  -1.298  0.00  0.00    +0.000 A 
ATOM      7  N   UNL     1       3.256  -1.063  -0.144  0.00  0.00    +0.000 N 
ATOM      8  C   UNL     1       3.425  -0.935  -2.667  0.00  0.00    +0.000 C 
ENDBRANCH   1   7
BRANCH   1   9
ATOM      9  C   UNL     1       1.249  -2.519  -0.137  0.00  0.00    +0.000 C 
BRANCH   9  10
ATOM     10  C   UNL     1       0.782  -3.974  -0.093  0.00  0.00    +0.000 C 
BRANCH  10  11
ATOM     11  C   UNL     1      -0.721  -4.079  -0.140  0.00  0.00    +0.000 A 
ATOM     12  C   UNL     1      -1.391  -4.133  -1.370  0.00  0.00    +0.000 A 
ATOM     13  C   UNL     1      -2.784  -4.212  -1.413  0.00  0.00    +0.000 A 
ATOM     14  C   UNL     1      -3.519  -4.232  -0.230  0.00  0.00    +0.000 A 
ATOM     15  C   UNL     1      -2.863  -4.172   0.998  0.00  0.00    +0.000 A 
ATOM     16  C   UNL     1      -1.470  -4.093   1.044  0.00  0.00    +0.000 A 
ENDBRANCH  10  11
ENDBRANCH   9  10
ENDBRANCH   1   9
TORSDOF 4
