REMARK  Name = *****
REMARK  7 active torsions:
REMARK  status: ('A' for Active; 'I' for Inactive)
REMARK    1  A    between atoms: C_1  and  C_2
REMARK    2  A    between atoms: C_5  and  S_8
REMARK    3  A    between atoms: S_8  and  C_9
REMARK    4  A    between atoms: C_9  and  C_10
REMARK    5  A    between atoms: C_10  and  C_18
REMARK    6  A    between atoms: C_14  and  O_16
REMARK    7  A    between atoms: O_16  and  C_17
REMARK                            x       y       z     vdW  Elec       q    Type
REMARK                         _______ _______ _______ _____ _____    ______ ____
ROOT
ATOM      1  C   UNL     1      -3.956   2.010   0.108  0.00  0.00    +0.000 C 
ENDROOT
BRANCH   1   2
ATOM      2  C   UNL     1      -5.477   1.886  -0.199  0.00  0.00    +0.000 C 
ATOM      3  C   UNL     1      -5.994   3.148  -0.941  0.00  0.00    +0.000 C 
ATOM      4  C   UNL     1      -7.291   2.944  -1.672  0.00  0.00    +0.000 C 
ATOM      5  C   UNL     1      -7.786   1.734  -1.970  0.00  0.00    +0.000 C 
ATOM      6  C   UNL     1      -7.091   0.443  -1.656  0.00  0.00    +0.000 C 
ATOM      7  C   UNL     1      -5.660   0.646  -1.127  0.00  0.00    +0.000 C 
ATOM      8  C   UNL     1      -6.260   1.682   1.119  0.00  0.00    +0.000 C 
BRANCH   6   9
ATOM      9  O   UNL     1      -7.905  -0.241  -0.702  0.00  0.00    +0.000 OA
ATOM     10  C   UNL     1      -7.830  -1.655  -0.814  0.00  0.00    +0.000 C 
ENDBRANCH   6   9
ENDBRANCH   1   2
BRANCH   1  11
ATOM     11  S   UNL     1      -3.465   3.465   1.107  0.00  0.00    +0.000 S 
BRANCH  11  16
ATOM     12  C   UNL     1       2.493   2.358   1.750  0.00  0.00    +0.000 C 
ATOM     13  C   UNL     1       1.022   2.599   1.580  0.00  0.00    +0.000 A 
ATOM     14  C   UNL     1       0.498   2.935   0.326  0.00  0.00    +0.000 A 
ATOM     15  C   UNL     1      -0.867   3.195   0.175  0.00  0.00    +0.000 A 
ATOM     16  C   UNL     1      -1.724   3.127   1.276  0.00  0.00    +0.000 A 
ATOM     17  C   UNL     1      -1.200   2.819   2.534  0.00  0.00    +0.000 A 
ATOM     18  C   UNL     1       0.165   2.558   2.685  0.00  0.00    +0.000 A 
ENDBRANCH  11  16
ENDBRANCH   1  11
TORSDOF 4
