REMARK  Name = *****
REMARK  6 active torsions:
REMARK  status: ('A' for Active; 'I' for Inactive)
REMARK    1  A    between atoms: C_1  and  C_2
REMARK    2  A    between atoms: C_5  and  C_8
REMARK    3  A    between atoms: C_8  and  O_10
REMARK    4  A    between atoms: O_10  and  C_11
REMARK    5  A    between atoms: C_11  and  C_12
REMARK    6  A    between atoms: C_13  and  C_17
REMARK                            x       y       z     vdW  Elec       q    Type
REMARK                         _______ _______ _______ _____ _____    ______ ____
ROOT
ATOM      1  C   UNL     1      -3.079   0.365  -0.452  0.00  0.00    +0.000 C 
ATOM      2  O   UNL     1      -3.152   0.882  -1.559  0.00  0.00    +0.000 OA
ENDROOT
BRANCH   1   7
ATOM      3  C   UNL     1       2.045  -1.774   1.389  0.00  0.00    +0.000 C 
ATOM      4  C   UNL     1       0.744  -1.236   0.866  0.00  0.00    +0.000 C 
ATOM      5  C   UNL     1       0.693  -0.352  -0.146  0.00  0.00    +0.000 C 
ATOM      6  C   UNL     1      -0.586   0.235  -0.673  0.00  0.00    +0.000 C 
ATOM      7  C   UNL     1      -1.785   0.018   0.263  0.00  0.00    +0.000 C 
ATOM      8  C   UNL     1      -1.791  -1.424   0.782  0.00  0.00    +0.000 C 
ATOM      9  C   UNL     1      -0.503  -1.746   1.544  0.00  0.00    +0.000 C 
ENDBRANCH   1   7
BRANCH   1  10
ATOM     10  O   UNL     1      -4.150   0.085   0.340  0.00  0.00    +0.000 OA
BRANCH  10  11
ATOM     11  C   UNL     1      -5.414   0.397  -0.253  0.00  0.00    +0.000 C 
BRANCH  11  12
ATOM     12  C   UNL     1      -6.484  -0.027   0.701  0.00  0.00    +0.000 C 
ATOM     13  C   UNL     1      -7.471  -0.923   0.531  0.00  0.00    +0.000 C 
ATOM     14  C   UNL     1      -8.308  -1.058   1.768  0.00  0.00    +0.000 C 
ATOM     15  C   UNL     1      -7.897   0.155   2.596  0.00  0.00    +0.000 C 
ATOM     16  C   UNL     1      -6.523   0.569   2.078  0.00  0.00    +0.000 C 
ATOM     17  C   UNL     1      -7.785  -1.767  -0.656  0.00  0.00    +0.000 C 
ENDBRANCH  11  12
ENDBRANCH  10  11
ENDBRANCH   1  10
TORSDOF 4
