REMARK  Name = *****
REMARK  1 active torsions:
REMARK  status: ('A' for Active; 'I' for Inactive)
REMARK    1  A    between atoms: C_4  and  C_7
REMARK                            x       y       z     vdW  Elec       q    Type
REMARK                         _______ _______ _______ _____ _____    ______ ____
ROOT
ATOM      1  C   UNL     1      -3.065   0.137  -0.538  0.00  0.00    +0.000 A 
ATOM      2  N   UNL     1      -3.857   0.930  -1.239  0.00  0.00    +0.000 NA
ATOM      3  C   UNL     1      -5.119   0.491  -0.932  0.00  0.00    +0.000 A 
ATOM      4  C   UNL     1      -5.043  -0.568  -0.043  0.00  0.00    +0.000 A 
ATOM      5  O   UNL     1      -3.726  -0.802   0.216  0.00  0.00    +0.000 OA
ATOM      6  C   UNL     1      -6.138  -1.249   0.475  0.00  0.00    +0.000 A 
ATOM      7  C   UNL     1      -7.390  -0.799   0.038  0.00  0.00    +0.000 A 
ATOM      8  C   UNL     1      -7.503   0.270  -0.862  0.00  0.00    +0.000 A 
ATOM      9  C   UNL     1      -6.376   0.933  -1.363  0.00  0.00    +0.000 A 
ATOM     10 CL   UNL     1      -9.070   0.781  -1.366  0.00  0.00    +0.000 Cl
ENDROOT
BRANCH   1  14
ATOM     11  C   UNL     1       1.206   0.160  -0.365  0.00  0.00    +0.000 A 
ATOM     12  C   UNL     1       0.527   1.083  -1.157  0.00  0.00    +0.000 A 
ATOM     13  C   UNL     1      -0.870   1.067  -1.206  0.00  0.00    +0.000 A 
ATOM     14  C   UNL     1      -1.605   0.129  -0.465  0.00  0.00    +0.000 A 
ATOM     15  C   UNL     1      -0.905  -0.794   0.328  0.00  0.00    +0.000 A 
ATOM     16  C   UNL     1       0.492  -0.778   0.377  0.00  0.00    +0.000 A 
ENDBRANCH   1  14
TORSDOF 1
