REMARK  Name = *****
REMARK  3 active torsions:
REMARK  status: ('A' for Active; 'I' for Inactive)
REMARK    1  A    between atoms: C_4  and  C_7
REMARK    2  A    between atoms: C_7  and  O_8
REMARK    3  A    between atoms: O_8  and  C_9
REMARK                            x       y       z     vdW  Elec       q    Type
REMARK                         _______ _______ _______ _____ _____    ______ ____
ROOT
ATOM      1  O   UNL     1      -3.572  -0.707   0.234  0.00  0.00    +0.000 OA
ENDROOT
BRANCH   1   2
ATOM      2  C   UNL     1      -4.916  -0.614  -0.029  0.00  0.00    +0.000 A 
ATOM      3  C   UNL     1      -5.492  -1.294  -1.112  0.00  0.00    +0.000 A 
ATOM      4  C   UNL     1      -6.876  -1.201  -1.311  0.00  0.00    +0.000 A 
ATOM      5  C   UNL     1      -7.666  -0.454  -0.429  0.00  0.00    +0.000 A 
ATOM      6  C   UNL     1      -7.084   0.197   0.660  0.00  0.00    +0.000 A 
ATOM      7  C   UNL     1      -5.709   0.110   0.865  0.00  0.00    +0.000 A 
ATOM      8 CL   UNL     1      -7.680  -1.985  -2.627  0.00  0.00    +0.000 Cl
ATOM      9 CL   UNL     1      -4.487  -2.222  -2.175  0.00  0.00    +0.000 Cl
ENDBRANCH   1   2
BRANCH   1  10
ATOM     10  C   UNL     1      -2.874   0.413  -0.325  0.00  0.00    +0.000 C 
BRANCH  10  14
ATOM     11  C   UNL     1       1.366  -0.231   0.150  0.00  0.00    +0.000 A 
ATOM     12  C   UNL     1       0.618  -1.070  -0.673  0.00  0.00    +0.000 A 
ATOM     13  C   UNL     1      -0.753  -0.862  -0.823  0.00  0.00    +0.000 A 
ATOM     14  C   UNL     1      -1.392   0.191  -0.150  0.00  0.00    +0.000 A 
ATOM     15  C   UNL     1      -0.631   1.027   0.678  0.00  0.00    +0.000 A 
ATOM     16  C   UNL     1       0.742   0.816   0.826  0.00  0.00    +0.000 A 
ENDBRANCH  10  14
ENDBRANCH   1  10
TORSDOF 3
