REMARK  Name = *****
REMARK  1 active torsions:
REMARK  status: ('A' for Active; 'I' for Inactive)
REMARK    1  A    between atoms: C_8  and  C_10
REMARK                            x       y       z     vdW  Elec       q    Type
REMARK                         _______ _______ _______ _____ _____    ______ ____
ROOT
ATOM      1  C   UNL     1      -3.683  -0.005  -0.102  0.00  0.00    +0.000 A 
ATOM      2  C   UNL     1      -4.448   1.106  -0.497  0.00  0.00    +0.000 A 
ATOM      3  C   UNL     1      -5.838   1.032  -0.522  0.00  0.00    +0.000 A 
ATOM      4  C   UNL     1      -6.493  -0.136  -0.158  0.00  0.00    +0.000 A 
ATOM      5  C   UNL     1      -5.756  -1.247   0.237  0.00  0.00    +0.000 A 
ATOM      6  C   UNL     1      -4.359  -1.179   0.264  0.00  0.00    +0.000 A 
ATOM      7  F   UNL     1      -3.669  -2.263   0.652  0.00  0.00    +0.000 F 
ATOM      8 CL   UNL     1      -6.562  -2.701   0.693  0.00  0.00    +0.000 Cl
ATOM      9  F   UNL     1      -7.833  -0.178  -0.191  0.00  0.00    +0.000 F 
ATOM     10  F   UNL     1      -6.542   2.106  -0.903  0.00  0.00    +0.000 F 
ENDROOT
BRANCH   1  18
ATOM     11  C   UNL     1       2.196   0.667  -0.124  0.00  0.00    +0.000 A 
ATOM     12  C   UNL     1       2.149  -0.681   0.257  0.00  0.00    +0.000 A 
ATOM     13  C   UNL     1       0.930  -1.353   0.413  0.00  0.00    +0.000 A 
ATOM     14  C   UNL     1      -0.209  -0.595   0.166  0.00  0.00    +0.000 A 
ATOM     15  C   UNL     1      -0.206   0.737  -0.212  0.00  0.00    +0.000 A 
ATOM     16  C   UNL     1       1.021   1.396  -0.364  0.00  0.00    +0.000 A 
ATOM     17  N   UNL     1      -1.496   1.176  -0.374  0.00  0.00    +0.000 NA
ATOM     18  C   UNL     1      -2.229   0.113  -0.090  0.00  0.00    +0.000 A 
ATOM     19  O   UNL     1      -1.507  -1.002   0.245  0.00  0.00    +0.000 OA
ENDBRANCH   1  18
TORSDOF 1
