REMARK  Name = *****
REMARK  2 active torsions:
REMARK  status: ('A' for Active; 'I' for Inactive)
REMARK    1  A    between atoms: C_4  and  C_9
REMARK    2  A    between atoms: C_10  and  C_11
REMARK                            x       y       z     vdW  Elec       q    Type
REMARK                         _______ _______ _______ _____ _____    ______ ____
ROOT
ATOM      1  C   UNL     1       1.593   0.005  -0.557  0.00  0.00    +0.000 C 
ATOM      2  C   UNL     1       1.046  -1.277   0.073  0.00  0.00    +0.000 C 
ATOM      3  C   UNL     1      -0.390  -1.155   0.513  0.00  0.00    +0.000 C 
ATOM      4  C   UNL     1      -0.671  -0.023   1.394  0.00  0.00    +0.000 C 
ATOM      5  C   UNL     1      -1.352  -0.021   0.074  0.00  0.00    +0.000 C 
ATOM      6  C   UNL     1      -0.408   1.123   0.525  0.00  0.00    +0.000 C 
ATOM      7  C   UNL     1       1.026   1.272   0.086  0.00  0.00    +0.000 C 
ATOM      8 BR   UNL     1      -1.538  -0.013  -1.766  0.00  0.00    +0.000 Br
ENDROOT
BRANCH   4   9
ATOM      9  C   UNL     1      -1.509  -0.036   2.537  0.00  0.00    +0.000 C 
ATOM     10  C   UNL     1      -2.214  -0.046   3.509  0.00  0.00    +0.000 C 
BRANCH  10  11
ATOM     11  C   UNL     1      -3.052  -0.059   4.669  0.00  0.00    +0.000 A 
ATOM     12  C   UNL     1      -3.451  -1.274   5.230  0.00  0.00    +0.000 A 
ATOM     13  C   UNL     1      -4.268  -1.286   6.363  0.00  0.00    +0.000 A 
ATOM     14  C   UNL     1      -4.686  -0.084   6.934  0.00  0.00    +0.000 A 
ATOM     15  C   UNL     1      -4.288   1.131   6.375  0.00  0.00    +0.000 A 
ATOM     16  C   UNL     1      -3.471   1.144   5.242  0.00  0.00    +0.000 A 
ENDBRANCH  10  11
ENDBRANCH   4   9
TORSDOF 2
