REMARK  Name = *****
REMARK  3 active torsions:
REMARK  status: ('A' for Active; 'I' for Inactive)
REMARK    1  A    between atoms: C_4  and  O_7
REMARK    2  A    between atoms: O_7  and  C_8
REMARK    3  A    between atoms: C_8  and  C_9
REMARK                            x       y       z     vdW  Elec       q    Type
REMARK                         _______ _______ _______ _____ _____    ______ ____
ROOT
ATOM      1  C   UNL     1      -3.635  -0.657  -0.313  0.00  0.00    +0.000 C 
ENDROOT
BRANCH   1   2
ATOM      2  C   UNL     1      -5.037  -0.109  -0.428  0.00  0.00    +0.000 A 
ATOM      3  C   UNL     1      -5.353   0.817  -1.435  0.00  0.00    +0.000 A 
ATOM      4  C   UNL     1      -6.651   1.314  -1.551  0.00  0.00    +0.000 A 
ATOM      5  C   UNL     1      -7.648   0.897  -0.672  0.00  0.00    +0.000 A 
ATOM      6  C   UNL     1      -7.345  -0.022   0.332  0.00  0.00    +0.000 A 
ATOM      7  C   UNL     1      -6.047  -0.523   0.453  0.00  0.00    +0.000 A 
ATOM      8 CL   UNL     1      -7.025   2.448  -2.791  0.00  0.00    +0.000 Cl
ENDBRANCH   1   2
BRANCH   1   9
ATOM      9  O   UNL     1      -2.739   0.430  -0.094  0.00  0.00    +0.000 OA
BRANCH   9  13
ATOM     10  C   UNL     1       1.363  -0.197   0.252  0.00  0.00    +0.000 A 
ATOM     11  C   UNL     1       0.543  -1.303   0.036  0.00  0.00    +0.000 A 
ATOM     12  C   UNL     1      -0.841  -1.141  -0.086  0.00  0.00    +0.000 A 
ATOM     13  C   UNL     1      -1.409   0.131   0.007  0.00  0.00    +0.000 A 
ATOM     14  C   UNL     1      -0.579   1.234   0.222  0.00  0.00    +0.000 A 
ATOM     15  C   UNL     1       0.802   1.074   0.345  0.00  0.00    +0.000 A 
ENDBRANCH   9  13
ENDBRANCH   1   9
TORSDOF 3
