REMARK  Name = *****
REMARK  1 active torsions:
REMARK  status: ('A' for Active; 'I' for Inactive)
REMARK    1  A    between atoms: C_3  and  C_13
REMARK                            x       y       z     vdW  Elec       q    Type
REMARK                         _______ _______ _______ _____ _____    ______ ____
ROOT
ATOM      1  C   UNL     1       0.949   0.103   0.615  0.00  0.00    +0.000 C 
ATOM      2  C   UNL     1       2.275   0.004   0.398  0.00  0.00    +0.000 C 
ATOM      3  C   UNL     1       3.049  -1.295   0.229  0.00  0.00    +0.000 C 
ATOM      4  S   UNL     1       4.189  -1.449   1.636  0.00  0.00    +0.000 S 
ATOM      5  C   UNL     1       5.105   0.023   1.399  0.00  0.00    +0.000 C 
ATOM      6  O   UNL     1       6.278   0.064   1.748  0.00  0.00    +0.000 OA
ATOM      7  C   UNL     1       4.453   1.218   0.793  0.00  0.00    +0.000 A 
ATOM      8  C   UNL     1       5.237   2.384   0.690  0.00  0.00    +0.000 A 
ATOM      9  C   UNL     1       4.716   3.549   0.132  0.00  0.00    +0.000 A 
ATOM     10  C   UNL     1       3.409   3.560  -0.337  0.00  0.00    +0.000 A 
ATOM     11  C   UNL     1       2.622   2.410  -0.241  0.00  0.00    +0.000 A 
ATOM     12  C   UNL     1       3.121   1.225   0.337  0.00  0.00    +0.000 A 
ENDROOT
BRANCH   3  13
ATOM     13  C   UNL     1       2.209  -2.551   0.009  0.00  0.00    +0.000 A 
ATOM     14  C   UNL     1       2.002  -3.016  -1.303  0.00  0.00    +0.000 A 
ATOM     15  C   UNL     1       1.222  -4.148  -1.549  0.00  0.00    +0.000 A 
ATOM     16  C   UNL     1       0.628  -4.830  -0.491  0.00  0.00    +0.000 A 
ATOM     17  C   UNL     1       0.810  -4.381   0.814  0.00  0.00    +0.000 A 
ATOM     18  C   UNL     1       1.590  -3.249   1.063  0.00  0.00    +0.000 A 
ENDBRANCH   3  13
TORSDOF 1
