REMARK  Name = *****
REMARK  3 active torsions:
REMARK  status: ('A' for Active; 'I' for Inactive)
REMARK    1  A    between atoms: C_4  and  C_8
REMARK    2  A    between atoms: C_8  and  C_9
REMARK    3  A    between atoms: C_9  and  C_10
REMARK                            x       y       z     vdW  Elec       q    Type
REMARK                         _______ _______ _______ _____ _____    ______ ____
ROOT
ATOM      1  C   UNL     1      -0.836  -1.177   0.277  0.00  0.00    +0.000 A 
ATOM      2  C   UNL     1       0.469  -1.152   0.763  0.00  0.00    +0.000 A 
ATOM      3  C   UNL     1       1.218   0.019   0.666  0.00  0.00    +0.000 A 
ATOM      4  C   UNL     1       0.692   1.186   0.096  0.00  0.00    +0.000 A 
ATOM      5  C   UNL     1      -0.622   1.141  -0.402  0.00  0.00    +0.000 A 
ATOM      6  C   UNL     1      -1.369  -0.031  -0.302  0.00  0.00    +0.000 A 
ATOM      7  F   UNL     1      -2.620  -0.055  -0.778  0.00  0.00    +0.000 F 
ATOM      8  F   UNL     1       2.479   0.011   1.121  0.00  0.00    +0.000 F 
ENDROOT
BRANCH   4   9
ATOM      9  C   UNL     1       1.559   2.422  -0.008  0.00  0.00    +0.000 C 
ATOM     10 CL   UNL     1       0.686   3.836   0.682  0.00  0.00    +0.000 Cl
BRANCH   9  11
ATOM     11  C   UNL     1       1.986   2.687  -1.463  0.00  0.00    +0.000 C 
BRANCH  11  12
ATOM     12  C   UNL     1       3.078   3.716  -1.596  0.00  0.00    +0.000 A 
ATOM     13  C   UNL     1       4.423   3.468  -1.392  0.00  0.00    +0.000 A 
ATOM     14  S   UNL     1       5.397   4.854  -1.626  0.00  0.00    +0.000 S 
ATOM     15  C   UNL     1       4.035   5.810  -2.012  0.00  0.00    +0.000 A 
ATOM     16  C   UNL     1       2.865   5.085  -1.963  0.00  0.00    +0.000 A 
ENDBRANCH  11  12
ENDBRANCH   9  11
ENDBRANCH   4   9
TORSDOF 3
