REMARK  Name = *****
REMARK  4 active torsions:
REMARK  status: ('A' for Active; 'I' for Inactive)
REMARK    1  A    between atoms: C_1  and  C_2
REMARK    2  A    between atoms: C_4  and  C_8
REMARK    3  A    between atoms: C_8  and  S_9
REMARK    4  A    between atoms: S_9  and  C_11
REMARK                            x       y       z     vdW  Elec       q    Type
REMARK                         _______ _______ _______ _____ _____    ______ ____
ROOT
ATOM      1  S   UNL     1      -0.360   4.031  -0.265  0.00  0.00    +0.000 S 
ATOM      2  O   UNL     1       0.285   4.095  -1.621  0.00  0.00    +0.000 OA
ENDROOT
BRANCH   1   3
ATOM      3  C   UNL     1      -1.561   5.385  -0.241  0.00  0.00    +0.000 A 
ATOM      4  C   UNL     1      -2.175   5.743   0.966  0.00  0.00    +0.000 A 
ATOM      5  C   UNL     1      -3.103   6.788   0.999  0.00  0.00    +0.000 A 
ATOM      6  C   UNL     1      -3.411   7.479  -0.172  0.00  0.00    +0.000 A 
ATOM      7  C   UNL     1      -2.798   7.136  -1.375  0.00  0.00    +0.000 A 
ATOM      8  C   UNL     1      -1.871   6.091  -1.408  0.00  0.00    +0.000 A 
ATOM      9 CL   UNL     1      -4.553   8.764  -0.128  0.00  0.00    +0.000 Cl
ENDBRANCH   1   3
BRANCH   1  10
ATOM     10  C   UNL     1      -1.573   2.664  -0.291  0.00  0.00    +0.000 C 
BRANCH  10  14
ATOM     11  C   UNL     1      -0.238  -1.281   2.563  0.00  0.00    +0.000 C 
ATOM     12  C   UNL     1      -0.275  -0.594   1.230  0.00  0.00    +0.000 A 
ATOM     13  C   UNL     1      -0.895   0.656   1.090  0.00  0.00    +0.000 A 
ATOM     14  C   UNL     1      -0.906   1.321  -0.146  0.00  0.00    +0.000 A 
ATOM     15  C   UNL     1      -0.266   0.726  -1.242  0.00  0.00    +0.000 A 
ATOM     16  C   UNL     1       0.366  -0.509  -1.107  0.00  0.00    +0.000 A 
ATOM     17  C   UNL     1       0.365  -1.165   0.124  0.00  0.00    +0.000 A 
ENDBRANCH  10  14
ENDBRANCH   1  10
TORSDOF 3
