REMARK  Name = *****
REMARK  3 active torsions:
REMARK  status: ('A' for Active; 'I' for Inactive)
REMARK    1  A    between atoms: N_4  and  S_7
REMARK    2  A    between atoms: S_7  and  N_10
REMARK    3  A    between atoms: N_10  and  C_11
REMARK                            x       y       z     vdW  Elec       q    Type
REMARK                         _______ _______ _______ _____ _____    ______ ____
ROOT
ATOM      1  N   UNL     1       3.971  -1.451   0.338  0.00  0.00    +0.000 N 
ATOM      2  H   UNL     1       4.188  -2.365   0.041  0.00  0.00    +0.000 HD
ENDROOT
BRANCH   1   3
ATOM      3  C   UNL     1       4.274  -0.990   1.662  0.00  0.00    +0.000 A 
ATOM      4  C   UNL     1       3.297  -1.039   2.654  0.00  0.00    +0.000 A 
ATOM      5  C   UNL     1       3.579  -0.543   3.926  0.00  0.00    +0.000 A 
ATOM      6  C   UNL     1       4.826   0.006   4.215  0.00  0.00    +0.000 A 
ATOM      7  C   UNL     1       5.791   0.063   3.212  0.00  0.00    +0.000 A 
ATOM      8  C   UNL     1       5.522  -0.427   1.934  0.00  0.00    +0.000 A 
ATOM      9 CL   UNL     1       7.333   0.748   3.554  0.00  0.00    +0.000 Cl
ATOM     10 CL   UNL     1       2.373  -0.612   5.152  0.00  0.00    +0.000 Cl
ENDBRANCH   1   3
BRANCH   1  11
ATOM     11  S   UNL     1       3.219  -0.329  -0.684  0.00  0.00    +0.000 S 
ATOM     12  O   UNL     1       3.151  -0.936  -1.992  0.00  0.00    +0.000 OA
ATOM     13  O   UNL     1       3.854   0.953  -0.488  0.00  0.00    +0.000 OA
BRANCH  11  17
ATOM     14  C   UNL     1      -1.237  -0.267   0.271  0.00  0.00    +0.000 C 
ATOM     15  C   UNL     1      -0.402   1.006   0.372  0.00  0.00    +0.000 C 
ATOM     16  C   UNL     1       0.871   0.906  -0.464  0.00  0.00    +0.000 C 
ATOM     17  N   UNL     1       1.654  -0.286  -0.034  0.00  0.00    +0.000 NA
ATOM     18  C   UNL     1       0.876  -1.542  -0.229  0.00  0.00    +0.000 C 
ATOM     19  C   UNL     1      -0.394  -1.491   0.616  0.00  0.00    +0.000 C 
ENDBRANCH  11  17
ENDBRANCH   1  11
TORSDOF 3
