REMARK  Name = *****
REMARK  2 active torsions:
REMARK  status: ('A' for Active; 'I' for Inactive)
REMARK    1  A    between atoms: C_1  and  C_2
REMARK    2  A    between atoms: C_10  and  C_11
REMARK                            x       y       z     vdW  Elec       q    Type
REMARK                         _______ _______ _______ _____ _____    ______ ____
ROOT
ATOM      1  C   UNL     1       1.283  -0.423   0.461  0.00  0.00    +0.000 C 
ATOM      2  C   UNL     1       2.749  -0.022   0.293  0.00  0.00    +0.000 C 
ATOM      3  C   UNL     1       2.910   1.078  -0.767  0.00  0.00    +0.000 C 
ATOM      4  C   UNL     1       4.329   1.641  -0.802  0.00  0.00    +0.000 C 
ATOM      5  C   UNL     1       4.835   2.142   0.554  0.00  0.00    +0.000 C 
ATOM      6  C   UNL     1       3.988   1.723   1.755  0.00  0.00    +0.000 C 
ATOM      7  C   UNL     1       3.470   0.291   1.636  0.00  0.00    +0.000 C 
ATOM      8  C   UNL     1       4.493  -0.851   1.441  0.00  0.00    +0.000 C 
ATOM      9  C   UNL     1       3.713  -1.206   0.195  0.00  0.00    +0.000 C 
ATOM     10  C   UNL     1       3.829  -2.176  -0.727  0.00  0.00    +0.000 C 
ENDROOT
BRANCH  10  11
ATOM     11  C   UNL     1       4.809  -3.269  -0.763  0.00  0.00    +0.000 A 
ATOM     12  C   UNL     1       5.173  -3.984   0.383  0.00  0.00    +0.000 A 
ATOM     13  C   UNL     1       6.094  -5.033   0.304  0.00  0.00    +0.000 A 
ATOM     14  C   UNL     1       6.652  -5.382  -0.923  0.00  0.00    +0.000 A 
ATOM     15  C   UNL     1       6.287  -4.686  -2.074  0.00  0.00    +0.000 A 
ATOM     16  C   UNL     1       5.366  -3.638  -1.994  0.00  0.00    +0.000 A 
ENDBRANCH  10  11
TORSDOF 1
