REMARK  Name = *****
REMARK  4 active torsions:
REMARK  status: ('A' for Active; 'I' for Inactive)
REMARK    1  A    between atoms: C_1  and  C_2
REMARK    2  A    between atoms: C_4  and  C_17
REMARK    3  A    between atoms: C_5  and  N_8
REMARK    4  A    between atoms: C_9  and  C_10
REMARK                            x       y       z     vdW  Elec       q    Type
REMARK                         _______ _______ _______ _____ _____    ______ ____
ROOT
ATOM      1  N   UNL     1      -2.444  -1.707  -0.987  0.00  0.00    +0.000 NA
ATOM      2  C   UNL     1      -2.720  -2.697  -0.198  0.00  0.00    +0.000 C 
ENDROOT
BRANCH   1   7
ATOM      3  C   UNL     1       2.482   0.998   0.080  0.00  0.00    +0.000 C 
ATOM      4  C   UNL     1       1.184   0.309  -0.223  0.00  0.00    +0.000 A 
ATOM      5  C   UNL     1      -0.019   0.804   0.299  0.00  0.00    +0.000 A 
ATOM      6  C   UNL     1      -1.239   0.155   0.046  0.00  0.00    +0.000 A 
ATOM      7  C   UNL     1      -1.246  -1.026  -0.714  0.00  0.00    +0.000 A 
ATOM      8  C   UNL     1      -0.044  -1.515  -1.237  0.00  0.00    +0.000 A 
ATOM      9  C   UNL     1       1.163  -0.861  -0.986  0.00  0.00    +0.000 A 
ATOM     10  C   UNL     1      -2.517   0.717   0.602  0.00  0.00    +0.000 C 
ENDBRANCH   1   7
BRANCH   2  11
ATOM     11  C   UNL     1      -3.946  -3.502  -0.360  0.00  0.00    +0.000 A 
ATOM     12  C   UNL     1      -4.866  -3.210  -1.372  0.00  0.00    +0.000 A 
ATOM     13  C   UNL     1      -6.021  -3.984  -1.507  0.00  0.00    +0.000 A 
ATOM     14  C   UNL     1      -6.249  -5.045  -0.631  0.00  0.00    +0.000 A 
ATOM     15  C   UNL     1      -5.333  -5.339   0.380  0.00  0.00    +0.000 A 
ATOM     16  C   UNL     1      -4.177  -4.566   0.518  0.00  0.00    +0.000 A 
ATOM     17 CL   UNL     1      -7.671  -5.999  -0.796  0.00  0.00    +0.000 Cl
ENDBRANCH   2  11
TORSDOF 2
