REMARK  Name = *****
REMARK  6 active torsions:
REMARK  status: ('A' for Active; 'I' for Inactive)
REMARK    1  A    between atoms: C_1  and  C_2
REMARK    2  A    between atoms: C_2  and  C_3
REMARK    3  A    between atoms: C_2  and  C_4
REMARK    4  A    between atoms: C_7  and  S_9
REMARK    5  A    between atoms: S_9  and  C_10
REMARK    6  A    between atoms: C_10  and  C_11
REMARK                            x       y       z     vdW  Elec       q    Type
REMARK                         _______ _______ _______ _____ _____    ______ ____
ROOT
ATOM      1  C   UNL     1       2.853   0.861  -1.306  0.00  0.00    +0.000 A 
ATOM      2  N   UNL     1       3.223   2.123  -1.274  0.00  0.00    +0.000 NA
ATOM      3  N   UNL     1       3.553   2.459  -2.571  0.00  0.00    +0.000 NA
ATOM      4  C   UNL     1       3.359   1.384  -3.306  0.00  0.00    +0.000 A 
ATOM      5  O   UNL     1       2.910   0.322  -2.562  0.00  0.00    +0.000 OA
ENDROOT
BRANCH   1   7
ATOM      6  C   UNL     1       3.369   0.002   0.965  0.00  0.00    +0.000 C 
ATOM      7  C   UNL     1       2.386  -0.024  -0.205  0.00  0.00    +0.000 C 
ATOM      8  C   UNL     1       0.988   0.387   0.253  0.00  0.00    +0.000 C 
ENDBRANCH   1   7
BRANCH   4   9
ATOM      9  S   UNL     1       3.637   1.321  -5.018  0.00  0.00    +0.000 S 
BRANCH   9  10
ATOM     10  C   UNL     1       3.091  -0.370  -5.373  0.00  0.00    +0.000 C 
BRANCH  10  11
ATOM     11  C   UNL     1       3.211  -0.699  -6.840  0.00  0.00    +0.000 A 
ATOM     12  C   UNL     1       4.391  -1.257  -7.352  0.00  0.00    +0.000 A 
ATOM     13  C   UNL     1       4.504  -1.551  -8.712  0.00  0.00    +0.000 A 
ATOM     14  C   UNL     1       3.442  -1.285  -9.574  0.00  0.00    +0.000 A 
ATOM     15  C   UNL     1       2.268  -0.721  -9.079  0.00  0.00    +0.000 A 
ATOM     16  C   UNL     1       2.152  -0.427  -7.720  0.00  0.00    +0.000 A 
ENDBRANCH  10  11
ENDBRANCH   9  10
ENDBRANCH   4   9
TORSDOF 4
