REMARK  Name = *****
REMARK  3 active torsions:
REMARK  status: ('A' for Active; 'I' for Inactive)
REMARK    1  A    between atoms: C_4  and  O_7
REMARK    2  A    between atoms: O_7  and  C_8
REMARK    3  A    between atoms: C_8  and  C_10
REMARK                            x       y       z     vdW  Elec       q    Type
REMARK                         _______ _______ _______ _____ _____    ______ ____
ROOT
ATOM      1  C   UNL     1      -0.190  -3.581   0.900  0.00  0.00    +0.000 C 
ATOM      2  O   UNL     1      -0.981  -3.201   1.751  0.00  0.00    +0.000 OA
ENDROOT
BRANCH   1   3
ATOM      3  C   UNL     1       0.166  -5.016   0.713  0.00  0.00    +0.000 A 
ATOM      4  C   UNL     1       1.098  -5.448  -0.243  0.00  0.00    +0.000 A 
ATOM      5  C   UNL     1       1.391  -6.808  -0.373  0.00  0.00    +0.000 A 
ATOM      6  C   UNL     1       0.759  -7.743   0.447  0.00  0.00    +0.000 A 
ATOM      7  C   UNL     1      -0.167  -7.322   1.399  0.00  0.00    +0.000 A 
ATOM      8  C   UNL     1      -0.463  -5.964   1.533  0.00  0.00    +0.000 A 
ENDBRANCH   1   3
BRANCH   1   9
ATOM      9  O   UNL     1       0.495  -2.814   0.002  0.00  0.00    +0.000 OA
BRANCH   9  13
ATOM     10  C   UNL     1      -0.390   1.367   0.164  0.00  0.00    +0.000 C 
ATOM     11  C   UNL     1      -1.242   0.475  -0.735  0.00  0.00    +0.000 C 
ATOM     12  C   UNL     1      -1.177  -0.985  -0.277  0.00  0.00    +0.000 C 
ATOM     13  C   UNL     1       0.231  -1.429   0.029  0.00  0.00    +0.000 C 
ATOM     14  C   UNL     1       1.246  -0.568   0.195  0.00  0.00    +0.000 C 
ATOM     15  C   UNL     1       1.075   0.922   0.164  0.00  0.00    +0.000 C 
ENDBRANCH   9  13
ENDBRANCH   1   9
TORSDOF 3
