REMARK  Name = *****
REMARK  2 active torsions:
REMARK  status: ('A' for Active; 'I' for Inactive)
REMARK    1  A    between atoms: C_1  and  C_2
REMARK    2  A    between atoms: C_4  and  C_12
REMARK                            x       y       z     vdW  Elec       q    Type
REMARK                         _______ _______ _______ _____ _____    ______ ____
ROOT
ATOM      1  C   UNL     1       0.726  -0.032   0.059  0.00  0.00    +0.000 C 
ATOM      2  C   UNL     1       2.253  -0.038  -0.059  0.00  0.00    +0.000 C 
ATOM      3  C   UNL     1       2.810  -1.292   0.557  0.00  0.00    +0.000 C 
ATOM      4  C   UNL     1       3.390  -1.382   1.762  0.00  0.00    +0.000 C 
ATOM      5  S   UNL     1       3.558  -0.060   2.856  0.00  0.00    +0.000 S 
ATOM      6  C   UNL     1       3.430   1.332   1.750  0.00  0.00    +0.000 A 
ATOM      7  C   UNL     1       3.936   2.561   2.200  0.00  0.00    +0.000 A 
ATOM      8  C   UNL     1       3.873   3.699   1.397  0.00  0.00    +0.000 A 
ATOM      9  C   UNL     1       3.299   3.623   0.133  0.00  0.00    +0.000 A 
ATOM     10  C   UNL     1       2.787   2.409  -0.323  0.00  0.00    +0.000 A 
ATOM     11  C   UNL     1       2.845   1.250   0.476  0.00  0.00    +0.000 A 
ENDROOT
BRANCH   4  12
ATOM     12  C   UNL     1       3.884  -2.680   2.244  0.00  0.00    +0.000 A 
ATOM     13  C   UNL     1       5.090  -3.201   1.755  0.00  0.00    +0.000 A 
ATOM     14  C   UNL     1       5.553  -4.443   2.193  0.00  0.00    +0.000 A 
ATOM     15  C   UNL     1       4.814  -5.176   3.121  0.00  0.00    +0.000 A 
ATOM     16  C   UNL     1       3.611  -4.669   3.611  0.00  0.00    +0.000 A 
ATOM     17  C   UNL     1       3.146  -3.427   3.172  0.00  0.00    +0.000 A 
ENDBRANCH   4  12
TORSDOF 1
