REMARK  Name = *****
REMARK  3 active torsions:
REMARK  status: ('A' for Active; 'I' for Inactive)
REMARK    1  A    between atoms: C_4  and  O_8
REMARK    2  A    between atoms: O_8  and  C_9
REMARK    3  A    between atoms: C_9  and  C_10
REMARK                            x       y       z     vdW  Elec       q    Type
REMARK                         _______ _______ _______ _____ _____    ______ ____
ROOT
ATOM      1  O   UNL     1       1.712  -2.253   0.739  0.00  0.00    +0.000 OA
ENDROOT
BRANCH   1   5
ATOM      2  C   UNL     1       1.641   0.713   1.198  0.00  0.00    +0.000 C 
ATOM      3  C   UNL     1       2.902   0.683   2.063  0.00  0.00    +0.000 C 
ATOM      4  C   UNL     1       3.175  -0.835   2.135  0.00  0.00    +0.000 C 
ATOM      5  C   UNL     1       2.791  -1.321   0.704  0.00  0.00    +0.000 C 
ATOM      6  C   UNL     1       2.314  -0.011   0.025  0.00  0.00    +0.000 C 
ATOM      7  C   UNL     1       3.520   0.886  -0.143  0.00  0.00    +0.000 C 
ATOM      8  C   UNL     1       3.879   1.294   1.084  0.00  0.00    +0.000 C 
ENDBRANCH   1   5
BRANCH   1   9
ATOM      9  C   UNL     1       2.138  -3.569   1.096  0.00  0.00    +0.000 C 
BRANCH   9  10
ATOM     10  C   UNL     1       0.949  -4.492   1.209  0.00  0.00    +0.000 A 
ATOM     11  C   UNL     1       1.076  -5.846   0.865  0.00  0.00    +0.000 A 
ATOM     12  C   UNL     1      -0.004  -6.720   1.005  0.00  0.00    +0.000 A 
ATOM     13  C   UNL     1      -1.220  -6.253   1.502  0.00  0.00    +0.000 A 
ATOM     14  C   UNL     1      -1.356  -4.914   1.861  0.00  0.00    +0.000 A 
ATOM     15  C   UNL     1      -0.276  -4.040   1.722  0.00  0.00    +0.000 A 
ENDBRANCH   9  10
ENDBRANCH   1   9
TORSDOF 3
