REMARK  Name = *****
REMARK  4 active torsions:
REMARK  status: ('A' for Active; 'I' for Inactive)
REMARK    1  A    between atoms: C_4  and  C_6
REMARK    2  A    between atoms: C_6  and  C_8
REMARK    3  A    between atoms: C_8  and  C_9
REMARK    4  A    between atoms: C_9  and  C_10
REMARK                            x       y       z     vdW  Elec       q    Type
REMARK                         _______ _______ _______ _____ _____    ______ ____
ROOT
ATOM      1  C   UNL     1       0.913  -3.681  -0.028  0.00  0.00    +0.000 C 
ENDROOT
BRANCH   1   2
ATOM      2  C   UNL     1      -0.230  -2.675  -0.051  0.00  0.00    +0.000 C 
ATOM      3  O   UNL     1      -1.399  -3.063  -0.082  0.00  0.00    +0.000 OA
BRANCH   2   7
ATOM      4  C   UNL     1       1.365   0.736   0.008  0.00  0.00    +0.000 A 
ATOM      5  C   UNL     1       0.072   1.208  -0.009  0.00  0.00    +0.000 A 
ATOM      6  S   UNL     1      -1.071  -0.061  -0.041  0.00  0.00    +0.000 S 
ATOM      7  C   UNL     1       0.154  -1.265  -0.031  0.00  0.00    +0.000 A 
ATOM      8  C   UNL     1       1.413  -0.689  -0.005  0.00  0.00    +0.000 A 
ENDBRANCH   2   7
ENDBRANCH   1   2
BRANCH   1   9
ATOM      9  C   UNL     1       0.408  -5.122  -0.044  0.00  0.00    +0.000 C 
BRANCH   9  10
ATOM     10  C   UNL     1       1.553  -6.106  -0.010  0.00  0.00    +0.000 A 
ATOM     11  C   UNL     1       2.068  -6.553   1.215  0.00  0.00    +0.000 A 
ATOM     12  C   UNL     1       3.141  -7.446   1.246  0.00  0.00    +0.000 A 
ATOM     13  C   UNL     1       3.705  -7.893   0.053  0.00  0.00    +0.000 A 
ATOM     14  C   UNL     1       3.206  -7.453  -1.171  0.00  0.00    +0.000 A 
ATOM     15  C   UNL     1       2.133  -6.560  -1.203  0.00  0.00    +0.000 A 
ATOM     16 CL   UNL     1       5.029  -8.991   0.092  0.00  0.00    +0.000 Cl
ENDBRANCH   9  10
ENDBRANCH   1   9
TORSDOF 4
