REMARK  Name = *****
REMARK  3 active torsions:
REMARK  status: ('A' for Active; 'I' for Inactive)
REMARK    1  A    between atoms: C_4  and  O_7
REMARK    2  A    between atoms: O_7  and  C_8
REMARK    3  A    between atoms: C_8  and  C_10
REMARK                            x       y       z     vdW  Elec       q    Type
REMARK                         _______ _______ _______ _____ _____    ______ ____
ROOT
ATOM      1  C   UNL     1      -0.486  -2.380   2.388  0.00  0.00    +0.000 C 
ATOM      2  O   UNL     1      -1.122  -3.298   1.897  0.00  0.00    +0.000 OA
ENDROOT
BRANCH   1   3
ATOM      3  C   UNL     1      -0.230  -2.234   3.842  0.00  0.00    +0.000 A 
ATOM      4  C   UNL     1      -0.342  -3.370   4.654  0.00  0.00    +0.000 A 
ATOM      5  C   UNL     1      -0.113  -3.273   6.028  0.00  0.00    +0.000 A 
ATOM      6  C   UNL     1       0.215  -2.042   6.595  0.00  0.00    +0.000 A 
ATOM      7  C   UNL     1       0.316  -0.905   5.793  0.00  0.00    +0.000 A 
ATOM      8  C   UNL     1       0.094  -0.998   4.417  0.00  0.00    +0.000 A 
ENDBRANCH   1   3
BRANCH   1   9
ATOM      9  O   UNL     1       0.114  -1.375   1.707  0.00  0.00    +0.000 OA
BRANCH   9  13
ATOM     10  C   UNL     1      -0.285   1.732  -0.304  0.00  0.00    +0.000 C 
ATOM     11  C   UNL     1       1.055   1.132   0.103  0.00  0.00    +0.000 C 
ATOM     12  S   UNL     1       1.310  -0.547  -0.549  0.00  0.00    +0.000 S 
ATOM     13  C   UNL     1      -0.083  -1.400   0.286  0.00  0.00    +0.000 C 
ATOM     14  C   UNL     1      -1.442  -0.792  -0.099  0.00  0.00    +0.000 C 
ATOM     15  S   UNL     1      -1.712   0.924   0.489  0.00  0.00    +0.000 S 
ENDBRANCH   9  13
ENDBRANCH   1   9
TORSDOF 3
