REMARK  Name = *****
REMARK  7 active torsions:
REMARK  status: ('A' for Active; 'I' for Inactive)
REMARK    1  A    between atoms: C_1  and  N_2
REMARK    2  A    between atoms: N_2  and  C_3
REMARK    3  A    between atoms: N_2  and  C_4
REMARK    4  A    between atoms: C_9  and  C_10
REMARK    5  A    between atoms: C_10  and  P_11
REMARK    6  A    between atoms: P_11  and  C_12
REMARK    7  A    between atoms: P_11  and  C_13
REMARK                            x       y       z     vdW  Elec       q    Type
REMARK                         _______ _______ _______ _____ _____    ______ ____
ROOT
ATOM      1  C   UNL     1       3.600   0.142   1.601  0.00  0.00    +0.000 A 
ATOM      2  C   UNL     1       3.491  -0.957   2.475  0.00  0.00    +0.000 A 
ATOM      3  C   UNL     1       4.586  -1.413   3.210  0.00  0.00    +0.000 A 
ATOM      4  C   UNL     1       5.818  -0.787   3.076  0.00  0.00    +0.000 A 
ATOM      5  C   UNL     1       5.950   0.301   2.214  0.00  0.00    +0.000 A 
ATOM      6  C   UNL     1       4.849   0.796   1.481  0.00  0.00    +0.000 A 
ENDROOT
BRANCH   1   8
ATOM      7  C   UNL     1       1.295   0.834   1.599  0.00  0.00    +0.000 C 
ATOM      8  N   UNL     1       2.503   0.568   0.815  0.00  0.00    +0.000 N 
ATOM      9  C   UNL     1       2.294  -0.318  -0.331  0.00  0.00    +0.000 C 
ENDBRANCH   1   8
BRANCH   6  10
ATOM     10  C   UNL     1       5.045   1.968   0.546  0.00  0.00    +0.000 C 
BRANCH  10  11
ATOM     11  P   UNL     1       5.292   3.437   1.621  0.00  0.00    +0.000 P 
ATOM     12  C   UNL     1       5.718   4.676   0.337  0.00  0.00    +0.000 C 
BRANCH  11  13
ATOM     13  C   UNL     1       3.604   3.934   2.078  0.00  0.00    +0.000 A 
ATOM     14  C   UNL     1       2.603   4.225   1.142  0.00  0.00    +0.000 A 
ATOM     15  C   UNL     1       1.331   4.635   1.555  0.00  0.00    +0.000 A 
ATOM     16  C   UNL     1       1.042   4.755   2.912  0.00  0.00    +0.000 A 
ATOM     17  C   UNL     1       2.023   4.463   3.856  0.00  0.00    +0.000 A 
ATOM     18  C   UNL     1       3.294   4.056   3.441  0.00  0.00    +0.000 A 
ENDBRANCH  11  13
ENDBRANCH  10  11
ENDBRANCH   6  10
TORSDOF 4
