REMARK  Name = *****
REMARK  4 active torsions:
REMARK  status: ('A' for Active; 'I' for Inactive)
REMARK    1  A    between atoms: C_1  and  C_2
REMARK    2  A    between atoms: C_5  and  C_6
REMARK    3  A    between atoms: C_6  and  C_7
REMARK    4  A    between atoms: C_14  and  C_17
REMARK                            x       y       z     vdW  Elec       q    Type
REMARK                         _______ _______ _______ _____ _____    ______ ____
ROOT
ATOM      1  C   UNL     1      -1.159   2.655   0.622  0.00  0.00    +0.000 C 
ATOM      2  C   UNL     1      -0.390   1.402   0.346  0.00  0.00    +0.000 C 
ATOM      3  C   UNL     1       0.945   1.366   0.196  0.00  0.00    +0.000 C 
ATOM      4  C   UNL     1       1.647   0.124  -0.085  0.00  0.00    +0.000 C 
ATOM      5  C   UNL     1       2.985   0.060  -0.244  0.00  0.00    +0.000 C 
ATOM      6  C   UNL     1       0.876  -1.106  -0.225  0.00  0.00    +0.000 C 
ATOM      7  C   UNL     1      -0.459  -1.126  -0.079  0.00  0.00    +0.000 C 
ATOM      8  C   UNL     1      -1.189   0.143   0.228  0.00  0.00    +0.000 C 
ATOM      9  O   UNL     1      -2.408   0.151   0.376  0.00  0.00    +0.000 OA
ATOM     10  C   UNL     1      -1.290  -2.363  -0.206  0.00  0.00    +0.000 C 
ENDROOT
BRANCH   5  11
ATOM     11  C   UNL     1       4.003   1.164  -0.122  0.00  0.00    +0.000 C 
BRANCH  11  12
ATOM     12  C   UNL     1       4.421   1.720  -1.462  0.00  0.00    +0.000 A 
ATOM     13  C   UNL     1       3.930   2.956  -1.905  0.00  0.00    +0.000 A 
ATOM     14  C   UNL     1       4.307   3.465  -3.149  0.00  0.00    +0.000 A 
ATOM     15  C   UNL     1       5.173   2.742  -3.966  0.00  0.00    +0.000 A 
ATOM     16  C   UNL     1       5.665   1.509  -3.539  0.00  0.00    +0.000 A 
ATOM     17  C   UNL     1       5.291   1.000  -2.294  0.00  0.00    +0.000 A 
ENDBRANCH  11  12
ENDBRANCH   5  11
TORSDOF 2
