REMARK  Name = *****
REMARK  5 active torsions:
REMARK  status: ('A' for Active; 'I' for Inactive)
REMARK    1  A    between atoms: C_1  and  O_2
REMARK    2  A    between atoms: O_2  and  C_3
REMARK    3  A    between atoms: C_3  and  C_5
REMARK    4  A    between atoms: C_9  and  C_11
REMARK    5  A    between atoms: C_12  and  C_13
REMARK                            x       y       z     vdW  Elec       q    Type
REMARK                         _______ _______ _______ _____ _____    ______ ____
ROOT
ATOM      1  C   UNL     1       4.703  -1.137   0.423  0.00  0.00    +0.000 A 
ATOM      2  C   UNL     1       5.349  -0.046   1.020  0.00  0.00    +0.000 A 
ATOM      3  C   UNL     1       6.744   0.006   1.065  0.00  0.00    +0.000 A 
ATOM      4  C   UNL     1       7.499  -1.031   0.514  0.00  0.00    +0.000 A 
ATOM      5  C   UNL     1       6.862  -2.122  -0.082  0.00  0.00    +0.000 A 
ATOM      6  C   UNL     1       5.467  -2.176  -0.127  0.00  0.00    +0.000 A 
ENDROOT
BRANCH   1   7
ATOM      7  C   UNL     1       3.220  -1.243   0.348  0.00  0.00    +0.000 C 
ATOM      8  O   UNL     1       2.636  -2.188  -0.159  0.00  0.00    +0.000 OA
BRANCH   7  10
ATOM      9  C   UNL     1       1.205  -0.186   0.873  0.00  0.00    +0.000 C 
ATOM     10  O   UNL     1       2.633  -0.157   0.910  0.00  0.00    +0.000 OA
ENDBRANCH   7  10
ENDBRANCH   1   7
BRANCH   5  11
ATOM     11  C   UNL     1       7.639  -3.182  -0.646  0.00  0.00    +0.000 C 
ATOM     12  C   UNL     1       8.292  -4.071  -1.120  0.00  0.00    +0.000 C 
BRANCH  12  13
ATOM     13  C   UNL     1       9.070  -5.129  -1.687  0.00  0.00    +0.000 A 
ATOM     14  C   UNL     1      10.461  -5.121  -1.558  0.00  0.00    +0.000 A 
ATOM     15  C   UNL     1      11.221  -6.154  -2.112  0.00  0.00    +0.000 A 
ATOM     16  C   UNL     1      10.591  -7.195  -2.794  0.00  0.00    +0.000 A 
ATOM     17  C   UNL     1       9.202  -7.205  -2.923  0.00  0.00    +0.000 A 
ATOM     18  C   UNL     1       8.441  -6.173  -2.370  0.00  0.00    +0.000 A 
ENDBRANCH  12  13
ENDBRANCH   5  11
TORSDOF 4
