REMARK  Name = *****
REMARK  4 active torsions:
REMARK  status: ('A' for Active; 'I' for Inactive)
REMARK    1  A    between atoms: C_1  and  C_2
REMARK    2  A    between atoms: C_4  and  C_8
REMARK    3  A    between atoms: C_9  and  C_10
REMARK    4  A    between atoms: C_13  and  C_16
REMARK                            x       y       z     vdW  Elec       q    Type
REMARK                         _______ _______ _______ _____ _____    ______ ____
ROOT
ATOM      1  C   UNL     1       5.260   2.576  -0.639  0.00  0.00    +0.000 C 
ATOM      2  C   UNL     1       5.812   3.626  -0.830  0.00  0.00    +0.000 C 
ENDROOT
BRANCH   1   6
ATOM      3  C   UNL     1       1.060   0.003   0.006  0.00  0.00    +0.000 C 
ATOM      4  C   UNL     1       2.556   0.060  -0.072  0.00  0.00    +0.000 A 
ATOM      5  C   UNL     1       3.209   1.278  -0.305  0.00  0.00    +0.000 A 
ATOM      6  C   UNL     1       4.603   1.327  -0.410  0.00  0.00    +0.000 A 
ATOM      7  C   UNL     1       5.351   0.155  -0.294  0.00  0.00    +0.000 A 
ATOM      8  C   UNL     1       4.708  -1.064  -0.078  0.00  0.00    +0.000 A 
ATOM      9  C   UNL     1       3.317  -1.112   0.027  0.00  0.00    +0.000 A 
ENDBRANCH   1   6
BRANCH   2  10
ATOM     10  C   UNL     1       6.469   4.876  -1.057  0.00  0.00    +0.000 A 
ATOM     11  C   UNL     1       5.903   6.060  -0.580  0.00  0.00    +0.000 A 
ATOM     12  C   UNL     1       6.545   7.283  -0.801  0.00  0.00    +0.000 A 
ATOM     13  C   UNL     1       7.756   7.323  -1.500  0.00  0.00    +0.000 A 
ATOM     14  C   UNL     1       8.322   6.135  -1.977  0.00  0.00    +0.000 A 
ATOM     15  C   UNL     1       7.679   4.914  -1.755  0.00  0.00    +0.000 A 
BRANCH  13  16
ATOM     16  C   UNL     1       8.415   8.576  -1.727  0.00  0.00    +0.000 C 
ATOM     17  N   UNL     1       8.948   9.590  -1.910  0.00  0.00    +0.000 NA
ENDBRANCH  13  16
ENDBRANCH   2  10
TORSDOF 3
