REMARK  Name = *****
REMARK  3 active torsions:
REMARK  status: ('A' for Active; 'I' for Inactive)
REMARK    1  A    between atoms: C_1  and  C_2
REMARK    2  A    between atoms: N_10  and  O_11
REMARK    3  A    between atoms: O_11  and  C_12
REMARK                            x       y       z     vdW  Elec       q    Type
REMARK                         _______ _______ _______ _____ _____    ______ ____
ROOT
ATOM      1  C   UNL     1       1.346  -0.983  -0.414  0.00  0.00    +0.000 C 
ATOM      2  C   UNL     1       2.770  -0.533  -0.245  0.00  0.00    +0.000 A 
ATOM      3  C   UNL     1       3.765  -1.474   0.073  0.00  0.00    +0.000 A 
ATOM      4  C   UNL     1       5.065  -0.986   0.242  0.00  0.00    +0.000 A 
ATOM      5  C   UNL     1       5.401   0.356   0.131  0.00  0.00    +0.000 A 
ATOM      6  C   UNL     1       4.402   1.290  -0.171  0.00  0.00    +0.000 A 
ATOM      7  C   UNL     1       3.089   0.830  -0.352  0.00  0.00    +0.000 A 
ATOM      8  N   UNL     1       6.742   0.524   0.368  0.00  0.00    +0.000 NA
ATOM      9  N   UNL     1       7.263  -0.667   0.643  0.00  0.00    +0.000 NA
ATOM     10  N   UNL     1       6.271  -1.567   0.526  0.00  0.00    +0.000 N 
ENDROOT
BRANCH  10  11
ATOM     11  O   UNL     1       6.503  -2.904   0.854  0.00  0.00    +0.000 OA
BRANCH  11  12
ATOM     12  C   UNL     1       6.602  -3.688  -0.273  0.00  0.00    +0.000 A 
ATOM     13  C   UNL     1       5.958  -4.926  -0.220  0.00  0.00    +0.000 A 
ATOM     14  C   UNL     1       6.021  -5.795  -1.310  0.00  0.00    +0.000 A 
ATOM     15  C   UNL     1       6.741  -5.432  -2.448  0.00  0.00    +0.000 A 
ATOM     16  C   UNL     1       7.406  -4.206  -2.492  0.00  0.00    +0.000 A 
ATOM     17  C   UNL     1       7.346  -3.336  -1.402  0.00  0.00    +0.000 A 
ENDBRANCH  11  12
ENDBRANCH  10  11
TORSDOF 2
