REMARK  Name = *****
REMARK  2 active torsions:
REMARK  status: ('A' for Active; 'I' for Inactive)
REMARK    1  A    between atoms: C_4  and  C_7
REMARK    2  A    between atoms: C_8  and  C_9
REMARK                            x       y       z     vdW  Elec       q    Type
REMARK                         _______ _______ _______ _____ _____    ______ ____
ROOT
ATOM      1  C   UNL     1       5.536   0.316  -0.518  0.00  0.00    +0.000 A 
ATOM      2  C   UNL     1       6.315  -0.840  -0.594  0.00  0.00    +0.000 A 
ATOM      3  C   UNL     1       7.699  -0.767  -0.725  0.00  0.00    +0.000 A 
ATOM      4  C   UNL     1       8.306   0.481  -0.781  0.00  0.00    +0.000 A 
ATOM      5  C   UNL     1       7.557   1.648  -0.708  0.00  0.00    +0.000 A 
ATOM      6  C   UNL     1       6.174   1.556  -0.577  0.00  0.00    +0.000 A 
ATOM      7  F   UNL     1       5.462   2.691  -0.508  0.00  0.00    +0.000 F 
ATOM      8  F   UNL     1       9.637   0.560  -0.908  0.00  0.00    +0.000 F 
ATOM      9  F   UNL     1       5.741  -2.051  -0.541  0.00  0.00    +0.000 F 
ENDROOT
BRANCH   1  11
ATOM     10  C   UNL     1       2.921   0.162  -0.277  0.00  0.00    +0.000 C 
ATOM     11  C   UNL     1       4.115   0.232  -0.386  0.00  0.00    +0.000 C 
BRANCH  10  15
ATOM     12  C   UNL     1      -1.279  -0.080   0.092  0.00  0.00    +0.000 A 
ATOM     13  C   UNL     1      -0.655   1.166   0.029  0.00  0.00    +0.000 A 
ATOM     14  C   UNL     1       0.733   1.247  -0.092  0.00  0.00    +0.000 A 
ATOM     15  C   UNL     1       1.499   0.080  -0.151  0.00  0.00    +0.000 A 
ATOM     16  C   UNL     1       0.872  -1.167  -0.088  0.00  0.00    +0.000 A 
ATOM     17  C   UNL     1      -0.516  -1.246   0.033  0.00  0.00    +0.000 A 
ENDBRANCH  10  15
ENDBRANCH   1  11
TORSDOF 2
