REMARK  Name = *****
REMARK  3 active torsions:
REMARK  status: ('A' for Active; 'I' for Inactive)
REMARK    1  A    between atoms: C_1  and  O_2
REMARK    2  A    between atoms: O_2  and  C_3
REMARK    3  A    between atoms: C_12  and  C_13
REMARK                            x       y       z     vdW  Elec       q    Type
REMARK                         _______ _______ _______ _____ _____    ______ ____
ROOT
ATOM      1  C   UNL     1       3.076   0.180  -1.342  0.00  0.00    +0.000 A 
ATOM      2  N   UNL     1       2.631   1.169  -2.152  0.00  0.00    +0.000 NA
ATOM      3  C   UNL     1       3.323   1.437  -3.270  0.00  0.00    +0.000 A 
ATOM      4  C   UNL     1       2.888   2.448  -4.116  0.00  0.00    +0.000 A 
ATOM      5  C   UNL     1       3.570   2.766  -5.295  0.00  0.00    +0.000 A 
ATOM      6  C   UNL     1       4.716   2.060  -5.642  0.00  0.00    +0.000 A 
ATOM      7  C   UNL     1       5.174   1.041  -4.811  0.00  0.00    +0.000 A 
ATOM      8  C   UNL     1       4.485   0.726  -3.626  0.00  0.00    +0.000 A 
ATOM      9  C   UNL     1       4.919  -0.292  -2.766  0.00  0.00    +0.000 A 
ATOM     10  C   UNL     1       4.218  -0.582  -1.589  0.00  0.00    +0.000 A 
ENDROOT
BRANCH  10  11
ATOM     11  C   UNL     1       4.673  -1.686  -0.651  0.00  0.00    +0.000 C 
ATOM     12  C   UNL     1       6.121  -1.481  -0.166  0.00  0.00    +0.000 C 
ATOM     13  C   UNL     1       6.557  -2.602   0.776  0.00  0.00    +0.000 C 
ATOM     14  C   UNL     1       6.378  -3.976   0.135  0.00  0.00    +0.000 C 
ATOM     15  C   UNL     1       4.948  -4.188  -0.353  0.00  0.00    +0.000 C 
ATOM     16  C   UNL     1       4.502  -3.072  -1.297  0.00  0.00    +0.000 C 
ENDBRANCH  10  11
BRANCH   1  18
ATOM     17  C   UNL     1       1.190   0.697  -0.044  0.00  0.00    +0.000 C 
ATOM     18  O   UNL     1       2.357  -0.104  -0.197  0.00  0.00    +0.000 OA
ENDBRANCH   1  18
TORSDOF 2
