REMARK  Name = *****
REMARK  5 active torsions:
REMARK  status: ('A' for Active; 'I' for Inactive)
REMARK    1  A    between atoms: C_1  and  O_2
REMARK    2  A    between atoms: O_2  and  N_3
REMARK    3  A    between atoms: N_3  and  C_4
REMARK    4  A    between atoms: C_11  and  C_12
REMARK    5  A    between atoms: C_12  and  C_13
REMARK                            x       y       z     vdW  Elec       q    Type
REMARK                         _______ _______ _______ _____ _____    ______ ____
ROOT
ATOM      1  C   UNL     1       2.939  -2.051   0.480  0.00  0.00    +0.000 A 
ATOM      2  C   UNL     1       3.542  -3.302   0.901  0.00  0.00    +0.000 A 
ATOM      3  C   UNL     1       4.665  -3.505   1.687  0.00  0.00    +0.000 A 
ATOM      4  C   UNL     1       5.040  -4.823   1.951  0.00  0.00    +0.000 A 
ATOM      5  C   UNL     1       4.291  -5.892   1.430  0.00  0.00    +0.000 A 
ATOM      6  C   UNL     1       3.160  -5.655   0.638  0.00  0.00    +0.000 A 
ATOM      7  C   UNL     1       2.800  -4.342   0.383  0.00  0.00    +0.000 A 
ATOM      8  C   UNL     1       1.730  -3.727  -0.365  0.00  0.00    +0.000 A 
ATOM      9  O   UNL     1       1.827  -2.331  -0.280  0.00  0.00    +0.000 OA
ENDROOT
BRANCH   1  10
ATOM     10  N   UNL     1       3.379  -0.871   0.772  0.00  0.00    +0.000 NA
BRANCH  10  12
ATOM     11  C   UNL     1       3.089   1.387   0.488  0.00  0.00    +0.000 C 
ATOM     12  O   UNL     1       2.551   0.105   0.193  0.00  0.00    +0.000 OA
ENDBRANCH  10  12
ENDBRANCH   1  10
BRANCH   8  13
ATOM     13  C   UNL     1       0.781  -4.362  -1.067  0.00  0.00    +0.000 C 
BRANCH  13  14
ATOM     14  C   UNL     1      -0.272  -3.661  -1.806  0.00  0.00    +0.000 A 
ATOM     15  C   UNL     1      -0.259  -3.665  -3.204  0.00  0.00    +0.000 A 
ATOM     16  C   UNL     1      -1.262  -3.006  -3.919  0.00  0.00    +0.000 A 
ATOM     17  C   UNL     1      -2.286  -2.348  -3.239  0.00  0.00    +0.000 A 
ATOM     18  C   UNL     1      -2.307  -2.344  -1.845  0.00  0.00    +0.000 A 
ATOM     19  C   UNL     1      -1.302  -2.998  -1.129  0.00  0.00    +0.000 A 
ENDBRANCH  13  14
ENDBRANCH   8  13
TORSDOF 4
