REMARK  Name = *****
REMARK  3 active torsions:
REMARK  status: ('A' for Active; 'I' for Inactive)
REMARK    1  A    between atoms: C_5  and  C_7
REMARK    2  A    between atoms: C_7  and  O_9
REMARK    3  A    between atoms: O_9  and  C_10
REMARK                            x       y       z     vdW  Elec       q    Type
REMARK                         _______ _______ _______ _____ _____    ______ ____
ROOT
ATOM      1  C   UNL     1       0.932  -2.197  -0.607  0.00  0.00    +0.000 C 
ATOM      2  O   UNL     1       0.507  -3.333  -0.449  0.00  0.00    +0.000 OA
ENDROOT
BRANCH   1   7
ATOM      3  C   UNL     1      -1.942  -0.004   0.442  0.00  0.00    +0.000 A 
ATOM      4  C   UNL     1      -1.302   1.204   0.718  0.00  0.00    +0.000 A 
ATOM      5  C   UNL     1       0.081   1.309   0.573  0.00  0.00    +0.000 A 
ATOM      6  C   UNL     1       0.821   0.207   0.144  0.00  0.00    +0.000 A 
ATOM      7  C   UNL     1       0.191  -1.002  -0.150  0.00  0.00    +0.000 A 
ATOM      8  C   UNL     1      -1.198  -1.106   0.012  0.00  0.00    +0.000 A 
ATOM      9  F   UNL     1       2.152   0.343   0.052  0.00  0.00    +0.000 F 
ENDBRANCH   1   7
BRANCH   1  10
ATOM     10  O   UNL     1       2.075  -1.816  -1.280  0.00  0.00    +0.000 OA
BRANCH  10  11
ATOM     11  C   UNL     1       2.811  -2.896  -1.773  0.00  0.00    +0.000 A 
ATOM     12  C   UNL     1       2.442  -3.496  -2.975  0.00  0.00    +0.000 A 
ATOM     13  C   UNL     1       3.221  -4.539  -3.468  0.00  0.00    +0.000 A 
ATOM     14  C   UNL     1       4.359  -4.964  -2.779  0.00  0.00    +0.000 A 
ATOM     15  C   UNL     1       4.727  -4.338  -1.585  0.00  0.00    +0.000 A 
ATOM     16  C   UNL     1       3.954  -3.293  -1.082  0.00  0.00    +0.000 A 
ATOM     17 CL   UNL     1       2.783  -5.306  -4.946  0.00  0.00    +0.000 Cl
ENDBRANCH  10  11
ENDBRANCH   1  10
TORSDOF 3
