REMARK  Name = *****
REMARK  3 active torsions:
REMARK  status: ('A' for Active; 'I' for Inactive)
REMARK    1  A    between atoms: C_3  and  C_11
REMARK    2  A    between atoms: N_4  and  C_5
REMARK    3  A    between atoms: C_11  and  C_12
REMARK                            x       y       z     vdW  Elec       q    Type
REMARK                         _______ _______ _______ _____ _____    ______ ____
ROOT
ATOM      1  C   UNL     1       1.043  -0.471   0.647  0.00  0.00    +0.000 C 
ATOM      2  C   UNL     1       2.210  -0.142   0.141  0.00  0.00    +0.000 C 
ATOM      3  C   UNL     1       3.194   0.869   0.017  0.00  0.00    +0.000 C 
ATOM      4  N   UNL     1       3.270  -0.534  -0.563  0.00  0.00    +0.000 N 
ENDROOT
BRANCH   4   5
ATOM      5  C   UNL     1       4.257  -1.492  -0.073  0.00  0.00    +0.000 C 
ATOM      6  C   UNL     1       5.503  -1.405  -0.970  0.00  0.00    +0.000 C 
ATOM      7  C   UNL     1       6.553  -2.440  -0.575  0.00  0.00    +0.000 C 
ATOM      8  C   UNL     1       5.979  -3.853  -0.598  0.00  0.00    +0.000 C 
ATOM      9  C   UNL     1       4.722  -3.963   0.259  0.00  0.00    +0.000 C 
ATOM     10  C   UNL     1       3.679  -2.917  -0.128  0.00  0.00    +0.000 C 
ENDBRANCH   4   5
BRANCH   3  11
ATOM     11  C   UNL     1       3.892   1.359   1.249  0.00  0.00    +0.000 C 
BRANCH  11  12
ATOM     12  C   UNL     1       5.272   1.896   0.951  0.00  0.00    +0.000 A 
ATOM     13  C   UNL     1       5.442   3.045   0.165  0.00  0.00    +0.000 A 
ATOM     14  C   UNL     1       6.720   3.543  -0.098  0.00  0.00    +0.000 A 
ATOM     15  C   UNL     1       7.841   2.902   0.424  0.00  0.00    +0.000 A 
ATOM     16  C   UNL     1       7.686   1.764   1.213  0.00  0.00    +0.000 A 
ATOM     17  C   UNL     1       6.409   1.266   1.479  0.00  0.00    +0.000 A 
ENDBRANCH  11  12
ENDBRANCH   3  11
TORSDOF 3
