REMARK  Name = *****
REMARK  5 active torsions:
REMARK  status: ('A' for Active; 'I' for Inactive)
REMARK    1  A    between atoms: C_1  and  C_2
REMARK    2  A    between atoms: C_5  and  C_8
REMARK    3  A    between atoms: C_8  and  C_9
REMARK    4  A    between atoms: C_9  and  C_10
REMARK    5  A    between atoms: C_9  and  C_11
REMARK                            x       y       z     vdW  Elec       q    Type
REMARK                         _______ _______ _______ _____ _____    ______ ____
ROOT
ATOM      1  C   UNL     1      -3.247   0.068   0.040  0.00  0.00    +0.000 C 
ENDROOT
BRANCH   1   6
ATOM      2  C   UNL     1       2.480  -1.037   0.435  0.00  0.00    +0.000 C 
ATOM      3  C   UNL     1       1.019  -0.730   0.304  0.00  0.00    +0.000 A 
ATOM      4  C   UNL     1       0.549   0.575   0.474  0.00  0.00    +0.000 A 
ATOM      5  C   UNL     1      -0.818   0.860   0.385  0.00  0.00    +0.000 A 
ATOM      6  C   UNL     1      -1.749  -0.151   0.125  0.00  0.00    +0.000 A 
ATOM      7  C   UNL     1      -1.269  -1.464  -0.016  0.00  0.00    +0.000 A 
ATOM      8  C   UNL     1       0.096  -1.752   0.073  0.00  0.00    +0.000 A 
ENDBRANCH   1   6
BRANCH   1   9
ATOM      9  C   UNL     1      -3.835   1.475  -0.265  0.00  0.00    +0.000 C 
ATOM     10  C   UNL     1      -3.269   2.023  -1.588  0.00  0.00    +0.000 C 
BRANCH   9  11
ATOM     11  C   UNL     1      -3.843   2.504   0.867  0.00  0.00    +0.000 A 
ATOM     12  C   UNL     1      -3.436   2.203   2.176  0.00  0.00    +0.000 A 
ATOM     13  C   UNL     1      -3.487   3.163   3.192  0.00  0.00    +0.000 A 
ATOM     14  C   UNL     1      -3.965   4.442   2.924  0.00  0.00    +0.000 A 
ATOM     15  C   UNL     1      -4.398   4.758   1.641  0.00  0.00    +0.000 A 
ATOM     16  C   UNL     1      -4.344   3.797   0.627  0.00  0.00    +0.000 A 
ENDBRANCH   9  11
ENDBRANCH   1   9
TORSDOF 3
