REMARK  Name = *****
REMARK  4 active torsions:
REMARK  status: ('A' for Active; 'I' for Inactive)
REMARK    1  A    between atoms: C_1  and  C_2
REMARK    2  A    between atoms: C_5  and  C_8
REMARK    3  A    between atoms: C_8  and  C_9
REMARK    4  A    between atoms: C_10  and  C_11
REMARK                            x       y       z     vdW  Elec       q    Type
REMARK                         _______ _______ _______ _____ _____    ______ ____
ROOT
ATOM      1  C   UNL     1      -3.301   0.024   0.041  0.00  0.00    +0.000 C 
ENDROOT
BRANCH   1   6
ATOM      2  C   UNL     1       2.527   0.057  -0.062  0.00  0.00    +0.000 C 
ATOM      3  C   UNL     1       1.027   0.073  -0.044  0.00  0.00    +0.000 A 
ATOM      4  C   UNL     1       0.335   0.467   1.106  0.00  0.00    +0.000 A 
ATOM      5  C   UNL     1      -1.062   0.452   1.132  0.00  0.00    +0.000 A 
ATOM      6  C   UNL     1      -1.791   0.028   0.013  0.00  0.00    +0.000 A 
ATOM      7  C   UNL     1      -1.096  -0.373  -1.135  0.00  0.00    +0.000 A 
ATOM      8  C   UNL     1       0.301  -0.358  -1.159  0.00  0.00    +0.000 A 
ENDBRANCH   1   6
BRANCH   1   9
ATOM      9  C   UNL     1      -3.881   1.399  -0.143  0.00  0.00    +0.000 C 
ATOM     10  C   UNL     1      -4.701   1.987   0.744  0.00  0.00    +0.000 C 
BRANCH  10  11
ATOM     11  C   UNL     1      -5.269   3.333   0.585  0.00  0.00    +0.000 A 
ATOM     12  C   UNL     1      -5.654   3.844  -0.661  0.00  0.00    +0.000 A 
ATOM     13  C   UNL     1      -6.221   5.118  -0.765  0.00  0.00    +0.000 A 
ATOM     14  C   UNL     1      -6.418   5.889   0.378  0.00  0.00    +0.000 A 
ATOM     15  C   UNL     1      -6.054   5.387   1.625  0.00  0.00    +0.000 A 
ATOM     16  C   UNL     1      -5.488   4.113   1.728  0.00  0.00    +0.000 A 
ENDBRANCH  10  11
ENDBRANCH   1   9
TORSDOF 3
