REMARK  Name = *****
REMARK  4 active torsions:
REMARK  status: ('A' for Active; 'I' for Inactive)
REMARK    1  A    between atoms: C_4  and  C_7
REMARK    2  A    between atoms: C_8  and  C_9
REMARK    3  A    between atoms: C_8  and  C_11
REMARK    4  A    between atoms: C_13  and  C_17
REMARK                            x       y       z     vdW  Elec       q    Type
REMARK                         _______ _______ _______ _____ _____    ______ ____
ROOT
ATOM      1  C   UNL     1      -2.738   0.384  -0.374  0.00  0.00    +0.000 C 
ATOM      2  C   UNL     1      -3.720  -0.510  -0.140  0.00  0.00    +0.000 C 
ENDROOT
BRANCH   1   6
ATOM      3  C   UNL     1       1.460  -0.210   0.136  0.00  0.00    +0.000 A 
ATOM      4  C   UNL     1       0.752  -1.020  -0.751  0.00  0.00    +0.000 A 
ATOM      5  C   UNL     1      -0.621  -0.837  -0.923  0.00  0.00    +0.000 A 
ATOM      6  C   UNL     1      -1.298   0.152  -0.199  0.00  0.00    +0.000 A 
ATOM      7  C   UNL     1      -0.578   0.970   0.680  0.00  0.00    +0.000 A 
ATOM      8  C   UNL     1       0.796   0.786   0.850  0.00  0.00    +0.000 A 
ENDBRANCH   1   6
BRANCH   2   9
ATOM      9  C   UNL     1      -5.121  -0.091  -0.356  0.00  0.00    +0.000 A 
ATOM     10  C   UNL     1      -6.038  -0.106   0.707  0.00  0.00    +0.000 A 
ATOM     11  C   UNL     1      -7.376   0.282   0.514  0.00  0.00    +0.000 A 
ATOM     12  C   UNL     1      -7.784   0.700  -0.761  0.00  0.00    +0.000 A 
ATOM     13  C   UNL     1      -6.882   0.714  -1.824  0.00  0.00    +0.000 A 
ATOM     14  C   UNL     1      -5.559   0.319  -1.623  0.00  0.00    +0.000 A 
BRANCH  11  15
ATOM     15  C   UNL     1      -8.349   0.293   1.668  0.00  0.00    +0.000 C 
ATOM     16  F   UNL     1      -8.023  -0.590   2.653  0.00  0.00    +0.000 F 
ATOM     17  F   UNL     1      -8.421   1.513   2.268  0.00  0.00    +0.000 F 
ATOM     18  F   UNL     1      -9.621  -0.018   1.295  0.00  0.00    +0.000 F 
ENDBRANCH  11  15
ENDBRANCH   2   9
BRANCH   2  19
ATOM     19  C   UNL     1      -3.466  -1.831   0.348  0.00  0.00    +0.000 C 
ATOM     20  N   UNL     1      -3.282  -2.908   0.741  0.00  0.00    +0.000 NA
ENDBRANCH   2  19
TORSDOF 4
