REMARK  Name = *****
REMARK  2 active torsions:
REMARK  status: ('A' for Active; 'I' for Inactive)
REMARK    1  A    between atoms: C_1  and  C_2
REMARK    2  A    between atoms: C_2  and  C_10
REMARK                            x       y       z     vdW  Elec       q    Type
REMARK                         _______ _______ _______ _____ _____    ______ ____
ROOT
ATOM      1  C   UNL     1       1.101  -0.135   0.232  0.00  0.00    +0.000 C 
ATOM      2  C   UNL     1       2.583  -0.037  -0.010  0.00  0.00    +0.000 C 
ATOM      3  C   UNL     1       3.223   1.077   0.235  0.00  0.00    +0.000 C 
ATOM      4  C   UNL     1       3.851   2.193   0.487  0.00  0.00    +0.000 C 
ATOM      5  C   UNL     1       3.435   3.524  -0.090  0.00  0.00    +0.000 C 
ATOM      6  C   UNL     1       3.774   4.683   0.848  0.00  0.00    +0.000 C 
ATOM      7  C   UNL     1       5.246   4.661   1.263  0.00  0.00    +0.000 C 
ATOM      8  C   UNL     1       5.716   3.285   1.633  0.00  0.00    +0.000 C 
ATOM      9  C   UNL     1       5.058   2.167   1.290  0.00  0.00    +0.000 C 
ENDROOT
BRANCH   2  10
ATOM     10  C   UNL     1       3.310  -1.249  -0.483  0.00  0.00    +0.000 A 
ATOM     11  C   UNL     1       2.751  -2.533  -0.373  0.00  0.00    +0.000 A 
ATOM     12  C   UNL     1       3.440  -3.667  -0.819  0.00  0.00    +0.000 A 
ATOM     13  C   UNL     1       4.704  -3.539  -1.385  0.00  0.00    +0.000 A 
ATOM     14  C   UNL     1       5.280  -2.279  -1.506  0.00  0.00    +0.000 A 
ATOM     15  C   UNL     1       4.590  -1.147  -1.059  0.00  0.00    +0.000 A 
ENDBRANCH   2  10
TORSDOF 1
