REMARK  Name = *****
REMARK  6 active torsions:
REMARK  status: ('A' for Active; 'I' for Inactive)
REMARK    1  A    between atoms: C_1  and  C_2
REMARK    2  A    between atoms: C_5  and  C_8
REMARK    3  A    between atoms: C_8  and  N_10
REMARK    4  A    between atoms: N_10  and  C_11
REMARK    5  A    between atoms: N_10  and  C_12
REMARK    6  A    between atoms: C_15  and  C_18
REMARK                            x       y       z     vdW  Elec       q    Type
REMARK                         _______ _______ _______ _____ _____    ______ ____
ROOT
ATOM      1  C   UNL     1      -3.020   0.345  -0.092  0.00  0.00    +0.000 C 
ATOM      2  C   UNL     1      -1.893   0.270   0.639  0.00  0.00    +0.000 C 
ENDROOT
BRANCH   1   7
ATOM      3  C   UNL     1      -3.917  -3.959  -3.895  0.00  0.00    +0.000 C 
ATOM      4  C   UNL     1      -3.655  -2.856  -2.913  0.00  0.00    +0.000 A 
ATOM      5  C   UNL     1      -3.539  -3.134  -1.547  0.00  0.00    +0.000 A 
ATOM      6  C   UNL     1      -3.332  -2.100  -0.628  0.00  0.00    +0.000 A 
ATOM      7  C   UNL     1      -3.246  -0.768  -1.057  0.00  0.00    +0.000 A 
ATOM      8  C   UNL     1      -3.380  -0.494  -2.425  0.00  0.00    +0.000 A 
ATOM      9  C   UNL     1      -3.588  -1.526  -3.344  0.00  0.00    +0.000 A 
ENDBRANCH   1   7
BRANCH   1  10
ATOM     10  N   UNL     1      -3.923   1.419  -0.094  0.00  0.00    +0.000 N 
ATOM     11  C   UNL     1      -3.656   2.663   0.641  0.00  0.00    +0.000 C 
BRANCH  10  12
ATOM     12  C   UNL     1      -5.328   1.227  -0.258  0.00  0.00    +0.000 A 
ATOM     13  C   UNL     1      -6.012   0.195   0.400  0.00  0.00    +0.000 A 
ATOM     14  C   UNL     1      -7.391   0.025   0.236  0.00  0.00    +0.000 A 
ATOM     15  C   UNL     1      -8.116   0.879  -0.600  0.00  0.00    +0.000 A 
ATOM     16  C   UNL     1      -7.446   1.920  -1.250  0.00  0.00    +0.000 A 
ATOM     17  C   UNL     1      -6.067   2.087  -1.084  0.00  0.00    +0.000 A 
ATOM     18  C   UNL     1      -9.599   0.717  -0.751  0.00  0.00    +0.000 C 
ENDBRANCH  10  12
ENDBRANCH   1  10
TORSDOF 3
