REMARK  Name = *****
REMARK  5 active torsions:
REMARK  status: ('A' for Active; 'I' for Inactive)
REMARK    1  A    between atoms: C_1  and  S_2
REMARK    2  A    between atoms: S_2  and  C_3
REMARK    3  A    between atoms: S_2  and  C_12
REMARK    4  A    between atoms: C_3  and  C_4
REMARK    5  A    between atoms: C_4  and  C_6
REMARK                            x       y       z     vdW  Elec       q    Type
REMARK                         _______ _______ _______ _____ _____    ______ ____
ROOT
ATOM      1  C   UNL     1       2.615   0.424  -2.041  0.00  0.00    +0.000 C 
ENDROOT
BRANCH   1   3
ATOM      2  C   UNL     1       2.162  -0.660   0.373  0.00  0.00    +0.000 C 
ATOM      3  S   UNL     1       3.560  -0.016  -0.579  0.00  0.00    +0.000 S 
BRANCH   3   4
ATOM      4  C   UNL     1       3.672   1.631   0.137  0.00  0.00    +0.000 A 
ATOM      5  C   UNL     1       2.581   2.499   0.256  0.00  0.00    +0.000 A 
ATOM      6  C   UNL     1       2.746   3.767   0.820  0.00  0.00    +0.000 A 
ATOM      7  C   UNL     1       4.001   4.176   1.268  0.00  0.00    +0.000 A 
ATOM      8  C   UNL     1       5.092   3.317   1.154  0.00  0.00    +0.000 A 
ATOM      9  C   UNL     1       4.927   2.050   0.590  0.00  0.00    +0.000 A 
ENDBRANCH   3   4
ENDBRANCH   1   3
BRANCH   1  10
ATOM     10  C   UNL     1       1.873  -0.604  -2.822  0.00  0.00    +0.000 C 
ATOM     11  O   UNL     1       0.723  -0.829  -2.474  0.00  0.00    +0.000 OA
BRANCH  10  12
ATOM     12  C   UNL     1       2.528  -1.278  -3.968  0.00  0.00    +0.000 A 
ATOM     13  C   UNL     1       3.853  -1.000  -4.325  0.00  0.00    +0.000 A 
ATOM     14  C   UNL     1       4.432  -1.654  -5.416  0.00  0.00    +0.000 A 
ATOM     15  C   UNL     1       3.693  -2.583  -6.148  0.00  0.00    +0.000 A 
ATOM     16  C   UNL     1       2.374  -2.864  -5.794  0.00  0.00    +0.000 A 
ATOM     17  C   UNL     1       1.791  -2.213  -4.705  0.00  0.00    +0.000 A 
ENDBRANCH  10  12
ENDBRANCH   1  10
TORSDOF 4
