REMARK  Name = *****
REMARK  2 active torsions:
REMARK  status: ('A' for Active; 'I' for Inactive)
REMARK    1  A    between atoms: C_5  and  N_7
REMARK    2  A    between atoms: C_8  and  C_9
REMARK                            x       y       z     vdW  Elec       q    Type
REMARK                         _______ _______ _______ _____ _____    ______ ____
ROOT
ATOM      1  N   UNL     1       0.811  -2.468  -0.178  0.00  0.00    +0.000 NA
ATOM      2  C   UNL     1       2.057  -2.552   0.164  0.00  0.00    +0.000 C 
ENDROOT
BRANCH   2   3
ATOM      3  C   UNL     1       2.806  -3.821   0.076  0.00  0.00    +0.000 A 
ATOM      4  C   UNL     1       4.124  -3.795  -0.407  0.00  0.00    +0.000 A 
ATOM      5  C   UNL     1       4.862  -4.979  -0.517  0.00  0.00    +0.000 A 
ATOM      6  C   UNL     1       4.297  -6.195  -0.142  0.00  0.00    +0.000 A 
ATOM      7  C   UNL     1       2.995  -6.228   0.353  0.00  0.00    +0.000 A 
ATOM      8  C   UNL     1       2.248  -5.048   0.469  0.00  0.00    +0.000 A 
ATOM      9 CL   UNL     1       0.681  -5.200   1.187  0.00  0.00    +0.000 Cl
ATOM     10 CL   UNL     1       4.905  -2.337  -0.918  0.00  0.00    +0.000 Cl
ENDBRANCH   2   3
BRANCH   1  15
ATOM     11  C   UNL     1      -1.673   0.110   0.754  0.00  0.00    +0.000 A 
ATOM     12  C   UNL     1      -1.161   1.251   0.136  0.00  0.00    +0.000 A 
ATOM     13  C   UNL     1       0.021   1.170  -0.598  0.00  0.00    +0.000 A 
ATOM     14  C   UNL     1       0.685  -0.051  -0.705  0.00  0.00    +0.000 A 
ATOM     15  C   UNL     1       0.195  -1.206  -0.078  0.00  0.00    +0.000 A 
ATOM     16  C   UNL     1      -1.000  -1.111   0.642  0.00  0.00    +0.000 A 
ATOM     17  F   UNL     1       1.820  -0.100  -1.421  0.00  0.00    +0.000 F 
ENDBRANCH   1  15
TORSDOF 2
