REMARK  Name = *****
REMARK  3 active torsions:
REMARK  status: ('A' for Active; 'I' for Inactive)
REMARK    1  A    between atoms: C_5  and  C_7
REMARK    2  A    between atoms: C_7  and  O_8
REMARK    3  A    between atoms: O_8  and  C_9
REMARK                            x       y       z     vdW  Elec       q    Type
REMARK                         _______ _______ _______ _____ _____    ______ ____
ROOT
ATOM      1  C   UNL     1      -2.818  -0.807   0.040  0.00  0.00    +0.000 C 
ENDROOT
BRANCH   1   6
ATOM      2  C   UNL     1       0.408   1.372   0.289  0.00  0.00    +0.000 C 
ATOM      3  C   UNL     1       1.375   0.424  -0.403  0.00  0.00    +0.000 C 
ATOM      4  C   UNL     1       1.120  -1.019   0.030  0.00  0.00    +0.000 C 
ATOM      5  C   UNL     1      -0.342  -1.378   0.078  0.00  0.00    +0.000 C 
ATOM      6  C   UNL     1      -1.341  -0.474   0.024  0.00  0.00    +0.000 C 
ATOM      7  C   UNL     1      -1.041   1.011  -0.043  0.00  0.00    +0.000 C 
ATOM      8 CL   UNL     1      -0.630  -3.084   0.204  0.00  0.00    +0.000 Cl
ENDBRANCH   1   6
BRANCH   1   9
ATOM      9  O   UNL     1      -3.416  -0.230  -1.123  0.00  0.00    +0.000 OA
BRANCH   9  10
ATOM     10  C   UNL     1      -4.772  -0.348  -1.254  0.00  0.00    +0.000 A 
ATOM     11  C   UNL     1      -5.628  -1.028  -0.386  0.00  0.00    +0.000 A 
ATOM     12  C   UNL     1      -7.003  -1.068  -0.644  0.00  0.00    +0.000 A 
ATOM     13  C   UNL     1      -7.520  -0.430  -1.769  0.00  0.00    +0.000 A 
ATOM     14  C   UNL     1      -6.675   0.248  -2.642  0.00  0.00    +0.000 A 
ATOM     15  C   UNL     1      -5.303   0.286  -2.382  0.00  0.00    +0.000 A 
ATOM     16 CL   UNL     1      -9.211  -0.481  -2.081  0.00  0.00    +0.000 Cl
ENDBRANCH   9  10
ENDBRANCH   1   9
TORSDOF 3
