REMARK  Name = *****
REMARK  2 active torsions:
REMARK  status: ('A' for Active; 'I' for Inactive)
REMARK    1  A    between atoms: C_9  and  C_10
REMARK    2  A    between atoms: C_10  and  C_11
REMARK                            x       y       z     vdW  Elec       q    Type
REMARK                         _______ _______ _______ _____ _____    ______ ____
ROOT
ATOM      1  C   UNL     1       2.426   0.147  -0.389  0.00  0.00    +0.000 C 
ATOM      2  C   UNL     1       1.557   1.336   0.045  0.00  0.00    +0.000 C 
ATOM      3  C   UNL     1       0.193   0.725   0.001  0.00  0.00    +0.000 A 
ATOM      4  C   UNL     1      -1.030   1.375  -0.010  0.00  0.00    +0.000 A 
ATOM      5  C   UNL     1      -2.192   0.600  -0.018  0.00  0.00    +0.000 A 
ATOM      6  C   UNL     1      -2.117  -0.802  -0.005  0.00  0.00    +0.000 A 
ATOM      7  C   UNL     1      -0.880  -1.448   0.020  0.00  0.00    +0.000 A 
ATOM      8  C   UNL     1       0.268  -0.672   0.023  0.00  0.00    +0.000 A 
ATOM      9  C   UNL     1       1.701  -1.137   0.077  0.00  0.00    +0.000 C 
ENDROOT
BRANCH   9  10
ATOM     10  C   UNL     1       2.085  -1.587   1.496  0.00  0.00    +0.000 C 
BRANCH  10  11
ATOM     11  C   UNL     1       3.499  -2.108   1.599  0.00  0.00    +0.000 A 
ATOM     12  C   UNL     1       4.469  -1.397   2.319  0.00  0.00    +0.000 A 
ATOM     13  C   UNL     1       5.776  -1.877   2.412  0.00  0.00    +0.000 A 
ATOM     14  C   UNL     1       6.127  -3.072   1.789  0.00  0.00    +0.000 A 
ATOM     15  C   UNL     1       5.171  -3.790   1.073  0.00  0.00    +0.000 A 
ATOM     16  C   UNL     1       3.863  -3.312   0.980  0.00  0.00    +0.000 A 
ENDBRANCH  10  11
ENDBRANCH   9  10
TORSDOF 2
