REMARK  Name = *****
REMARK  4 active torsions:
REMARK  status: ('A' for Active; 'I' for Inactive)
REMARK    1  A    between atoms: C_1  and  C_2
REMARK    2  A    between atoms: C_4  and  N_10
REMARK    3  A    between atoms: C_5  and  C_9
REMARK    4  A    between atoms: C_11  and  C_12
REMARK                            x       y       z     vdW  Elec       q    Type
REMARK                         _______ _______ _______ _____ _____    ______ ____
ROOT
ATOM      1  C   UNL     1       0.973  -0.105  -0.308  0.00  0.00    +0.000 C 
ATOM      2  C   UNL     1       2.470  -0.019  -0.217  0.00  0.00    +0.000 A 
ATOM      3  C   UNL     1       3.119   1.166  -0.601  0.00  0.00    +0.000 A 
ATOM      4  C   UNL     1       4.513   1.293  -0.529  0.00  0.00    +0.000 A 
ATOM      5  C   UNL     1       5.287   0.205  -0.097  0.00  0.00    +0.000 A 
ATOM      6  C   UNL     1       4.645  -0.980   0.292  0.00  0.00    +0.000 A 
ATOM      7  C   UNL     1       3.252  -1.090   0.234  0.00  0.00    +0.000 A 
ATOM      8 CL   UNL     1       2.538  -2.583   0.729  0.00  0.00    +0.000 Cl
ATOM      9  C   UNL     1       6.785   0.303  -0.040  0.00  0.00    +0.000 C 
ENDROOT
BRANCH   4  10
ATOM     10  N   UNL     1       5.115   2.495  -0.931  0.00  0.00    +0.000 NA
ATOM     11  C   UNL     1       5.166   3.431  -0.034  0.00  0.00    +0.000 C 
BRANCH  11  12
ATOM     12  C   UNL     1       5.772   4.747  -0.311  0.00  0.00    +0.000 A 
ATOM     13  C   UNL     1       6.334   5.028  -1.559  0.00  0.00    +0.000 A 
ATOM     14  C   UNL     1       6.903   6.280  -1.797  0.00  0.00    +0.000 A 
ATOM     15  C   UNL     1       6.909   7.247  -0.790  0.00  0.00    +0.000 A 
ATOM     16  C   UNL     1       6.346   6.964   0.456  0.00  0.00    +0.000 A 
ATOM     17  C   UNL     1       5.777   5.713   0.699  0.00  0.00    +0.000 A 
ENDBRANCH  11  12
ENDBRANCH   4  10
TORSDOF 2
