REMARK  Name = *****
REMARK  2 active torsions:
REMARK  status: ('A' for Active; 'I' for Inactive)
REMARK    1  A    between atoms: C_8  and  P_9
REMARK    2  A    between atoms: C_8  and  C_10
REMARK                            x       y       z     vdW  Elec       q    Type
REMARK                         _______ _______ _______ _____ _____    ______ ____
ROOT
ATOM      1  C   UNL     1       0.658   0.071  -0.013  0.00  0.00    +0.000 C 
ATOM      2  C   UNL     1       0.050  -0.040  -1.263  0.00  0.00    +0.000 C 
ATOM      3  C   UNL     1      -1.340  -0.145  -1.358  0.00  0.00    +0.000 C 
ATOM      4  C   UNL     1      -2.126  -0.148  -0.202  0.00  0.00    +0.000 C 
ATOM      5  C   UNL     1      -1.511  -0.017   1.047  0.00  0.00    +0.000 C 
ATOM      6  C   UNL     1      -0.122   0.088   1.142  0.00  0.00    +0.000 C 
ATOM      7  C   UNL     1      -3.561  -0.296  -0.278  0.00  0.00    +0.000 C 
ATOM      8  C   UNL     1      -4.815  -0.680  -0.360  0.00  0.00    +0.000 C 
ENDROOT
BRANCH   8   9
ATOM      9  C   UNL     1      -6.143  -1.228  -0.455  0.00  0.00    +0.000 A 
ATOM     10  C   UNL     1      -6.925  -1.338   0.699  0.00  0.00    +0.000 A 
ATOM     11  C   UNL     1      -8.195  -1.916   0.637  0.00  0.00    +0.000 A 
ATOM     12  C   UNL     1      -8.693  -2.374  -0.582  0.00  0.00    +0.000 A 
ATOM     13  C   UNL     1      -7.929  -2.245  -1.741  0.00  0.00    +0.000 A 
ATOM     14  C   UNL     1      -6.658  -1.670  -1.679  0.00  0.00    +0.000 A 
ENDBRANCH   8   9
BRANCH   8  15
ATOM     15  P   UNL     1      -3.799  -2.106  -0.346  0.00  0.00    +0.000 P 
ATOM     16  H   UNL     1      -3.670  -2.913   0.767  0.00  0.00    +0.000 HD
ATOM     17  H   UNL     1      -3.477  -3.214  -1.103  0.00  0.00    +0.000 HD
ENDBRANCH   8  15
TORSDOF 2
