REMARK  Name = *****
REMARK  4 active torsions:
REMARK  status: ('A' for Active; 'I' for Inactive)
REMARK    1  A    between atoms: C_1  and  S_2
REMARK    2  A    between atoms: S_2  and  C_3
REMARK    3  A    between atoms: S_2  and  C_10
REMARK    4  A    between atoms: C_3  and  C_4
REMARK                            x       y       z     vdW  Elec       q    Type
REMARK                         _______ _______ _______ _____ _____    ______ ____
ROOT
ATOM      1  C   UNL     1       0.984   0.041  -0.023  0.00  0.00    +0.000 C 
ATOM      2  S   UNL     1       2.764  -0.236   0.125  0.00  0.00    +0.000 S 
ENDROOT
BRANCH   2   3
ATOM      3  C   UNL     1       3.350   1.393   0.646  0.00  0.00    +0.000 A 
ATOM      4  C   UNL     1       2.532   2.324   1.293  0.00  0.00    +0.000 A 
ATOM      5  C   UNL     1       3.044   3.560   1.700  0.00  0.00    +0.000 A 
ATOM      6  C   UNL     1       4.384   3.870   1.482  0.00  0.00    +0.000 A 
ATOM      7  C   UNL     1       5.217   2.939   0.869  0.00  0.00    +0.000 A 
ATOM      8  C   UNL     1       4.704   1.704   0.464  0.00  0.00    +0.000 A 
ENDBRANCH   2   3
BRANCH   2   9
ATOM      9  C   UNL     1       3.134  -0.086  -1.661  0.00  0.00    +0.000 C 
BRANCH   9  10
ATOM     10  C   UNL     1       2.611  -1.250  -2.466  0.00  0.00    +0.000 A 
ATOM     11  C   UNL     1       1.631  -1.051  -3.449  0.00  0.00    +0.000 A 
ATOM     12  C   UNL     1       1.154  -2.126  -4.202  0.00  0.00    +0.000 A 
ATOM     13  C   UNL     1       1.652  -3.409  -3.982  0.00  0.00    +0.000 A 
ATOM     14  C   UNL     1       2.629  -3.618  -3.011  0.00  0.00    +0.000 A 
ATOM     15  C   UNL     1       3.108  -2.545  -2.258  0.00  0.00    +0.000 A 
ENDBRANCH   9  10
ENDBRANCH   2   9
TORSDOF 3
