REMARK  Name = *****
REMARK  2 active torsions:
REMARK  status: ('A' for Active; 'I' for Inactive)
REMARK    1  A    between atoms: C_8  and  C_9
REMARK    2  A    between atoms: C_10  and  C_11
REMARK                            x       y       z     vdW  Elec       q    Type
REMARK                         _______ _______ _______ _____ _____    ______ ____
ROOT
ATOM      1  C   UNL     1      -0.404  -0.966   0.583  0.00  0.00    +0.000 C 
ATOM      2  C   UNL     1      -1.086  -1.990   0.044  0.00  0.00    +0.000 C 
ENDROOT
BRANCH   1  10
ATOM      3  C   UNL     1       3.878  -0.484   0.560  0.00  0.00    +0.000 C 
ATOM      4  C   UNL     1       3.338  -0.865  -0.833  0.00  0.00    +0.000 C 
ATOM      5  C   UNL     1       3.873   0.355  -1.571  0.00  0.00    +0.000 C 
ATOM      6  C   UNL     1       3.756   1.403  -0.732  0.00  0.00    +0.000 C 
ATOM      7  C   UNL     1       3.144   0.871   0.558  0.00  0.00    +0.000 C 
ATOM      8  C   UNL     1       1.687   0.473   0.277  0.00  0.00    +0.000 C 
ATOM      9  C   UNL     1       1.818  -0.704  -0.668  0.00  0.00    +0.000 C 
ATOM     10  C   UNL     1       1.061  -0.860   0.636  0.00  0.00    +0.000 C 
ENDBRANCH   1  10
BRANCH   2  11
ATOM     11  C   UNL     1      -2.551  -2.076  -0.001  0.00  0.00    +0.000 A 
ATOM     12  C   UNL     1      -3.353  -1.692   1.082  0.00  0.00    +0.000 A 
ATOM     13  C   UNL     1      -4.741  -1.820   1.005  0.00  0.00    +0.000 A 
ATOM     14  C   UNL     1      -5.345  -2.337  -0.139  0.00  0.00    +0.000 A 
ATOM     15  C   UNL     1      -4.553  -2.735  -1.214  0.00  0.00    +0.000 A 
ATOM     16  C   UNL     1      -3.163  -2.611  -1.142  0.00  0.00    +0.000 A 
ATOM     17 BR   UNL     1      -5.813  -1.293   2.472  0.00  0.00    +0.000 Br
ENDBRANCH   2  11
TORSDOF 2
