REMARK  Name = *****
REMARK  5 active torsions:
REMARK  status: ('A' for Active; 'I' for Inactive)
REMARK    1  A    between atoms: C_1  and  C_2
REMARK    2  A    between atoms: C_4  and  C_17
REMARK    3  A    between atoms: C_6  and  C_8
REMARK    4  A    between atoms: C_8  and  O_10
REMARK    5  A    between atoms: O_10  and  C_11
REMARK                            x       y       z     vdW  Elec       q    Type
REMARK                         _______ _______ _______ _____ _____    ______ ____
ROOT
ATOM      1  C   UNL     1      -2.592   0.876   0.323  0.00  0.00    +0.000 C 
ATOM      2  O   UNL     1      -2.683   2.088   0.448  0.00  0.00    +0.000 OA
ENDROOT
BRANCH   1   8
ATOM      3  C   UNL     1       2.372   1.193  -0.116  0.00  0.00    +0.000 C 
ATOM      4  C   UNL     1       1.135   0.348  -0.027  0.00  0.00    +0.000 A 
ATOM      5  C   UNL     1       1.214  -1.044  -0.155  0.00  0.00    +0.000 A 
ATOM      6  C   UNL     1       0.062  -1.839  -0.097  0.00  0.00    +0.000 A 
ATOM      7  C   UNL     1      -1.189  -1.224   0.053  0.00  0.00    +0.000 A 
ATOM      8  C   UNL     1      -1.288   0.171   0.164  0.00  0.00    +0.000 A 
ATOM      9  C   UNL     1      -0.122   0.949   0.122  0.00  0.00    +0.000 A 
ATOM     10  C   UNL     1       0.157  -3.328  -0.259  0.00  0.00    +0.000 C 
ENDBRANCH   1   8
BRANCH   1  11
ATOM     11  O   UNL     1      -3.624  -0.043   0.297  0.00  0.00    +0.000 OA
BRANCH  11  12
ATOM     12  C   UNL     1      -4.897   0.517   0.445  0.00  0.00    +0.000 A 
ATOM     13  C   UNL     1      -5.748   0.514  -0.657  0.00  0.00    +0.000 A 
ATOM     14  C   UNL     1      -7.043   1.013  -0.519  0.00  0.00    +0.000 A 
ATOM     15  C   UNL     1      -7.477   1.495   0.718  0.00  0.00    +0.000 A 
ATOM     16  C   UNL     1      -6.620   1.475   1.822  0.00  0.00    +0.000 A 
ATOM     17  C   UNL     1      -5.325   0.976   1.690  0.00  0.00    +0.000 A 
ENDBRANCH  11  12
ENDBRANCH   1  11
TORSDOF 3
