REMARK  Name = *****
REMARK  3 active torsions:
REMARK  status: ('A' for Active; 'I' for Inactive)
REMARK    1  A    between atoms: C_1  and  C_2
REMARK    2  A    between atoms: C_4  and  C_8
REMARK    3  A    between atoms: N_10  and  C_11
REMARK                            x       y       z     vdW  Elec       q    Type
REMARK                         _______ _______ _______ _____ _____    ______ ____
ROOT
ATOM      1  C   UNL     1      -2.125   2.339  -0.089  0.00  0.00    +0.000 C 
ATOM      2  O   UNL     1      -3.333   2.137  -0.100  0.00  0.00    +0.000 OA
ATOM      3  N   UNL     1      -1.493   3.567  -0.116  0.00  0.00    +0.000 N 
ATOM      4  H   UNL     1      -0.510   3.546  -0.162  0.00  0.00    +0.000 HD
ENDROOT
BRANCH   1   8
ATOM      5  C   UNL     1       2.161   0.070   1.318  0.00  0.00    +0.000 C 
ATOM      6  C   UNL     1       0.865   0.066   0.561  0.00  0.00    +0.000 A 
ATOM      7  C   UNL     1       0.020   1.185   0.591  0.00  0.00    +0.000 A 
ATOM      8  C   UNL     1      -1.207   1.164  -0.090  0.00  0.00    +0.000 A 
ATOM      9  C   UNL     1      -1.606   0.007  -0.767  0.00  0.00    +0.000 A 
ATOM     10  C   UNL     1      -0.775  -1.113  -0.787  0.00  0.00    +0.000 A 
ATOM     11  C   UNL     1       0.453  -1.083  -0.126  0.00  0.00    +0.000 A 
ENDBRANCH   1   8
BRANCH   3  12
ATOM     12  C   UNL     1      -2.086   4.852  -0.086  0.00  0.00    +0.000 A 
ATOM     13  C   UNL     1      -3.460   5.061   0.058  0.00  0.00    +0.000 A 
ATOM     14  C   UNL     1      -3.984   6.359   0.085  0.00  0.00    +0.000 A 
ATOM     15  C   UNL     1      -3.143   7.463  -0.030  0.00  0.00    +0.000 A 
ATOM     16  C   UNL     1      -1.770   7.274  -0.170  0.00  0.00    +0.000 A 
ATOM     17  C   UNL     1      -1.247   5.978  -0.196  0.00  0.00    +0.000 A 
ATOM     18 CL   UNL     1       0.469   5.797  -0.366  0.00  0.00    +0.000 Cl
ENDBRANCH   3  12
TORSDOF 2
