REMARK  Name = *****
REMARK  4 active torsions:
REMARK  status: ('A' for Active; 'I' for Inactive)
REMARK    1  A    between atoms: C_1  and  C_2
REMARK    2  A    between atoms: C_5  and  C_8
REMARK    3  A    between atoms: C_9  and  C_10
REMARK    4  A    between atoms: C_9  and  C_12
REMARK                            x       y       z     vdW  Elec       q    Type
REMARK                         _______ _______ _______ _____ _____    ______ ____
ROOT
ATOM      1  C   UNL     1      -3.222   0.184  -0.145  0.00  0.00    +0.000 C 
ATOM      2  C   UNL     1      -3.948   1.283   0.146  0.00  0.00    +0.000 C 
ENDROOT
BRANCH   1   7
ATOM      3  C   UNL     1       2.539  -0.222   0.076  0.00  0.00    +0.000 C 
ATOM      4  C   UNL     1       1.042  -0.139   0.035  0.00  0.00    +0.000 A 
ATOM      5  C   UNL     1       0.302   0.053   1.206  0.00  0.00    +0.000 A 
ATOM      6  C   UNL     1      -1.091   0.158   1.156  0.00  0.00    +0.000 A 
ATOM      7  C   UNL     1      -1.760   0.087  -0.070  0.00  0.00    +0.000 A 
ATOM      8  C   UNL     1      -1.023  -0.104  -1.243  0.00  0.00    +0.000 A 
ATOM      9  C   UNL     1       0.369  -0.210  -1.191  0.00  0.00    +0.000 A 
ENDBRANCH   1   7
BRANCH   2  10
ATOM     10  C   UNL     1      -5.420   1.220   0.011  0.00  0.00    +0.000 A 
ATOM     11  C   UNL     1      -6.166   0.253   0.705  0.00  0.00    +0.000 A 
ATOM     12  C   UNL     1      -7.557   0.205   0.583  0.00  0.00    +0.000 A 
ATOM     13  C   UNL     1      -8.218   1.124  -0.230  0.00  0.00    +0.000 A 
ATOM     14  C   UNL     1      -7.491   2.092  -0.920  0.00  0.00    +0.000 A 
ATOM     15  C   UNL     1      -6.100   2.142  -0.799  0.00  0.00    +0.000 A 
ENDBRANCH   2  10
BRANCH   2  16
ATOM     16  C   UNL     1      -3.345   2.520   0.541  0.00  0.00    +0.000 C 
ATOM     17  N   UNL     1      -2.874   3.532   0.860  0.00  0.00    +0.000 NA
ENDBRANCH   2  16
TORSDOF 3
