REMARK  Name = *****
REMARK  1 active torsions:
REMARK  status: ('A' for Active; 'I' for Inactive)
REMARK    1  A    between atoms: C_8  and  C_12
REMARK                            x       y       z     vdW  Elec       q    Type
REMARK                         _______ _______ _______ _____ _____    ______ ____
ROOT
ATOM      1  C   UNL     1      -2.452  -0.755  -0.003  0.00  0.00    +0.000 A 
ATOM      2  C   UNL     1      -2.529   0.632   0.055  0.00  0.00    +0.000 A 
ATOM      3  C   UNL     1      -1.359   1.389   0.074  0.00  0.00    +0.000 A 
ATOM      4  C   UNL     1      -0.098   0.765   0.035  0.00  0.00    +0.000 A 
ATOM      5  C   UNL     1      -0.017  -0.632  -0.022  0.00  0.00    +0.000 A 
ATOM      6  C   UNL     1      -1.205  -1.383  -0.041  0.00  0.00    +0.000 A 
ATOM      7  C   UNL     1       1.256  -1.352  -0.060  0.00  0.00    +0.000 A 
ATOM      8  C   UNL     1       2.453  -0.754  -0.073  0.00  0.00    +0.000 A 
ATOM      9  S   UNL     1       2.707   0.944  -0.049  0.00  0.00    +0.000 S 
ATOM     10  C   UNL     1       1.102   1.637   0.060  0.00  0.00    +0.000 A 
ATOM     11  O   UNL     1       0.976   2.853   0.150  0.00  0.00    +0.000 OA
ENDROOT
BRANCH   8  12
ATOM     12  C   UNL     1       3.672  -1.574  -0.116  0.00  0.00    +0.000 A 
ATOM     13  C   UNL     1       4.223  -1.960  -1.347  0.00  0.00    +0.000 A 
ATOM     14  C   UNL     1       5.369  -2.758  -1.387  0.00  0.00    +0.000 A 
ATOM     15  C   UNL     1       5.964  -3.176  -0.198  0.00  0.00    +0.000 A 
ATOM     16  C   UNL     1       5.424  -2.804   1.031  0.00  0.00    +0.000 A 
ATOM     17  C   UNL     1       4.278  -2.005   1.073  0.00  0.00    +0.000 A 
ATOM     18 CL   UNL     1       7.374  -4.161  -0.249  0.00  0.00    +0.000 Cl
ENDBRANCH   8  12
TORSDOF 1
