REMARK  Name = *****
REMARK  3 active torsions:
REMARK  status: ('A' for Active; 'I' for Inactive)
REMARK    1  A    between atoms: N_2  and  C_3
REMARK    2  A    between atoms: C_7  and  C_9
REMARK    3  A    between atoms: C_10  and  C_11
REMARK                            x       y       z     vdW  Elec       q    Type
REMARK                         _______ _______ _______ _____ _____    ______ ____
ROOT
ATOM      1  C   UNL     1      -0.333  -0.081  -0.700  0.00  0.00    +0.000 A 
ATOM      2  C   UNL     1       0.120  -1.219  -0.037  0.00  0.00    +0.000 A 
ATOM      3  C   UNL     1       1.321  -1.157   0.663  0.00  0.00    +0.000 A 
ATOM      4  C   UNL     1       2.056   0.034   0.689  0.00  0.00    +0.000 A 
ATOM      5  C   UNL     1       1.605   1.175   0.005  0.00  0.00    +0.000 A 
ATOM      6  C   UNL     1       0.388   1.112  -0.683  0.00  0.00    +0.000 A 
ENDROOT
BRANCH   1   8
ATOM      7  C   UNL     1      -2.551  -0.181  -1.975  0.00  0.00    +0.000 C 
ATOM      8  N   UNL     1      -1.535  -0.136  -1.392  0.00  0.00    +0.000 NA
ENDBRANCH   1   8
BRANCH   5   9
ATOM      9  C   UNL     1       2.337   2.449   0.040  0.00  0.00    +0.000 C 
ATOM     10  C   UNL     1       3.676   2.542  -0.003  0.00  0.00    +0.000 C 
BRANCH  10  11
ATOM     11  C   UNL     1       4.406   3.818   0.013  0.00  0.00    +0.000 A 
ATOM     12  C   UNL     1       4.011   4.896   0.816  0.00  0.00    +0.000 A 
ATOM     13  C   UNL     1       4.749   6.082   0.827  0.00  0.00    +0.000 A 
ATOM     14  C   UNL     1       5.897   6.198   0.045  0.00  0.00    +0.000 A 
ATOM     15  C   UNL     1       6.309   5.127  -0.745  0.00  0.00    +0.000 A 
ATOM     16  C   UNL     1       5.571   3.941  -0.756  0.00  0.00    +0.000 A 
ENDBRANCH  10  11
ENDBRANCH   5   9
TORSDOF 3
