REMARK  Name = *****
REMARK  3 active torsions:
REMARK  status: ('A' for Active; 'I' for Inactive)
REMARK    1  A    between atoms: N_4  and  C_6
REMARK    2  A    between atoms: C_6  and  C_8
REMARK    3  A    between atoms: C_8  and  C_9
REMARK                            x       y       z     vdW  Elec       q    Type
REMARK                         _______ _______ _______ _____ _____    ______ ____
ROOT
ATOM      1  C   UNL     1      -3.530   0.400   0.767  0.00  0.00    +0.000 C 
ENDROOT
BRANCH   1   2
ATOM      2  C   UNL     1      -4.036   0.244  -0.654  0.00  0.00    +0.000 A 
ATOM      3  C   UNL     1      -4.501  -1.004  -1.099  0.00  0.00    +0.000 A 
ATOM      4  C   UNL     1      -4.990  -1.160  -2.398  0.00  0.00    +0.000 A 
ATOM      5  C   UNL     1      -5.030  -0.066  -3.258  0.00  0.00    +0.000 A 
ATOM      6  C   UNL     1      -4.592   1.184  -2.827  0.00  0.00    +0.000 A 
ATOM      7  C   UNL     1      -4.103   1.340  -1.528  0.00  0.00    +0.000 A 
ATOM      8 CL   UNL     1      -5.632  -0.258  -4.858  0.00  0.00    +0.000 Cl
ENDBRANCH   1   2
BRANCH   1   9
ATOM      9  C   UNL     1      -2.182   1.121   0.891  0.00  0.00    +0.000 C 
ATOM     10  S   UNL     1      -2.158   2.651   1.610  0.00  0.00    +0.000 S 
BRANCH   9  14
ATOM     11  C   UNL     1       1.149   0.079  -0.369  0.00  0.00    +0.000 C 
ATOM     12  C   UNL     1       0.461  -1.258  -0.143  0.00  0.00    +0.000 C 
ATOM     13  C   UNL     1      -1.012  -0.876  -0.134  0.00  0.00    +0.000 C 
ATOM     14  N   UNL     1      -1.045   0.468   0.438  0.00  0.00    +0.000 N 
ATOM     15  C   UNL     1       0.305   1.037   0.459  0.00  0.00    +0.000 C 
ENDBRANCH   9  14
ENDBRANCH   1   9
TORSDOF 3
