REMARK  Name = *****
REMARK  3 active torsions:
REMARK  status: ('A' for Active; 'I' for Inactive)
REMARK    1  A    between atoms: C_3  and  C_16
REMARK    2  A    between atoms: C_6  and  C_7
REMARK    3  A    between atoms: C_8  and  C_9
REMARK                            x       y       z     vdW  Elec       q    Type
REMARK                         _______ _______ _______ _____ _____    ______ ____
ROOT
ATOM      1  C   UNL     1       1.802   2.209  -0.364  0.00  0.00    +0.000 C 
ATOM      2  C   UNL     1       3.139   2.101  -0.417  0.00  0.00    +0.000 C 
ENDROOT
BRANCH   2   3
ATOM      3  C   UNL     1       4.047   3.243  -0.592  0.00  0.00    +0.000 A 
ATOM      4  C   UNL     1       3.825   4.479   0.032  0.00  0.00    +0.000 A 
ATOM      5  C   UNL     1       4.728   5.533  -0.136  0.00  0.00    +0.000 A 
ATOM      6  C   UNL     1       5.865   5.353  -0.921  0.00  0.00    +0.000 A 
ATOM      7  C   UNL     1       6.109   4.127  -1.534  0.00  0.00    +0.000 A 
ATOM      8  C   UNL     1       5.205   3.074  -1.364  0.00  0.00    +0.000 A 
ATOM      9 CL   UNL     1       6.976   6.650  -1.128  0.00  0.00    +0.000 Cl
ENDBRANCH   2   3
BRANCH   1  15
ATOM     10  C   UNL     1       1.107  -0.156  -0.854  0.00  0.00    +0.000 A 
ATOM     11  C   UNL     1       0.209  -1.215  -0.693  0.00  0.00    +0.000 A 
ATOM     12  C   UNL     1      -0.912  -1.056   0.124  0.00  0.00    +0.000 A 
ATOM     13  C   UNL     1      -1.142   0.156   0.776  0.00  0.00    +0.000 A 
ATOM     14  C   UNL     1      -0.241   1.213   0.610  0.00  0.00    +0.000 A 
ATOM     15  C   UNL     1       0.898   1.063  -0.194  0.00  0.00    +0.000 A 
BRANCH  12  16
ATOM     16  C   UNL     1      -1.867  -2.168   0.299  0.00  0.00    +0.000 C 
ATOM     17  O   UNL     1      -1.715  -3.252  -0.251  0.00  0.00    +0.000 OA
ENDBRANCH  12  16
ENDBRANCH   1  15
TORSDOF 3
