REMARK  Name = *****
REMARK  3 active torsions:
REMARK  status: ('A' for Active; 'I' for Inactive)
REMARK    1  A    between atoms: C_1  and  C_2
REMARK    2  A    between atoms: C_1  and  S_8
REMARK    3  A    between atoms: S_8  and  C_9
REMARK                            x       y       z     vdW  Elec       q    Type
REMARK                         _______ _______ _______ _____ _____    ______ ____
ROOT
ATOM      1  C   UNL     1       2.509  -0.058   0.037  0.00  0.00    +0.000 C 
ENDROOT
BRANCH   1   2
ATOM      2  C   UNL     1       2.610   1.328   0.624  0.00  0.00    +0.000 A 
ATOM      3  C   UNL     1       3.848   1.985   0.692  0.00  0.00    +0.000 A 
ATOM      4  C   UNL     1       3.941   3.264   1.243  0.00  0.00    +0.000 A 
ATOM      5  C   UNL     1       2.801   3.897   1.735  0.00  0.00    +0.000 A 
ATOM      6  C   UNL     1       1.568   3.251   1.681  0.00  0.00    +0.000 A 
ATOM      7  C   UNL     1       1.472   1.971   1.131  0.00  0.00    +0.000 A 
ENDBRANCH   1   2
BRANCH   1   8
ATOM      8  S   UNL     1       2.818  -1.340   1.297  0.00  0.00    +0.000 S 
BRANCH   8   9
ATOM      9  C   UNL     1       2.418  -2.796   0.350  0.00  0.00    +0.000 A 
ATOM     10  C   UNL     1       3.111  -3.122  -0.820  0.00  0.00    +0.000 A 
ATOM     11  C   UNL     1       2.782  -4.274  -1.538  0.00  0.00    +0.000 A 
ATOM     12  C   UNL     1       1.764  -5.111  -1.084  0.00  0.00    +0.000 A 
ATOM     13  C   UNL     1       1.079  -4.801   0.089  0.00  0.00    +0.000 A 
ATOM     14  C   UNL     1       1.409  -3.649   0.807  0.00  0.00    +0.000 A 
ENDBRANCH   8   9
ENDBRANCH   1   8
TORSDOF 3
