REMARK  Name = *****
REMARK  4 active torsions:
REMARK  status: ('A' for Active; 'I' for Inactive)
REMARK    1  A    between atoms: C_1  and  C_2
REMARK    2  A    between atoms: C_4  and  N_8
REMARK    3  A    between atoms: N_8  and  C_9
REMARK    4  A    between atoms: C_10  and  C_12
REMARK                            x       y       z     vdW  Elec       q    Type
REMARK                         _______ _______ _______ _____ _____    ______ ____
ROOT
ATOM      1  N   UNL     1      -1.775   2.574  -0.217  0.00  0.00    +0.000 N 
ATOM      2  C   UNL     1      -3.232   2.515  -0.370  0.00  0.00    +0.000 C 
ATOM      3  C   UNL     1      -1.094   3.819  -0.181  0.00  0.00    +0.000 C 
ATOM      4  O   UNL     1       0.129   3.937  -0.163  0.00  0.00    +0.000 OA
ENDROOT
BRANCH   1   8
ATOM      5  C   UNL     1       2.366  -0.217  -0.741  0.00  0.00    +0.000 C 
ATOM      6  C   UNL     1       0.929  -0.084  -0.328  0.00  0.00    +0.000 A 
ATOM      7  C   UNL     1       0.269   1.153  -0.447  0.00  0.00    +0.000 A 
ATOM      8  C   UNL     1      -1.083   1.309  -0.105  0.00  0.00    +0.000 A 
ATOM      9  C   UNL     1      -1.764   0.165   0.348  0.00  0.00    +0.000 A 
ATOM     10  C   UNL     1      -1.123  -1.074   0.457  0.00  0.00    +0.000 A 
ATOM     11  C   UNL     1       0.218  -1.199   0.116  0.00  0.00    +0.000 A 
ENDBRANCH   1   8
BRANCH   3  12
ATOM     12  C   UNL     1      -1.920   5.019  -0.101  0.00  0.00    +0.000 A 
ATOM     13  C   UNL     1      -2.806   5.407   0.890  0.00  0.00    +0.000 A 
ATOM     14  C   UNL     1      -3.402   6.673   0.612  0.00  0.00    +0.000 A 
ATOM     15  C   UNL     1      -2.926   7.195  -0.564  0.00  0.00    +0.000 A 
ATOM     16  S   UNL     1      -1.784   6.209  -1.329  0.00  0.00    +0.000 S 
ATOM     17 CL   UNL     1      -3.370   8.695  -1.272  0.00  0.00    +0.000 Cl
ENDBRANCH   3  12
TORSDOF 2
