REMARK  Name = *****
REMARK  3 active torsions:
REMARK  status: ('A' for Active; 'I' for Inactive)
REMARK    1  A    between atoms: C_4  and  C_7
REMARK    2  A    between atoms: C_8  and  C_9
REMARK    3  A    between atoms: C_11  and  C_15
REMARK                            x       y       z     vdW  Elec       q    Type
REMARK                         _______ _______ _______ _____ _____    ______ ____
ROOT
ATOM      1  C   UNL     1      -1.559  -5.376  -0.098  0.00  0.00    +0.000 A 
ATOM      2  C   UNL     1      -0.642  -6.371   0.251  0.00  0.00    +0.000 A 
ATOM      3  C   UNL     1      -1.019  -7.725   0.237  0.00  0.00    +0.000 A 
ATOM      4  C   UNL     1      -2.327  -8.061  -0.147  0.00  0.00    +0.000 A 
ATOM      5  C   UNL     1      -3.242  -7.066  -0.496  0.00  0.00    +0.000 A 
ATOM      6  C   UNL     1      -2.858  -5.725  -0.470  0.00  0.00    +0.000 A 
ENDROOT
BRANCH   3   7
ATOM      7  C   UNL     1      -0.025  -8.802   0.591  0.00  0.00    +0.000 C 
ATOM      8  F   UNL     1       0.965  -8.370   1.421  0.00  0.00    +0.000 F 
ATOM      9  F   UNL     1      -0.596  -9.868   1.219  0.00  0.00    +0.000 F 
ATOM     10  F   UNL     1       0.602  -9.308  -0.507  0.00  0.00    +0.000 F 
ENDBRANCH   3   7
BRANCH   1  12
ATOM     11  C   UNL     1      -0.834  -2.847  -0.055  0.00  0.00    +0.000 C 
ATOM     12  C   UNL     1      -1.165  -4.002  -0.076  0.00  0.00    +0.000 C 
BRANCH  11  16
ATOM     13  C   UNL     1       0.360   1.264   0.357  0.00  0.00    +0.000 C 
ATOM     14  C   UNL     1       1.357   0.305  -0.285  0.00  0.00    +0.000 C 
ATOM     15  C   UNL     1       1.034  -1.148   0.076  0.00  0.00    +0.000 C 
ATOM     16  C   UNL     1      -0.435  -1.477  -0.030  0.00  0.00    +0.000 C 
ATOM     17  C   UNL     1      -1.374  -0.519  -0.117  0.00  0.00    +0.000 C 
ATOM     18  C   UNL     1      -1.069   0.950  -0.086  0.00  0.00    +0.000 C 
ENDBRANCH  11  16
ENDBRANCH   1  12
TORSDOF 3
