REMARK  Name = *****
REMARK  5 active torsions:
REMARK  status: ('A' for Active; 'I' for Inactive)
REMARK    1  A    between atoms: C_1  and  C_2
REMARK    2  A    between atoms: C_5  and  P_8
REMARK    3  A    between atoms: P_8  and  P_9
REMARK    4  A    between atoms: P_9  and  C_10
REMARK    5  A    between atoms: C_13  and  C_16
REMARK                            x       y       z     vdW  Elec       q    Type
REMARK                         _______ _______ _______ _____ _____    ______ ____
ROOT
ATOM      1  P   UNL     1      -3.587   0.053  -0.358  0.00  0.00    +0.000 P 
ATOM      2  H   UNL     1      -4.126  -0.915   0.465  0.00  0.00    +0.000 HD
ENDROOT
BRANCH   1   7
ATOM      3  C   UNL     1       2.497   0.547   0.319  0.00  0.00    +0.000 C 
ATOM      4  C   UNL     1       1.008   0.450   0.165  0.00  0.00    +0.000 A 
ATOM      5  C   UNL     1       0.210   0.026   1.233  0.00  0.00    +0.000 A 
ATOM      6  C   UNL     1      -1.175  -0.094   1.081  0.00  0.00    +0.000 A 
ATOM      7  C   UNL     1      -1.786   0.200  -0.144  0.00  0.00    +0.000 A 
ATOM      8  C   UNL     1      -0.981   0.600  -1.218  0.00  0.00    +0.000 A 
ATOM      9  C   UNL     1       0.403   0.723  -1.066  0.00  0.00    +0.000 A 
ENDBRANCH   1   7
BRANCH   1  10
ATOM     10  P   UNL     1      -4.213   2.164   0.279  0.00  0.00    +0.000 P 
ATOM     11  H   UNL     1      -3.647   2.523   1.485  0.00  0.00    +0.000 HD
BRANCH  10  12
ATOM     12  C   UNL     1      -3.529   3.130  -1.100  0.00  0.00    +0.000 A 
ATOM     13  C   UNL     1      -4.157   3.126  -2.352  0.00  0.00    +0.000 A 
ATOM     14  C   UNL     1      -3.632   3.865  -3.417  0.00  0.00    +0.000 A 
ATOM     15  C   UNL     1      -2.466   4.618  -3.251  0.00  0.00    +0.000 A 
ATOM     16  C   UNL     1      -1.849   4.644  -1.996  0.00  0.00    +0.000 A 
ATOM     17  C   UNL     1      -2.375   3.905  -0.932  0.00  0.00    +0.000 A 
ATOM     18  C   UNL     1      -1.921   5.437  -4.383  0.00  0.00    +0.000 C 
ENDBRANCH  10  12
ENDBRANCH   1  10
TORSDOF 3
