REMARK  Name = *****
REMARK  2 active torsions:
REMARK  status: ('A' for Active; 'I' for Inactive)
REMARK    1  A    between atoms: N_6  and  C_7
REMARK    2  A    between atoms: C_7  and  C_8
REMARK                            x       y       z     vdW  Elec       q    Type
REMARK                         _______ _______ _______ _____ _____    ______ ____
ROOT
ATOM      1  C   UNL     1       1.023  -0.429   0.692  0.00  0.00    +0.000 C 
ATOM      2  C   UNL     1       2.297  -0.275   0.306  0.00  0.00    +0.000 C 
ATOM      3  C   UNL     1       3.292  -1.391   0.237  0.00  0.00    +0.000 C 
ATOM      4  S   UNL     1       4.485  -1.035  -1.078  0.00  0.00    +0.000 S 
ATOM      5  C   UNL     1       4.286   0.702  -1.088  0.00  0.00    +0.000 C 
ATOM      6  N   UNL     1       5.030   1.562  -1.676  0.00  0.00    +0.000 NA
ATOM      7  S   UNL     1       2.882   1.275  -0.205  0.00  0.00    +0.000 S 
ENDROOT
BRANCH   6   8
ATOM      8  C   UNL     1       6.188   1.116  -2.444  0.00  0.00    +0.000 C 
BRANCH   8   9
ATOM      9  C   UNL     1       6.773   2.244  -3.264  0.00  0.00    +0.000 A 
ATOM     10  C   UNL     1       8.146   2.522  -3.231  0.00  0.00    +0.000 A 
ATOM     11  C   UNL     1       8.682   3.543  -4.019  0.00  0.00    +0.000 A 
ATOM     12  C   UNL     1       7.853   4.293  -4.851  0.00  0.00    +0.000 A 
ATOM     13  C   UNL     1       6.487   4.024  -4.897  0.00  0.00    +0.000 A 
ATOM     14  C   UNL     1       5.951   3.003  -4.111  0.00  0.00    +0.000 A 
ENDBRANCH   8   9
ENDBRANCH   6   8
TORSDOF 2
