REMARK  Name = *****
REMARK  3 active torsions:
REMARK  status: ('A' for Active; 'I' for Inactive)
REMARK    1  A    between atoms: C_4  and  C_7
REMARK    2  A    between atoms: C_8  and  C_9
REMARK    3  A    between atoms: C_11  and  C_15
REMARK                            x       y       z     vdW  Elec       q    Type
REMARK                         _______ _______ _______ _____ _____    ______ ____
ROOT
ATOM      1  C   UNL     1      -5.187  -0.220  -0.456  0.00  0.00    +0.000 A 
ATOM      2  C   UNL     1      -5.692   0.859  -1.187  0.00  0.00    +0.000 A 
ATOM      3  C   UNL     1      -7.073   1.053  -1.265  0.00  0.00    +0.000 A 
ATOM      4  N   UNL     1      -7.952   0.200  -0.664  0.00  0.00    +0.000 NA
ATOM      5  C   UNL     1      -7.443  -0.843   0.024  0.00  0.00    +0.000 A 
ATOM      6  C   UNL     1      -6.088  -1.094   0.150  0.00  0.00    +0.000 A 
ENDROOT
BRANCH   3   7
ATOM      7  C   UNL     1      -7.606   2.222  -2.083  0.00  0.00    +0.000 C 
ATOM      8  F   UNL     1      -6.821   3.337  -1.980  0.00  0.00    +0.000 F 
ATOM      9  F   UNL     1      -7.663   1.943  -3.418  0.00  0.00    +0.000 F 
ATOM     10  F   UNL     1      -8.859   2.627  -1.730  0.00  0.00    +0.000 F 
ENDBRANCH   3   7
BRANCH   1  12
ATOM     11  C   UNL     1      -2.814   0.460  -0.215  0.00  0.00    +0.000 C 
ATOM     12  C   UNL     1      -3.748  -0.495  -0.355  0.00  0.00    +0.000 C 
BRANCH  11  16
ATOM     13  C   UNL     1       1.390  -0.245   0.140  0.00  0.00    +0.000 A 
ATOM     14  C   UNL     1       0.637  -1.020  -0.739  0.00  0.00    +0.000 A 
ATOM     15  C   UNL     1      -0.739  -0.805  -0.860  0.00  0.00    +0.000 A 
ATOM     16  C   UNL     1      -1.376   0.181  -0.094  0.00  0.00    +0.000 A 
ATOM     17  C   UNL     1      -0.604   0.965   0.773  0.00  0.00    +0.000 A 
ATOM     18  C   UNL     1       0.771   0.749   0.894  0.00  0.00    +0.000 A 
ENDBRANCH  11  16
ENDBRANCH   1  12
TORSDOF 3
