REMARK  Name = *****
REMARK  6 active torsions:
REMARK  status: ('A' for Active; 'I' for Inactive)
REMARK    1  A    between atoms: C_1  and  C_2
REMARK    2  A    between atoms: C_7  and  C_8
REMARK    3  A    between atoms: C_8  and  C_9
REMARK    4  A    between atoms: C_9  and  C_10
REMARK    5  A    between atoms: C_9  and  C_13
REMARK    6  A    between atoms: C_10  and  C_11
REMARK                            x       y       z     vdW  Elec       q    Type
REMARK                         _______ _______ _______ _____ _____    ______ ____
ROOT
ATOM      1  C   UNL     1       2.251  -2.515   0.340  0.00  0.00    +0.000 C 
ENDROOT
BRANCH   1   2
ATOM      2  C   UNL     1       3.072  -3.748  -0.024  0.00  0.00    +0.000 A 
ATOM      3  C   UNL     1       2.732  -4.567  -1.112  0.00  0.00    +0.000 A 
ATOM      4  C   UNL     1       3.497  -5.694  -1.419  0.00  0.00    +0.000 A 
ATOM      5  C   UNL     1       4.609  -6.016  -0.645  0.00  0.00    +0.000 A 
ATOM      6  C   UNL     1       4.960  -5.210   0.435  0.00  0.00    +0.000 A 
ATOM      7  C   UNL     1       4.198  -4.082   0.744  0.00  0.00    +0.000 A 
ENDBRANCH   1   2
BRANCH   1   8
ATOM      8  C   UNL     1       2.270  -1.505  -0.835  0.00  0.00    +0.000 C 
BRANCH   8  15
ATOM      9  C   UNL     1       4.388   0.367   0.225  0.00  0.00    +0.000 C 
ATOM     10  C   UNL     1       2.947   0.784   0.098  0.00  0.00    +0.000 A 
ATOM     11  C   UNL     1       2.587   2.088   0.476  0.00  0.00    +0.000 A 
ATOM     12  C   UNL     1       1.271   2.533   0.352  0.00  0.00    +0.000 A 
ATOM     13  C   UNL     1       0.298   1.683  -0.159  0.00  0.00    +0.000 A 
ATOM     14  C   UNL     1       0.639   0.388  -0.544  0.00  0.00    +0.000 A 
ATOM     15  C   UNL     1       1.958  -0.082  -0.418  0.00  0.00    +0.000 A 
ENDBRANCH   8  15
ENDBRANCH   1   8
BRANCH   1  16
ATOM     16  C   UNL     1       0.817  -2.895   0.748  0.00  0.00    +0.000 C 
BRANCH  16  17
ATOM     17  C   UNL     1       0.807  -3.726   2.007  0.00  0.00    +0.000 C 
ATOM     18  O   UNL     1       0.213  -3.391   3.028  0.00  0.00    +0.000 OA
ENDBRANCH  16  17
ENDBRANCH   1  16
TORSDOF 5
