REMARK  Name = *****
REMARK  4 active torsions:
REMARK  status: ('A' for Active; 'I' for Inactive)
REMARK    1  A    between atoms: C_1  and  C_2
REMARK    2  A    between atoms: C_7  and  S_8
REMARK    3  A    between atoms: S_8  and  C_9
REMARK    4  A    between atoms: C_9  and  C_11
REMARK                            x       y       z     vdW  Elec       q    Type
REMARK                         _______ _______ _______ _____ _____    ______ ____
ROOT
ATOM      1  S   UNL     1       1.372  -2.219   1.444  0.00  0.00    +0.000 S 
ENDROOT
BRANCH   1   8
ATOM      2  C   UNL     1       2.409   0.742   0.903  0.00  0.00    +0.000 C 
ATOM      3  C   UNL     1       1.071   0.348   0.341  0.00  0.00    +0.000 A 
ATOM      4  C   UNL     1       0.336   1.299  -0.388  0.00  0.00    +0.000 A 
ATOM      5  C   UNL     1      -0.910   0.981  -0.929  0.00  0.00    +0.000 A 
ATOM      6  C   UNL     1      -1.441  -0.291  -0.750  0.00  0.00    +0.000 A 
ATOM      7  C   UNL     1      -0.725  -1.247  -0.030  0.00  0.00    +0.000 A 
ATOM      8  C   UNL     1       0.532  -0.942   0.513  0.00  0.00    +0.000 A 
ENDBRANCH   1   8
BRANCH   1   9
ATOM      9  C   UNL     1       2.345  -2.952   0.172  0.00  0.00    +0.000 C 
ATOM     10  O   UNL     1       1.867  -3.197  -0.930  0.00  0.00    +0.000 OA
BRANCH   9  11
ATOM     11  C   UNL     1       3.771  -3.290   0.472  0.00  0.00    +0.000 A 
ATOM     12  C   UNL     1       4.360  -3.144   1.738  0.00  0.00    +0.000 A 
ATOM     13  C   UNL     1       5.703  -3.481   1.937  0.00  0.00    +0.000 A 
ATOM     14  C   UNL     1       6.469  -3.966   0.879  0.00  0.00    +0.000 A 
ATOM     15  C   UNL     1       5.897  -4.116  -0.382  0.00  0.00    +0.000 A 
ATOM     16  C   UNL     1       4.556  -3.781  -0.584  0.00  0.00    +0.000 A 
ENDBRANCH   9  11
ENDBRANCH   1   9
TORSDOF 3
