REMARK  Name = *****
REMARK  2 active torsions:
REMARK  status: ('A' for Active; 'I' for Inactive)
REMARK    1  A    between atoms: C_4  and  C_7
REMARK    2  A    between atoms: C_8  and  C_9
REMARK                            x       y       z     vdW  Elec       q    Type
REMARK                         _______ _______ _______ _____ _____    ______ ____
ROOT
ATOM      1  C   UNL     1      -2.824   0.398  -0.205  0.00  0.00    +0.000 C 
ATOM      2  C   UNL     1      -3.749  -0.566  -0.351  0.00  0.00    +0.000 C 
ENDROOT
BRANCH   1   6
ATOM      3  C   UNL     1       1.399  -0.195   0.151  0.00  0.00    +0.000 A 
ATOM      4  C   UNL     1       0.651  -1.053  -0.652  0.00  0.00    +0.000 A 
ATOM      5  C   UNL     1      -0.730  -0.877  -0.770  0.00  0.00    +0.000 A 
ATOM      6  C   UNL     1      -1.380   0.153  -0.078  0.00  0.00    +0.000 A 
ATOM      7  C   UNL     1      -0.614   1.019   0.714  0.00  0.00    +0.000 A 
ATOM      8  C   UNL     1       0.767   0.843   0.833  0.00  0.00    +0.000 A 
ENDBRANCH   1   6
BRANCH   2   9
ATOM      9  C   UNL     1      -5.220  -0.297  -0.483  0.00  0.00    +0.000 C 
ATOM     10  C   UNL     1      -6.024  -1.023   0.565  0.00  0.00    +0.000 C 
ATOM     11  C   UNL     1      -6.891  -1.864  -0.023  0.00  0.00    +0.000 C 
ATOM     12  C   UNL     1      -6.744  -1.777  -1.454  0.00  0.00    +0.000 C 
ATOM     13  C   UNL     1      -5.788  -0.884  -1.750  0.00  0.00    +0.000 C 
ENDBRANCH   2   9
TORSDOF 2
