REMARK  Name = *****
REMARK  3 active torsions:
REMARK  status: ('A' for Active; 'I' for Inactive)
REMARK    1  A    between atoms: C_4  and  N_7
REMARK    2  A    between atoms: N_7  and  C_8
REMARK    3  A    between atoms: C_8  and  C_9
REMARK                            x       y       z     vdW  Elec       q    Type
REMARK                         _______ _______ _______ _____ _____    ______ ____
ROOT
ATOM      1  C   UNL     1       3.782   0.582  -0.084  0.00  0.00    +0.000 C 
ATOM      2  F   UNL     1       3.446   1.811  -0.575  0.00  0.00    +0.000 F 
ATOM      3  F   UNL     1       3.717   0.705   1.275  0.00  0.00    +0.000 F 
ENDROOT
BRANCH   1   4
ATOM      4  C   UNL     1       5.177   0.198  -0.553  0.00  0.00    +0.000 A 
ATOM      5  C   UNL     1       5.595   0.494  -1.862  0.00  0.00    +0.000 A 
ATOM      6  C   UNL     1       6.872   0.137  -2.297  0.00  0.00    +0.000 A 
ATOM      7  C   UNL     1       7.744  -0.523  -1.433  0.00  0.00    +0.000 A 
ATOM      8  C   UNL     1       7.342  -0.827  -0.134  0.00  0.00    +0.000 A 
ATOM      9  C   UNL     1       6.066  -0.470   0.305  0.00  0.00    +0.000 A 
ENDBRANCH   1   4
BRANCH   1  10
ATOM     10  N   UNL     1       2.772  -0.393  -0.518  0.00  0.00    +0.000 NA
ATOM     11  F   UNL     1       3.202  -1.679  -0.262  0.00  0.00    +0.000 F 
BRANCH  10  15
ATOM     12  C   UNL     1      -1.498   0.238  -0.152  0.00  0.00    +0.000 C 
ATOM     13  C   UNL     1      -0.917  -1.147   0.099  0.00  0.00    +0.000 C 
ATOM     14  C   UNL     1       0.498  -1.268  -0.460  0.00  0.00    +0.000 C 
ATOM     15  C   UNL     1       1.448  -0.185   0.098  0.00  0.00    +0.000 C 
ATOM     16  C   UNL     1       0.837   1.209  -0.139  0.00  0.00    +0.000 C 
ATOM     17  C   UNL     1      -0.587   1.323   0.406  0.00  0.00    +0.000 C 
ENDBRANCH  10  15
ENDBRANCH   1  10
TORSDOF 3
