REMARK  Name = *****
REMARK  4 active torsions:
REMARK  status: ('A' for Active; 'I' for Inactive)
REMARK    1  A    between atoms: C_1  and  C_2
REMARK    2  A    between atoms: C_5  and  S_8
REMARK    3  A    between atoms: S_8  and  C_9
REMARK    4  A    between atoms: C_9  and  C_11
REMARK                            x       y       z     vdW  Elec       q    Type
REMARK                         _______ _______ _______ _____ _____    ______ ____
ROOT
ATOM      1  S   UNL     1       2.879   0.199  -3.812  0.00  0.00    +0.000 S 
ENDROOT
BRANCH   1   6
ATOM      2  C   UNL     1       1.241  -0.606   0.864  0.00  0.00    +0.000 C 
ATOM      3  C   UNL     1       2.601  -0.201   0.295  0.00  0.00    +0.000 C 
ATOM      4  C   UNL     1       2.465   1.092  -0.528  0.00  0.00    +0.000 C 
ATOM      5  C   UNL     1       3.703   1.342  -1.392  0.00  0.00    +0.000 C 
ATOM      6  C   UNL     1       3.992   0.179  -2.359  0.00  0.00    +0.000 C 
ATOM      7  C   UNL     1       3.812  -1.160  -1.687  0.00  0.00    +0.000 C 
ATOM      8  C   UNL     1       3.210  -1.330  -0.499  0.00  0.00    +0.000 C 
ENDBRANCH   1   6
BRANCH   1   9
ATOM      9  C   UNL     1       3.546   1.567  -4.696  0.00  0.00    +0.000 C 
ATOM     10  O   UNL     1       4.644   2.029  -4.411  0.00  0.00    +0.000 OA
BRANCH   9  11
ATOM     11  C   UNL     1       2.742   2.155  -5.812  0.00  0.00    +0.000 A 
ATOM     12  C   UNL     1       1.498   1.657  -6.225  0.00  0.00    +0.000 A 
ATOM     13  C   UNL     1       0.805   2.266  -7.276  0.00  0.00    +0.000 A 
ATOM     14  C   UNL     1       1.345   3.375  -7.924  0.00  0.00    +0.000 A 
ATOM     15  C   UNL     1       2.580   3.880  -7.524  0.00  0.00    +0.000 A 
ATOM     16  C   UNL     1       3.274   3.273  -6.475  0.00  0.00    +0.000 A 
ENDBRANCH   9  11
ENDBRANCH   1   9
TORSDOF 3
