REMARK  Name = *****
REMARK  3 active torsions:
REMARK  status: ('A' for Active; 'I' for Inactive)
REMARK    1  A    between atoms: C_3  and  C_4
REMARK    2  A    between atoms: C_4  and  C_5
REMARK    3  A    between atoms: C_6  and  C_7
REMARK                            x       y       z     vdW  Elec       q    Type
REMARK                         _______ _______ _______ _____ _____    ______ ____
ROOT
ATOM      1  C   UNL     1      -1.330   3.221  -0.064  0.00  0.00    +0.000 C 
ATOM      2  C   UNL     1      -1.529   4.553   0.027  0.00  0.00    +0.000 C 
ENDROOT
BRANCH   2   3
ATOM      3  C   UNL     1      -2.801   5.226  -0.052  0.00  0.00    +0.000 A 
ATOM      4  N   UNL     1      -3.958   4.560  -0.215  0.00  0.00    +0.000 NA
ATOM      5  S   UNL     1      -5.214   5.631  -0.264  0.00  0.00    +0.000 S 
ATOM      6  C   UNL     1      -4.269   7.015  -0.069  0.00  0.00    +0.000 A 
ATOM      7  C   UNL     1      -2.944   6.668   0.038  0.00  0.00    +0.000 A 
ATOM      8 CL   UNL     1      -1.659   7.786   0.248  0.00  0.00    +0.000 Cl
ATOM      9 CL   UNL     1      -5.000   8.565  -0.030  0.00  0.00    +0.000 Cl
ENDBRANCH   2   3
BRANCH   1  10
ATOM     10  C   UNL     1      -0.045   2.487   0.010  0.00  0.00    +0.000 C 
ATOM     11  O   UNL     1       0.938   3.282   0.081  0.00  0.00    +0.000 OA
BRANCH  10  14
ATOM     12  C   UNL     1       0.781  -0.983  -0.001  0.00  0.00    +0.000 C 
ATOM     13  C   UNL     1       1.160   0.307   0.042  0.00  0.00    +0.000 C 
ATOM     14  C   UNL     1      -0.050   1.129  -0.014  0.00  0.00    +0.000 C 
ATOM     15  C   UNL     1      -1.169   0.198  -0.091  0.00  0.00    +0.000 C 
ATOM     16  C   UNL     1      -0.665  -1.047  -0.083  0.00  0.00    +0.000 C 
ENDBRANCH  10  14
ENDBRANCH   1  10
TORSDOF 3
