REMARK  Name = *****
REMARK  5 active torsions:
REMARK  status: ('A' for Active; 'I' for Inactive)
REMARK    1  A    between atoms: C_1  and  C_2
REMARK    2  A    between atoms: C_6  and  C_7
REMARK    3  A    between atoms: C_7  and  O_9
REMARK    4  A    between atoms: O_9  and  C_10
REMARK    5  A    between atoms: C_10  and  C_11
REMARK                            x       y       z     vdW  Elec       q    Type
REMARK                         _______ _______ _______ _____ _____    ______ ____
ROOT
ATOM      1  C   UNL     1       3.125   2.705   0.490  0.00  0.00    +0.000 C 
ATOM      2  O   UNL     1       2.674   2.689   1.628  0.00  0.00    +0.000 OA
ENDROOT
BRANCH   1   8
ATOM      3  C   UNL     1       1.408  -0.397   0.128  0.00  0.00    +0.000 C 
ATOM      4  C   UNL     1       2.813   0.189   0.158  0.00  0.00    +0.000 C 
ATOM      5  C   UNL     1       3.877  -0.635  -0.614  0.00  0.00    +0.000 C 
ATOM      6  C   UNL     1       4.990   0.411  -0.736  0.00  0.00    +0.000 C 
ATOM      7  C   UNL     1       4.107   1.406  -1.499  0.00  0.00    +0.000 C 
ATOM      8  C   UNL     1       2.909   1.599  -0.527  0.00  0.00    +0.000 C 
ATOM      9  C   UNL     1       3.638   0.487  -2.607  0.00  0.00    +0.000 C 
ATOM     10  C   UNL     1       3.498  -0.736  -2.074  0.00  0.00    +0.000 C 
ENDBRANCH   1   8
BRANCH   1  11
ATOM     11  O   UNL     1       3.798   3.746  -0.060  0.00  0.00    +0.000 OA
BRANCH  11  12
ATOM     12  C   UNL     1       4.045   4.860   0.805  0.00  0.00    +0.000 C 
BRANCH  12  13
ATOM     13  C   UNL     1       5.378   5.450   0.421  0.00  0.00    +0.000 A 
ATOM     14  C   UNL     1       5.544   6.086  -0.818  0.00  0.00    +0.000 A 
ATOM     15  C   UNL     1       6.784   6.614  -1.182  0.00  0.00    +0.000 A 
ATOM     16  C   UNL     1       7.869   6.509  -0.314  0.00  0.00    +0.000 A 
ATOM     17  C   UNL     1       7.717   5.875   0.918  0.00  0.00    +0.000 A 
ATOM     18  C   UNL     1       6.478   5.345   1.283  0.00  0.00    +0.000 A 
ENDBRANCH  12  13
ENDBRANCH  11  12
ENDBRANCH   1  11
TORSDOF 4
