REMARK  Name = *****
REMARK  5 active torsions:
REMARK  status: ('A' for Active; 'I' for Inactive)
REMARK    1  A    between atoms: C_1  and  O_2
REMARK    2  A    between atoms: O_2  and  C_3
REMARK    3  A    between atoms: C_3  and  C_4
REMARK    4  A    between atoms: C_3  and  S_10
REMARK    5  A    between atoms: S_10  and  C_11
REMARK                            x       y       z     vdW  Elec       q    Type
REMARK                         _______ _______ _______ _____ _____    ______ ____
ROOT
ATOM      1  C   UNL     1       3.006  -1.156   0.146  0.00  0.00    +0.000 C 
ENDROOT
BRANCH   1   2
ATOM      2  C   UNL     1       2.369  -2.476  -0.258  0.00  0.00    +0.000 A 
ATOM      3  C   UNL     1       2.438  -2.942  -1.582  0.00  0.00    +0.000 A 
ATOM      4  C   UNL     1       1.857  -4.160  -1.940  0.00  0.00    +0.000 A 
ATOM      5  C   UNL     1       1.204  -4.929  -0.980  0.00  0.00    +0.000 A 
ATOM      6  C   UNL     1       1.135  -4.486   0.339  0.00  0.00    +0.000 A 
ATOM      7  C   UNL     1       1.716  -3.268   0.700  0.00  0.00    +0.000 A 
ENDBRANCH   1   2
BRANCH   1   9
ATOM      8  C   UNL     1       1.562   0.509  -0.730  0.00  0.00    +0.000 C 
ATOM      9  O   UNL     1       2.801  -0.170  -0.875  0.00  0.00    +0.000 OA
ENDBRANCH   1   9
BRANCH   1  10
ATOM     10  S   UNL     1       4.801  -1.400   0.457  0.00  0.00    +0.000 S 
BRANCH  10  11
ATOM     11  C   UNL     1       5.154   0.098   1.355  0.00  0.00    +0.000 A 
ATOM     12  C   UNL     1       5.492   0.024   2.710  0.00  0.00    +0.000 A 
ATOM     13  C   UNL     1       5.777   1.187   3.429  0.00  0.00    +0.000 A 
ATOM     14  C   UNL     1       5.736   2.427   2.795  0.00  0.00    +0.000 A 
ATOM     15  C   UNL     1       5.415   2.507   1.441  0.00  0.00    +0.000 A 
ATOM     16  C   UNL     1       5.129   1.345   0.722  0.00  0.00    +0.000 A 
ENDBRANCH  10  11
ENDBRANCH   1  10
TORSDOF 4
