REMARK  Name = *****
REMARK  3 active torsions:
REMARK  status: ('A' for Active; 'I' for Inactive)
REMARK    1  A    between atoms: C_5  and  O_6
REMARK    2  A    between atoms: O_6  and  C_7
REMARK    3  A    between atoms: C_7  and  C_9
REMARK                            x       y       z     vdW  Elec       q    Type
REMARK                         _______ _______ _______ _____ _____    ______ ____
ROOT
ATOM      1  C   UNL     1       3.254  -1.185   2.224  0.00  0.00    +0.000 C 
ATOM      2  O   UNL     1       4.106  -1.178   1.355  0.00  0.00    +0.000 OA
ENDROOT
BRANCH   1   3
ATOM      3  C   UNL     1       3.412  -0.593   3.566  0.00  0.00    +0.000 A 
ATOM      4  C   UNL     1       3.851   0.725   3.732  0.00  0.00    +0.000 A 
ATOM      5  C   UNL     1       4.018   1.245   5.020  0.00  0.00    +0.000 A 
ATOM      6  C   UNL     1       3.746   0.448   6.132  0.00  0.00    +0.000 A 
ATOM      7  C   UNL     1       3.304  -0.864   5.974  0.00  0.00    +0.000 A 
ATOM      8  C   UNL     1       3.137  -1.388   4.690  0.00  0.00    +0.000 A 
ATOM      9 CL   UNL     1       3.951   1.092   7.713  0.00  0.00    +0.000 Cl
ATOM     10 CL   UNL     1       4.151   1.784   2.402  0.00  0.00    +0.000 Cl
ENDBRANCH   1   3
BRANCH   1  11
ATOM     11  O   UNL     1       2.010  -1.716   2.138  0.00  0.00    +0.000 OA
BRANCH  11  16
ATOM     12  C   UNL     1       1.217  -1.215  -0.120  0.00  0.00    +0.000 C 
ATOM     13  C   UNL     1      -0.120  -0.692   0.382  0.00  0.00    +0.000 C 
ATOM     14  S   UNL     1      -1.005  -2.158   0.977  0.00  0.00    +0.000 S 
ATOM     15  C   UNL     1       0.470  -3.225   1.048  0.00  0.00    +0.000 C 
ATOM     16  C   UNL     1       1.667  -2.295   0.861  0.00  0.00    +0.000 C 
ENDBRANCH  11  16
ENDBRANCH   1  11
TORSDOF 3
