REMARK  Name = *****
REMARK  7 active torsions:
REMARK  status: ('A' for Active; 'I' for Inactive)
REMARK    1  A    between atoms: C_1  and  C_2
REMARK    2  A    between atoms: C_3  and  C_16
REMARK    3  A    between atoms: C_4  and  C_15
REMARK    4  A    between atoms: C_5  and  C_14
REMARK    5  A    between atoms: C_6  and  C_7
REMARK    6  A    between atoms: C_7  and  C_8
REMARK    7  A    between atoms: C_8  and  N_9
REMARK                            x       y       z     vdW  Elec       q    Type
REMARK                         _______ _______ _______ _____ _____    ______ ____
ROOT
ATOM      1  C   UNL     1       1.208  -0.155   0.477  0.00  0.00    +0.000 C 
ATOM      2  C   UNL     1       2.680  -0.214   0.074  0.00  0.00    +0.000 C 
ATOM      3  C   UNL     1       3.157   1.072  -0.566  0.00  0.00    +0.000 C 
ATOM      4  C   UNL     1       3.597   0.826  -1.817  0.00  0.00    +0.000 C 
ATOM      5  C   UNL     1       3.466  -0.600  -2.100  0.00  0.00    +0.000 C 
ATOM      6  C   UNL     1       2.951  -1.226  -1.023  0.00  0.00    +0.000 C 
ATOM      7  C   UNL     1       3.896  -1.184  -3.404  0.00  0.00    +0.000 C 
ATOM      8  C   UNL     1       4.152   1.783  -2.816  0.00  0.00    +0.000 C 
ATOM      9  C   UNL     1       3.133   2.356   0.188  0.00  0.00    +0.000 C 
ENDROOT
BRANCH   6  10
ATOM     10  C   UNL     1       2.663  -2.685  -0.836  0.00  0.00    +0.000 C 
BRANCH  10  11
ATOM     11  C   UNL     1       3.625  -3.337   0.157  0.00  0.00    +0.000 C 
BRANCH  11  12
ATOM     12  N   UNL     1       3.349  -4.755   0.325  0.00  0.00    +0.000 N 
ATOM     13  C   UNL     1       3.902  -5.762  -0.422  0.00  0.00    +0.000 A 
ATOM     14  C   UNL     1       3.399  -6.958   0.043  0.00  0.00    +0.000 A 
ATOM     15  C   UNL     1       2.517  -6.660   1.109  0.00  0.00    +0.000 A 
ATOM     16  C   UNL     1       2.508  -5.290   1.264  0.00  0.00    +0.000 A 
ENDBRANCH  11  12
ENDBRANCH  10  11
ENDBRANCH   6  10
TORSDOF 3
