REMARK  Name = *****
REMARK  3 active torsions:
REMARK  status: ('A' for Active; 'I' for Inactive)
REMARK    1  A    between atoms: C_4  and  O_7
REMARK    2  A    between atoms: O_7  and  N_8
REMARK    3  A    between atoms: C_9  and  C_10
REMARK                            x       y       z     vdW  Elec       q    Type
REMARK                         _______ _______ _______ _____ _____    ______ ____
ROOT
ATOM      1  N   UNL     1      -3.532  -0.580  -0.208  0.00  0.00    +0.000 NA
ATOM      2  C   UNL     1      -4.770  -0.250  -0.424  0.00  0.00    +0.000 C 
ENDROOT
BRANCH   2   3
ATOM      3  C   UNL     1      -5.369   1.094  -0.555  0.00  0.00    +0.000 A 
ATOM      4  C   UNL     1      -4.726   2.131  -1.239  0.00  0.00    +0.000 A 
ATOM      5  C   UNL     1      -5.353   3.373  -1.368  0.00  0.00    +0.000 A 
ATOM      6  C   UNL     1      -6.623   3.569  -0.826  0.00  0.00    +0.000 A 
ATOM      7  C   UNL     1      -7.277   2.531  -0.162  0.00  0.00    +0.000 A 
ATOM      8  C   UNL     1      -6.653   1.288  -0.033  0.00  0.00    +0.000 A 
ATOM      9 CL   UNL     1      -7.393   5.099  -0.987  0.00  0.00    +0.000 Cl
ENDBRANCH   2   3
BRANCH   1  10
ATOM     10  O   UNL     1      -2.715   0.534   0.013  0.00  0.00    +0.000 OA
BRANCH  10  14
ATOM     11  C   UNL     1       1.318  -0.329   0.642  0.00  0.00    +0.000 A 
ATOM     12  C   UNL     1       0.440  -1.387   0.406  0.00  0.00    +0.000 A 
ATOM     13  C   UNL     1      -0.918  -1.137   0.192  0.00  0.00    +0.000 A 
ATOM     14  C   UNL     1      -1.402   0.173   0.214  0.00  0.00    +0.000 A 
ATOM     15  C   UNL     1      -0.518   1.229   0.453  0.00  0.00    +0.000 A 
ATOM     16  C   UNL     1       0.839   0.980   0.666  0.00  0.00    +0.000 A 
ENDBRANCH  10  14
ENDBRANCH   1  10
TORSDOF 3
