REMARK  Name = *****
REMARK  3 active torsions:
REMARK  status: ('A' for Active; 'I' for Inactive)
REMARK    1  A    between atoms: C_5  and  S_7
REMARK    2  A    between atoms: S_7  and  C_8
REMARK    3  A    between atoms: C_9  and  C_10
REMARK                            x       y       z     vdW  Elec       q    Type
REMARK                         _______ _______ _______ _____ _____    ______ ____
ROOT
ATOM      1  S   UNL     1      -1.179  -0.567  -2.281  0.00  0.00    +0.000 S 
ENDROOT
BRANCH   1   6
ATOM      2  C   UNL     1       0.629   1.372  -0.227  0.00  0.00    +0.000 C 
ATOM      3  C   UNL     1       1.522   0.366   0.492  0.00  0.00    +0.000 C 
ATOM      4  C   UNL     1       1.208  -1.071   0.081  0.00  0.00    +0.000 C 
ATOM      5  C   UNL     1      -0.277  -1.428   0.230  0.00  0.00    +0.000 C 
ATOM      6  C   UNL     1      -1.214  -0.405  -0.443  0.00  0.00    +0.000 C 
ATOM      7  C   UNL     1      -0.855   1.042  -0.057  0.00  0.00    +0.000 C 
ATOM      8 CL   UNL     1      -0.687  -1.560   1.982  0.00  0.00    +0.000 Cl
ENDBRANCH   1   6
BRANCH   1   9
ATOM      9  C   UNL     1      -2.069  -1.996  -2.442  0.00  0.00    +0.000 C 
ATOM     10  C   UNL     1      -2.693  -3.016  -2.548  0.00  0.00    +0.000 C 
BRANCH  10  11
ATOM     11  C   UNL     1      -3.430  -4.236  -2.666  0.00  0.00    +0.000 A 
ATOM     12  C   UNL     1      -4.528  -4.474  -1.836  0.00  0.00    +0.000 A 
ATOM     13  C   UNL     1      -5.244  -5.667  -1.950  0.00  0.00    +0.000 A 
ATOM     14  C   UNL     1      -4.864  -6.622  -2.893  0.00  0.00    +0.000 A 
ATOM     15  C   UNL     1      -3.768  -6.386  -3.722  0.00  0.00    +0.000 A 
ATOM     16  C   UNL     1      -3.050  -5.194  -3.610  0.00  0.00    +0.000 A 
ENDBRANCH  10  11
ENDBRANCH   1   9
TORSDOF 3
