REMARK  Name = *****
REMARK  3 active torsions:
REMARK  status: ('A' for Active; 'I' for Inactive)
REMARK    1  A    between atoms: C_4  and  C_7
REMARK    2  A    between atoms: C_7  and  C_8
REMARK    3  A    between atoms: C_9  and  C_10
REMARK                            x       y       z     vdW  Elec       q    Type
REMARK                         _______ _______ _______ _____ _____    ______ ____
ROOT
ATOM      1  C   UNL     1      -3.432  -1.056  -0.268  0.00  0.00    +0.000 C 
ATOM      2  C   UNL     1      -4.721  -1.038  -0.644  0.00  0.00    +0.000 C 
ENDROOT
BRANCH   2   3
ATOM      3  C   UNL     1      -5.595  -2.218  -0.619  0.00  0.00    +0.000 A 
ATOM      4  C   UNL     1      -5.571  -3.137   0.441  0.00  0.00    +0.000 A 
ATOM      5  C   UNL     1      -6.438  -4.232   0.449  0.00  0.00    +0.000 A 
ATOM      6  C   UNL     1      -7.337  -4.402  -0.597  0.00  0.00    +0.000 A 
ATOM      7  C   UNL     1      -7.389  -3.495  -1.648  0.00  0.00    +0.000 A 
ATOM      8  C   UNL     1      -6.522  -2.399  -1.656  0.00  0.00    +0.000 A 
ATOM      9  F   UNL     1      -8.170  -5.451  -0.588  0.00  0.00    +0.000 F 
ENDBRANCH   2   3
BRANCH   1  10
ATOM     10  C   UNL     1      -2.537   0.151  -0.293  0.00  0.00    +0.000 C 
BRANCH  10  14
ATOM     11  C   UNL     1      -0.904   1.004   3.610  0.00  0.00    +0.000 A 
ATOM     12  C   UNL     1      -0.131   0.336   2.662  0.00  0.00    +0.000 A 
ATOM     13  C   UNL     1      -0.656   0.062   1.398  0.00  0.00    +0.000 A 
ATOM     14  C   UNL     1      -1.959   0.460   1.068  0.00  0.00    +0.000 A 
ATOM     15  C   UNL     1      -2.730   1.125   2.032  0.00  0.00    +0.000 A 
ATOM     16  C   UNL     1      -2.204   1.397   3.296  0.00  0.00    +0.000 A 
ENDBRANCH  10  14
ENDBRANCH   1  10
TORSDOF 3
