REMARK  Name = *****
REMARK  4 active torsions:
REMARK  status: ('A' for Active; 'I' for Inactive)
REMARK    1  A    between atoms: C_4  and  O_10
REMARK    2  A    between atoms: C_5  and  C_7
REMARK    3  A    between atoms: O_10  and  C_11
REMARK    4  A    between atoms: C_11  and  C_12
REMARK                            x       y       z     vdW  Elec       q    Type
REMARK                         _______ _______ _______ _____ _____    ______ ____
ROOT
ATOM      1  C   UNL     1       1.370  -0.187   0.087  0.00  0.00    +0.000 A 
ATOM      2  C   UNL     1       0.528  -1.294   0.056  0.00  0.00    +0.000 A 
ATOM      3  C   UNL     1      -0.859  -1.126  -0.026  0.00  0.00    +0.000 A 
ATOM      4  C   UNL     1      -1.423   0.156  -0.071  0.00  0.00    +0.000 A 
ATOM      5  C   UNL     1      -0.568   1.270  -0.016  0.00  0.00    +0.000 A 
ATOM      6  C   UNL     1       0.825   1.094   0.048  0.00  0.00    +0.000 A 
ENDROOT
BRANCH   5   7
ATOM      7  C   UNL     1      -1.075   2.670  -0.026  0.00  0.00    +0.000 C 
ATOM      8  O   UNL     1      -0.454   3.474  -0.723  0.00  0.00    +0.000 OA
ATOM      9 CL   UNL     1      -2.409   3.115   1.015  0.00  0.00    +0.000 Cl
ENDBRANCH   5   7
BRANCH   4  10
ATOM     10  O   UNL     1      -2.761   0.402  -0.209  0.00  0.00    +0.000 OA
BRANCH  10  11
ATOM     11  C   UNL     1      -3.653  -0.712  -0.244  0.00  0.00    +0.000 C 
BRANCH  11  12
ATOM     12  C   UNL     1      -5.067  -0.194  -0.359  0.00  0.00    +0.000 A 
ATOM     13  C   UNL     1      -5.901  -0.614  -1.405  0.00  0.00    +0.000 A 
ATOM     14  C   UNL     1      -7.211  -0.140  -1.493  0.00  0.00    +0.000 A 
ATOM     15  C   UNL     1      -7.707   0.751  -0.544  0.00  0.00    +0.000 A 
ATOM     16  C   UNL     1      -6.888   1.171   0.502  0.00  0.00    +0.000 A 
ATOM     17  C   UNL     1      -5.578   0.700   0.596  0.00  0.00    +0.000 A 
ATOM     18 CL   UNL     1      -8.222  -0.665  -2.783  0.00  0.00    +0.000 Cl
ENDBRANCH  11  12
ENDBRANCH  10  11
ENDBRANCH   4  10
TORSDOF 4
