REMARK  Name = *****
REMARK  5 active torsions:
REMARK  status: ('A' for Active; 'I' for Inactive)
REMARK    1  A    between atoms: C_1  and  C_2
REMARK    2  A    between atoms: C_2  and  C_3
REMARK    3  A    between atoms: C_2  and  C_4
REMARK    4  A    between atoms: C_2  and  C_11
REMARK    5  A    between atoms: C_4  and  C_5
REMARK                            x       y       z     vdW  Elec       q    Type
REMARK                         _______ _______ _______ _____ _____    ______ ____
ROOT
ATOM      1  C   UNL     1       0.921  -0.068   0.014  0.00  0.00    +0.000 C 
ATOM      2  C   UNL     1       2.464   0.002  -0.066  0.00  0.00    +0.000 C 
ATOM      3  C   UNL     1       2.919  -0.505  -1.455  0.00  0.00    +0.000 C 
ENDROOT
BRANCH   2   4
ATOM      4  C   UNL     1       3.056  -0.942   1.017  0.00  0.00    +0.000 A 
ATOM      5  C   UNL     1       2.738  -2.316   1.009  0.00  0.00    +0.000 A 
ATOM      6  C   UNL     1       3.251  -3.197   1.966  0.00  0.00    +0.000 A 
ATOM      7  C   UNL     1       4.100  -2.726   2.960  0.00  0.00    +0.000 A 
ATOM      8  C   UNL     1       4.433  -1.377   2.994  0.00  0.00    +0.000 A 
ATOM      9  C   UNL     1       3.918  -0.496   2.035  0.00  0.00    +0.000 A 
ENDBRANCH   2   4
BRANCH   2  10
ATOM     10  C   UNL     1       2.927   1.489   0.122  0.00  0.00    +0.000 C 
BRANCH  10  11
ATOM     11  C   UNL     1       2.424   2.523  -0.865  0.00  0.00    +0.000 A 
ATOM     12  C   UNL     1       1.237   3.229  -0.618  0.00  0.00    +0.000 A 
ATOM     13  C   UNL     1       0.779   4.188  -1.523  0.00  0.00    +0.000 A 
ATOM     14  C   UNL     1       1.505   4.458  -2.681  0.00  0.00    +0.000 A 
ATOM     15  C   UNL     1       2.692   3.773  -2.932  0.00  0.00    +0.000 A 
ATOM     16  C   UNL     1       3.151   2.813  -2.028  0.00  0.00    +0.000 A 
ENDBRANCH  10  11
ENDBRANCH   2  10
TORSDOF 3
