REMARK  Name = *****
REMARK  2 active torsions:
REMARK  status: ('A' for Active; 'I' for Inactive)
REMARK    1  A    between atoms: C_4  and  C_7
REMARK    2  A    between atoms: C_8  and  C_9
REMARK                            x       y       z     vdW  Elec       q    Type
REMARK                         _______ _______ _______ _____ _____    ______ ____
ROOT
ATOM      1  C   UNL     1      -2.784   0.407  -0.350  0.00  0.00    +0.000 C 
ATOM      2  C   UNL     1      -3.728  -0.548  -0.393  0.00  0.00    +0.000 C 
ATOM      3  F   UNL     1      -3.376  -1.839  -0.183  0.00  0.00    +0.000 F 
ENDROOT
BRANCH   1   7
ATOM      4  C   UNL     1       1.413  -0.164   0.268  0.00  0.00    +0.000 A 
ATOM      5  C   UNL     1       0.701  -1.085  -0.496  0.00  0.00    +0.000 A 
ATOM      6  C   UNL     1      -0.672  -0.917  -0.699  0.00  0.00    +0.000 A 
ATOM      7  C   UNL     1      -1.350   0.168  -0.129  0.00  0.00    +0.000 A 
ATOM      8  C   UNL     1      -0.618   1.097   0.625  0.00  0.00    +0.000 A 
ATOM      9  C   UNL     1       0.754   0.929   0.827  0.00  0.00    +0.000 A 
ENDBRANCH   1   7
BRANCH   2  10
ATOM     10  C   UNL     1      -5.167  -0.294  -0.593  0.00  0.00    +0.000 A 
ATOM     11  C   UNL     1      -5.656   0.811  -1.307  0.00  0.00    +0.000 A 
ATOM     12  C   UNL     1      -7.031   0.998  -1.482  0.00  0.00    +0.000 A 
ATOM     13  C   UNL     1      -7.934   0.080  -0.952  0.00  0.00    +0.000 A 
ATOM     14  C   UNL     1      -7.465  -1.029  -0.254  0.00  0.00    +0.000 A 
ATOM     15  C   UNL     1      -6.092  -1.216  -0.080  0.00  0.00    +0.000 A 
ENDBRANCH   2  10
TORSDOF 2
