REMARK  Name = *****
REMARK  4 active torsions:
REMARK  status: ('A' for Active; 'I' for Inactive)
REMARK    1  A    between atoms: C_3  and  C_17
REMARK    2  A    between atoms: C_6  and  C_7
REMARK    3  A    between atoms: C_8  and  C_9
REMARK    4  A    between atoms: C_12  and  C_15
REMARK                            x       y       z     vdW  Elec       q    Type
REMARK                         _______ _______ _______ _____ _____    ______ ____
ROOT
ATOM      1  C   UNL     1       1.797   2.202  -0.368  0.00  0.00    +0.000 C 
ATOM      2  C   UNL     1       3.135   2.101  -0.420  0.00  0.00    +0.000 C 
ENDROOT
BRANCH   1   8
ATOM      3  C   UNL     1       1.116  -0.167  -0.857  0.00  0.00    +0.000 A 
ATOM      4  C   UNL     1       0.223  -1.230  -0.696  0.00  0.00    +0.000 A 
ATOM      5  C   UNL     1      -0.900  -1.077   0.119  0.00  0.00    +0.000 A 
ATOM      6  C   UNL     1      -1.138   0.135   0.770  0.00  0.00    +0.000 A 
ATOM      7  C   UNL     1      -0.242   1.196   0.605  0.00  0.00    +0.000 A 
ATOM      8  C   UNL     1       0.899   1.051  -0.198  0.00  0.00    +0.000 A 
BRANCH   5   9
ATOM      9  C   UNL     1      -1.850  -2.194   0.294  0.00  0.00    +0.000 C 
ATOM     10  O   UNL     1      -1.691  -3.277  -0.255  0.00  0.00    +0.000 OA
ENDBRANCH   5   9
ENDBRANCH   1   8
BRANCH   2  11
ATOM     11  C   UNL     1       4.035   3.250  -0.594  0.00  0.00    +0.000 A 
ATOM     12  C   UNL     1       3.806   4.482   0.036  0.00  0.00    +0.000 A 
ATOM     13  C   UNL     1       4.700   5.543  -0.132  0.00  0.00    +0.000 A 
ATOM     14  C   UNL     1       5.838   5.375  -0.924  0.00  0.00    +0.000 A 
ATOM     15  C   UNL     1       6.089   4.149  -1.543  0.00  0.00    +0.000 A 
ATOM     16  C   UNL     1       5.191   3.091  -1.371  0.00  0.00    +0.000 A 
BRANCH  14  17
ATOM     17  C   UNL     1       6.788   6.490  -1.107  0.00  0.00    +0.000 C 
ATOM     18  O   UNL     1       6.617   7.585  -0.586  0.00  0.00    +0.000 OA
ENDBRANCH  14  17
ENDBRANCH   2  11
TORSDOF 4
