REMARK  Name = *****
REMARK  3 active torsions:
REMARK  status: ('A' for Active; 'I' for Inactive)
REMARK    1  A    between atoms: C_1  and  C_2
REMARK    2  A    between atoms: C_2  and  C_3
REMARK    3  A    between atoms: C_2  and  N_9
REMARK                            x       y       z     vdW  Elec       q    Type
REMARK                         _______ _______ _______ _____ _____    ______ ____
ROOT
ATOM      1  N   UNL     1       3.503  -0.302  -1.009  0.00  0.00    +0.000 N 
ATOM      2  C   UNL     1       4.653   0.441  -1.222  0.00  0.00    +0.000 A 
ATOM      3  P   UNL     1       5.570   0.087  -2.580  0.00  0.00    +0.000 P 
ATOM      4  C   UNL     1       4.422  -1.090  -2.934  0.00  0.00    +0.000 A 
ATOM      5  C   UNL     1       4.512  -1.907  -4.075  0.00  0.00    +0.000 A 
ATOM      6  C   UNL     1       3.515  -2.863  -4.299  0.00  0.00    +0.000 A 
ATOM      7  C   UNL     1       2.456  -3.008  -3.408  0.00  0.00    +0.000 A 
ATOM      8  C   UNL     1       2.352  -2.203  -2.268  0.00  0.00    +0.000 A 
ATOM      9  C   UNL     1       3.345  -1.235  -2.038  0.00  0.00    +0.000 A 
ENDROOT
BRANCH   1  11
ATOM     10  C   UNL     1       1.285   0.573  -0.358  0.00  0.00    +0.000 C 
ATOM     11  C   UNL     1       2.594  -0.062   0.126  0.00  0.00    +0.000 C 
BRANCH  11  12
ATOM     12  C   UNL     1       2.478  -1.284   1.029  0.00  0.00    +0.000 A 
ATOM     13  C   UNL     1       1.252  -1.908   1.315  0.00  0.00    +0.000 A 
ATOM     14  C   UNL     1       1.192  -3.015   2.166  0.00  0.00    +0.000 A 
ATOM     15  C   UNL     1       2.352  -3.515   2.750  0.00  0.00    +0.000 A 
ATOM     16  C   UNL     1       3.575  -2.908   2.487  0.00  0.00    +0.000 A 
ATOM     17  C   UNL     1       3.638  -1.802   1.636  0.00  0.00    +0.000 A 
ENDBRANCH  11  12
ENDBRANCH   1  11
TORSDOF 2
