REMARK  Name = *****
REMARK  5 active torsions:
REMARK  status: ('A' for Active; 'I' for Inactive)
REMARK    1  A    between atoms: C_1  and  C_2
REMARK    2  A    between atoms: C_7  and  N_8
REMARK    3  A    between atoms: N_8  and  C_9
REMARK    4  A    between atoms: N_8  and  C_10
REMARK    5  A    between atoms: C_10  and  C_12
REMARK                            x       y       z     vdW  Elec       q    Type
REMARK                         _______ _______ _______ _____ _____    ______ ____
ROOT
ATOM      1  N   UNL     1       1.011  -2.371  -0.344  0.00  0.00    +0.000 N 
ATOM      2  C   UNL     1       0.184  -3.556  -0.610  0.00  0.00    +0.000 C 
ENDROOT
BRANCH   1   9
ATOM      3  C   UNL     1      -1.059  -1.897   1.749  0.00  0.00    +0.000 C 
ATOM      4  C   UNL     1      -0.724  -0.911   0.664  0.00  0.00    +0.000 A 
ATOM      5  C   UNL     1      -1.454   0.290   0.608  0.00  0.00    +0.000 A 
ATOM      6  C   UNL     1      -1.161   1.264  -0.347  0.00  0.00    +0.000 A 
ATOM      7  C   UNL     1      -0.139   1.050  -1.265  0.00  0.00    +0.000 A 
ATOM      8  C   UNL     1       0.583  -0.143  -1.235  0.00  0.00    +0.000 A 
ATOM      9  C   UNL     1       0.298  -1.133  -0.281  0.00  0.00    +0.000 A 
ENDBRANCH   1   9
BRANCH   1  10
ATOM     10  C   UNL     1       2.418  -2.445  -0.245  0.00  0.00    +0.000 C 
ATOM     11  S   UNL     1       3.457  -1.201   0.241  0.00  0.00    +0.000 S 
BRANCH  10  12
ATOM     12  C   UNL     1       3.027  -3.772  -0.534  0.00  0.00    +0.000 A 
ATOM     13  C   UNL     1       3.410  -4.081  -1.844  0.00  0.00    +0.000 A 
ATOM     14  C   UNL     1       3.976  -5.327  -2.118  0.00  0.00    +0.000 A 
ATOM     15  C   UNL     1       4.159  -6.248  -1.085  0.00  0.00    +0.000 A 
ATOM     16  C   UNL     1       3.782  -5.937   0.223  0.00  0.00    +0.000 A 
ATOM     17  C   UNL     1       3.214  -4.693   0.504  0.00  0.00    +0.000 A 
ATOM     18 CL   UNL     1       4.855  -7.784  -1.427  0.00  0.00    +0.000 Cl
ENDBRANCH  10  12
ENDBRANCH   1  10
TORSDOF 3
