REMARK  Name = *****
REMARK  5 active torsions:
REMARK  status: ('A' for Active; 'I' for Inactive)
REMARK    1  A    between atoms: C_1  and  C_2
REMARK    2  A    between atoms: C_4  and  C_18
REMARK    3  A    between atoms: C_6  and  S_8
REMARK    4  A    between atoms: S_8  and  C_10
REMARK    5  A    between atoms: C_10  and  C_11
REMARK                            x       y       z     vdW  Elec       q    Type
REMARK                         _______ _______ _______ _____ _____    ______ ____
ROOT
ATOM      1  S   UNL     1      -0.112  -3.574   0.153  0.00  0.00    +0.000 S 
ATOM      2  O   UNL     1      -0.447  -2.111   0.218  0.00  0.00    +0.000 OA
ENDROOT
BRANCH   1   8
ATOM      3  C   UNL     1      -2.423  -2.796  -4.563  0.00  0.00    +0.000 C 
ATOM      4  C   UNL     1      -1.873  -3.757  -3.550  0.00  0.00    +0.000 A 
ATOM      5  C   UNL     1      -1.952  -5.139  -3.766  0.00  0.00    +0.000 A 
ATOM      6  C   UNL     1      -1.489  -6.045  -2.803  0.00  0.00    +0.000 A 
ATOM      7  C   UNL     1      -0.922  -5.554  -1.621  0.00  0.00    +0.000 A 
ATOM      8  C   UNL     1      -0.841  -4.175  -1.390  0.00  0.00    +0.000 A 
ATOM      9  C   UNL     1      -1.331  -3.283  -2.349  0.00  0.00    +0.000 A 
ATOM     10  C   UNL     1      -1.550  -7.522  -3.061  0.00  0.00    +0.000 C 
ENDBRANCH   1   8
BRANCH   1  11
ATOM     11  C   UNL     1       1.634  -3.716  -0.370  0.00  0.00    +0.000 C 
BRANCH  11  12
ATOM     12  C   UNL     1       2.585  -3.412   0.761  0.00  0.00    +0.000 A 
ATOM     13  C   UNL     1       3.242  -4.449   1.442  0.00  0.00    +0.000 A 
ATOM     14  C   UNL     1       4.117  -4.161   2.493  0.00  0.00    +0.000 A 
ATOM     15  C   UNL     1       4.337  -2.839   2.871  0.00  0.00    +0.000 A 
ATOM     16  C   UNL     1       3.689  -1.800   2.209  0.00  0.00    +0.000 A 
ATOM     17  C   UNL     1       2.815  -2.086   1.158  0.00  0.00    +0.000 A 
ATOM     18 CL   UNL     1       5.415  -2.489   4.166  0.00  0.00    +0.000 Cl
ENDBRANCH  11  12
ENDBRANCH   1  11
TORSDOF 3
