REMARK  Name = *****
REMARK  4 active torsions:
REMARK  status: ('A' for Active; 'I' for Inactive)
REMARK    1  A    between atoms: C_1  and  C_2
REMARK    2  A    between atoms: C_3  and  C_15
REMARK    3  A    between atoms: C_5  and  C_7
REMARK    4  A    between atoms: C_8  and  C_9
REMARK                            x       y       z     vdW  Elec       q    Type
REMARK                         _______ _______ _______ _____ _____    ______ ____
ROOT
ATOM      1  C   UNL     1       5.708  -1.441  -0.071  0.00  0.00    +0.000 C 
ATOM      2  C   UNL     1       5.730  -2.779   0.025  0.00  0.00    +0.000 C 
ENDROOT
BRANCH   1   7
ATOM      3  C   UNL     1       2.202   2.209  -0.322  0.00  0.00    +0.000 C 
ATOM      4  C   UNL     1       2.875   0.893  -0.221  0.00  0.00    +0.000 A 
ATOM      5  C   UNL     1       2.287  -0.349  -0.098  0.00  0.00    +0.000 A 
ATOM      6  O   UNL     1       3.235  -1.318  -0.036  0.00  0.00    +0.000 OA
ATOM      7  C   UNL     1       4.477  -0.729  -0.110  0.00  0.00    +0.000 A 
ATOM      8  C   UNL     1       4.275   0.641  -0.224  0.00  0.00    +0.000 A 
ATOM      9  C   UNL     1       0.886  -0.814  -0.030  0.00  0.00    +0.000 C 
ENDBRANCH   1   7
BRANCH   2  10
ATOM     10  C   UNL     1       6.965  -3.575   0.059  0.00  0.00    +0.000 A 
ATOM     11  C   UNL     1       8.090  -3.178   0.794  0.00  0.00    +0.000 A 
ATOM     12  C   UNL     1       9.236  -3.976   0.825  0.00  0.00    +0.000 A 
ATOM     13  C   UNL     1       9.264  -5.185   0.132  0.00  0.00    +0.000 A 
ATOM     14  C   UNL     1       8.146  -5.598  -0.589  0.00  0.00    +0.000 A 
ATOM     15  C   UNL     1       7.000  -4.800  -0.620  0.00  0.00    +0.000 A 
ENDBRANCH   2  10
TORSDOF 2
