REMARK  Name = *****
REMARK  2 active torsions:
REMARK  status: ('A' for Active; 'I' for Inactive)
REMARK    1  A    between atoms: C_3  and  C_8
REMARK    2  A    between atoms: C_9  and  C_10
REMARK                            x       y       z     vdW  Elec       q    Type
REMARK                         _______ _______ _______ _____ _____    ______ ____
ROOT
ATOM      1  C   UNL     1      -1.319  -2.656  -0.160  0.00  0.00    +0.000 C 
ATOM      2  C   UNL     1      -1.835  -3.735  -0.280  0.00  0.00    +0.000 C 
ENDROOT
BRANCH   1   5
ATOM      3  C   UNL     1      -0.835   1.040   0.023  0.00  0.00    +0.000 A 
ATOM      4  C   UNL     1      -1.456  -0.211  -0.032  0.00  0.00    +0.000 A 
ATOM      5  C   UNL     1      -0.685  -1.378  -0.067  0.00  0.00    +0.000 A 
ATOM      6  C   UNL     1       0.707  -1.294  -0.039  0.00  0.00    +0.000 A 
ATOM      7  C   UNL     1       1.313  -0.044   0.016  0.00  0.00    +0.000 A 
ATOM      8  C   UNL     1       0.556   1.123   0.045  0.00  0.00    +0.000 A 
ATOM      9  F   UNL     1       2.650   0.039   0.035  0.00  0.00    +0.000 F 
ENDBRANCH   1   5
BRANCH   2  10
ATOM     10  C   UNL     1      -2.427  -5.022  -0.472  0.00  0.00    +0.000 A 
ATOM     11  C   UNL     1      -1.736  -6.173  -0.089  0.00  0.00    +0.000 A 
ATOM     12  C   UNL     1      -2.305  -7.425  -0.316  0.00  0.00    +0.000 A 
ATOM     13  C   UNL     1      -3.558  -7.537  -0.919  0.00  0.00    +0.000 A 
ATOM     14  C   UNL     1      -4.251  -6.386  -1.295  0.00  0.00    +0.000 A 
ATOM     15  C   UNL     1      -3.685  -5.129  -1.071  0.00  0.00    +0.000 A 
ATOM     16 CL   UNL     1      -1.452  -8.848   0.143  0.00  0.00    +0.000 Cl
ENDBRANCH   2  10
TORSDOF 2
