REMARK  Name = *****
REMARK  2 active torsions:
REMARK  status: ('A' for Active; 'I' for Inactive)
REMARK    1  A    between atoms: C_4  and  C_6
REMARK    2  A    between atoms: C_7  and  C_8
REMARK                            x       y       z     vdW  Elec       q    Type
REMARK                         _______ _______ _______ _____ _____    ______ ____
ROOT
ATOM      1  C   UNL     1       4.382   3.119   0.012  0.00  0.00    +0.000 A 
ATOM      2  C   UNL     1       5.667   2.572   0.017  0.00  0.00    +0.000 A 
ATOM      3  C   UNL     1       6.787   3.399   0.020  0.00  0.00    +0.000 A 
ATOM      4  C   UNL     1       6.634   4.778   0.018  0.00  0.00    +0.000 A 
ATOM      5  C   UNL     1       5.361   5.333   0.013  0.00  0.00    +0.000 A 
ATOM      6  C   UNL     1       4.241   4.507   0.010  0.00  0.00    +0.000 A 
ATOM      7  F   UNL     1       3.019   5.062   0.005  0.00  0.00    +0.000 F 
ATOM      8  F   UNL     1       5.211   6.665   0.010  0.00  0.00    +0.000 F 
ATOM      9  F   UNL     1       7.712   5.574   0.021  0.00  0.00    +0.000 F 
ATOM     10  F   UNL     1       8.015   2.862   0.025  0.00  0.00    +0.000 F 
ATOM     11  F   UNL     1       5.836   1.241   0.019  0.00  0.00    +0.000 F 
ENDROOT
BRANCH   1  13
ATOM     12  C   UNL     1       2.264   1.558   0.007  0.00  0.00    +0.000 C 
ATOM     13  C   UNL     1       3.231   2.271   0.009  0.00  0.00    +0.000 C 
BRANCH  12  17
ATOM     14  C   UNL     1      -1.122   0.073  -0.002  0.00  0.00    +0.000 A 
ATOM     15  C   UNL     1      -0.492  -1.151  -0.000  0.00  0.00    +0.000 A 
ATOM     16  S   UNL     1       1.212  -0.995   0.004  0.00  0.00    +0.000 S 
ATOM     17  C   UNL     1       1.117   0.712   0.004  0.00  0.00    +0.000 A 
ATOM     18  C   UNL     1      -0.189   1.153   0.001  0.00  0.00    +0.000 A 
ENDBRANCH  12  17
ENDBRANCH   1  13
TORSDOF 2
