REMARK  Name = *****
REMARK  3 active torsions:
REMARK  status: ('A' for Active; 'I' for Inactive)
REMARK    1  A    between atoms: C_4  and  C_7
REMARK    2  A    between atoms: C_7  and  O_9
REMARK    3  A    between atoms: O_9  and  C_10
REMARK                            x       y       z     vdW  Elec       q    Type
REMARK                         _______ _______ _______ _____ _____    ______ ____
ROOT
ATOM      1  O   UNL     1      -3.138  -1.199   0.833  0.00  0.00    +0.000 OA
ENDROOT
BRANCH   1   2
ATOM      2  C   UNL     1      -4.443  -1.181   1.324  0.00  0.00    +0.000 A 
ATOM      3  C   UNL     1      -4.677  -0.896   2.670  0.00  0.00    +0.000 A 
ATOM      4  C   UNL     1      -5.969  -0.913   3.176  0.00  0.00    +0.000 A 
ATOM      5  C   UNL     1      -7.018  -1.230   2.319  0.00  0.00    +0.000 A 
ATOM      6  C   UNL     1      -6.793  -1.534   0.976  0.00  0.00    +0.000 A 
ATOM      7  C   UNL     1      -5.492  -1.518   0.470  0.00  0.00    +0.000 A 
ATOM      8  F   UNL     1      -8.270  -1.253   2.795  0.00  0.00    +0.000 F 
ATOM      9  F   UNL     1      -3.653  -0.614   3.488  0.00  0.00    +0.000 F 
ENDBRANCH   1   2
BRANCH   1  10
ATOM     10  C   UNL     1      -2.680   0.069   0.529  0.00  0.00    +0.000 C 
ATOM     11  O   UNL     1      -3.324   1.108   0.551  0.00  0.00    +0.000 OA
BRANCH  10  15
ATOM     12  C   UNL     1       1.440   0.004  -0.669  0.00  0.00    +0.000 A 
ATOM     13  C   UNL     1       0.842  -1.176  -0.229  0.00  0.00    +0.000 A 
ATOM     14  C   UNL     1      -0.499  -1.179   0.166  0.00  0.00    +0.000 A 
ATOM     15  C   UNL     1      -1.249   0.005   0.120  0.00  0.00    +0.000 A 
ATOM     16  C   UNL     1      -0.637   1.188  -0.322  0.00  0.00    +0.000 A 
ATOM     17  C   UNL     1       0.702   1.186  -0.715  0.00  0.00    +0.000 A 
ENDBRANCH  10  15
ENDBRANCH   1  10
TORSDOF 3
