REMARK  Name = *****
REMARK  3 active torsions:
REMARK  status: ('A' for Active; 'I' for Inactive)
REMARK    1  A    between atoms: C_1  and  C_2
REMARK    2  A    between atoms: C_2  and  C_10
REMARK    3  A    between atoms: N_3  and  C_4
REMARK                            x       y       z     vdW  Elec       q    Type
REMARK                         _______ _______ _______ _____ _____    ______ ____
ROOT
ATOM      1  C   UNL     1       0.822   0.070   0.254  0.00  0.00    +0.000 C 
ATOM      2  C   UNL     1       2.321  -0.002   0.048  0.00  0.00    +0.000 C 
ATOM      3  N   UNL     1       2.915   0.304  -1.057  0.00  0.00    +0.000 NA
ENDROOT
BRANCH   3   4
ATOM      4  C   UNL     1       2.170   0.734  -2.238  0.00  0.00    +0.000 C 
ATOM      5  C   UNL     1       2.886   0.167  -3.471  0.00  0.00    +0.000 C 
ATOM      6  C   UNL     1       2.260   0.674  -4.767  0.00  0.00    +0.000 C 
ATOM      7  C   UNL     1       2.215   2.199  -4.810  0.00  0.00    +0.000 C 
ATOM      8  C   UNL     1       1.521   2.777  -3.581  0.00  0.00    +0.000 C 
ATOM      9  C   UNL     1       2.150   2.266  -2.287  0.00  0.00    +0.000 C 
ENDBRANCH   3   4
BRANCH   2  10
ATOM     10  C   UNL     1       3.163  -0.464   1.196  0.00  0.00    +0.000 A 
ATOM     11  C   UNL     1       2.664  -1.342   2.165  0.00  0.00    +0.000 A 
ATOM     12  C   UNL     1       3.480  -1.757   3.221  0.00  0.00    +0.000 A 
ATOM     13  C   UNL     1       4.796  -1.304   3.309  0.00  0.00    +0.000 A 
ATOM     14  C   UNL     1       5.303  -0.442   2.339  0.00  0.00    +0.000 A 
ATOM     15  C   UNL     1       4.491  -0.025   1.283  0.00  0.00    +0.000 A 
ENDBRANCH   2  10
TORSDOF 2
