REMARK  Name = *****
REMARK  3 active torsions:
REMARK  status: ('A' for Active; 'I' for Inactive)
REMARK    1  A    between atoms: C_1  and  C_2
REMARK    2  A    between atoms: C_5  and  O_8
REMARK    3  A    between atoms: O_8  and  P_9
REMARK                            x       y       z     vdW  Elec       q    Type
REMARK                         _______ _______ _______ _____ _____    ______ ____
ROOT
ATOM      1  P   UNL     1      -3.315   0.115   0.398  0.00  0.00    +0.000 P 
ATOM      2  O   UNL     1      -3.474   1.397  -0.372  0.00  0.00    +0.000 OA
ATOM      3  N   UNL     1      -4.640  -0.858   0.581  0.00  0.00    +0.000 N 
ATOM      4  C   UNL     1      -4.786  -1.349   1.893  0.00  0.00    +0.000 A 
ATOM      5  C   UNL     1      -5.748  -2.300   2.225  0.00  0.00    +0.000 A 
ATOM      6  C   UNL     1      -5.895  -2.696   3.557  0.00  0.00    +0.000 A 
ATOM      7  C   UNL     1      -5.101  -2.127   4.558  0.00  0.00    +0.000 A 
ATOM      8  C   UNL     1      -4.157  -1.150   4.238  0.00  0.00    +0.000 A 
ATOM      9  C   UNL     1      -4.009  -0.756   2.911  0.00  0.00    +0.000 A 
ATOM     10  S   UNL     1      -2.835   0.498   2.413  0.00  0.00    +0.000 S 
ATOM     11  H   UNL     1      -5.262  -1.072  -0.152  0.00  0.00    +0.000 HD
ENDROOT
BRANCH   1  12
ATOM     12  O   UNL     1      -2.187  -0.855  -0.241  0.00  0.00    +0.000 OA
BRANCH  12  17
ATOM     13  C   UNL     1       3.354   0.140  -0.905  0.00  0.00    +0.000 C 
ATOM     14  C   UNL     1       1.880  -0.097  -0.759  0.00  0.00    +0.000 A 
ATOM     15  C   UNL     1       1.010   0.975  -0.524  0.00  0.00    +0.000 A 
ATOM     16  C   UNL     1      -0.361   0.757  -0.352  0.00  0.00    +0.000 A 
ATOM     17  C   UNL     1      -0.869  -0.537  -0.399  0.00  0.00    +0.000 A 
ATOM     18  C   UNL     1      -0.009  -1.611  -0.629  0.00  0.00    +0.000 A 
ATOM     19  C   UNL     1       1.361  -1.395  -0.799  0.00  0.00    +0.000 A 
ENDBRANCH  12  17
ENDBRANCH   1  12
TORSDOF 2
