REMARK  Name = *****
REMARK  3 active torsions:
REMARK  status: ('A' for Active; 'I' for Inactive)
REMARK    1  A    between atoms: C_1  and  C_2
REMARK    2  A    between atoms: C_7  and  C_8
REMARK    3  A    between atoms: C_9  and  C_10
REMARK                            x       y       z     vdW  Elec       q    Type
REMARK                         _______ _______ _______ _____ _____    ______ ____
ROOT
ATOM      1  C   UNL     1       0.717   0.578  -1.121  0.00  0.00    +0.000 C 
ATOM      2  C   UNL     1       0.125   1.721  -0.741  0.00  0.00    +0.000 C 
ENDROOT
BRANCH   2   3
ATOM      3  C   UNL     1      -1.324   1.966  -0.749  0.00  0.00    +0.000 C 
ATOM      4  C   UNL     1      -1.809   3.340  -1.145  0.00  0.00    +0.000 C 
ATOM      5  C   UNL     1      -2.012   2.140  -2.084  0.00  0.00    +0.000 C 
ATOM      6  C   UNL     1      -3.513   2.252  -2.276  0.00  0.00    +0.000 C 
ATOM      7  C   UNL     1      -3.873   3.289  -3.084  0.00  0.00    +0.000 C 
ATOM      8  C   UNL     1      -3.785   4.526  -2.181  0.00  0.00    +0.000 C 
ATOM      9  C   UNL     1      -3.244   3.862  -0.879  0.00  0.00    +0.000 C 
ATOM     10  C   UNL     1      -4.100   2.596  -0.902  0.00  0.00    +0.000 C 
ENDBRANCH   2   3
BRANCH   1  17
ATOM     11  C   UNL     1       2.127  -0.180   1.396  0.00  0.00    +0.000 C 
ATOM     12  C   UNL     1       2.854   0.047   0.099  0.00  0.00    +0.000 A 
ATOM     13  C   UNL     1       4.252  -0.080   0.064  0.00  0.00    +0.000 A 
ATOM     14  C   UNL     1       4.960   0.131  -1.120  0.00  0.00    +0.000 A 
ATOM     15  C   UNL     1       4.280   0.478  -2.284  0.00  0.00    +0.000 A 
ATOM     16  C   UNL     1       2.893   0.616  -2.264  0.00  0.00    +0.000 A 
ATOM     17  C   UNL     1       2.172   0.406  -1.080  0.00  0.00    +0.000 A 
ENDBRANCH   1  17
TORSDOF 2
