REMARK  Name = *****
REMARK  3 active torsions:
REMARK  status: ('A' for Active; 'I' for Inactive)
REMARK    1  A    between atoms: C_1  and  C_2
REMARK    2  A    between atoms: C_9  and  C_11
REMARK    3  A    between atoms: C_12  and  C_13
REMARK                            x       y       z     vdW  Elec       q    Type
REMARK                         _______ _______ _______ _____ _____    ______ ____
ROOT
ATOM      1  C   UNL     1       1.090  -0.026  -0.185  0.00  0.00    +0.000 C 
ATOM      2  C   UNL     1       2.557   0.131  -0.142  0.00  0.00    +0.000 A 
ATOM      3  N   UNL     1       3.272   1.237  -0.222  0.00  0.00    +0.000 NA
ATOM      4  C   UNL     1       4.566   0.790  -0.126  0.00  0.00    +0.000 A 
ATOM      5  C   UNL     1       4.579  -0.587   0.011  0.00  0.00    +0.000 A 
ATOM      6  O   UNL     1       3.285  -1.021   0.001  0.00  0.00    +0.000 OA
ATOM      7  C   UNL     1       5.725  -1.358   0.139  0.00  0.00    +0.000 A 
ATOM      8  C   UNL     1       6.936  -0.651   0.122  0.00  0.00    +0.000 A 
ATOM      9  C   UNL     1       6.981   0.749  -0.030  0.00  0.00    +0.000 A 
ATOM     10  C   UNL     1       5.785   1.483  -0.143  0.00  0.00    +0.000 A 
ENDROOT
BRANCH   9  11
ATOM     11  C   UNL     1       8.253   1.490  -0.014  0.00  0.00    +0.000 C 
ATOM     12  C   UNL     1       9.385   1.048  -0.586  0.00  0.00    +0.000 C 
BRANCH  12  13
ATOM     13  C   UNL     1      10.650   1.798  -0.582  0.00  0.00    +0.000 A 
ATOM     14  C   UNL     1      11.081   2.533   0.530  0.00  0.00    +0.000 A 
ATOM     15  C   UNL     1      12.305   3.206   0.507  0.00  0.00    +0.000 A 
ATOM     16  C   UNL     1      13.116   3.142  -0.624  0.00  0.00    +0.000 A 
ATOM     17  C   UNL     1      12.706   2.402  -1.731  0.00  0.00    +0.000 A 
ATOM     18  C   UNL     1      11.482   1.728  -1.707  0.00  0.00    +0.000 A 
ENDBRANCH  12  13
ENDBRANCH   9  11
TORSDOF 2
