REMARK  Name = *****
REMARK  3 active torsions:
REMARK  status: ('A' for Active; 'I' for Inactive)
REMARK    1  A    between atoms: C_2  and  C_3
REMARK    2  A    between atoms: C_6  and  C_8
REMARK    3  A    between atoms: C_9  and  C_10
REMARK                            x       y       z     vdW  Elec       q    Type
REMARK                         _______ _______ _______ _____ _____    ______ ____
ROOT
ATOM      1  C   UNL     1       3.540   0.084   0.030  0.00  0.00    +0.000 A 
ATOM      2  C   UNL     1       4.517   1.055   0.028  0.00  0.00    +0.000 A 
ATOM      3  C   UNL     1       5.831   0.495   0.037  0.00  0.00    +0.000 A 
ATOM      4  C   UNL     1       5.805  -0.883   0.045  0.00  0.00    +0.000 A 
ATOM      5  S   UNL     1       4.208  -1.488   0.042  0.00  0.00    +0.000 S 
ENDROOT
BRANCH   1   7
ATOM      6  C   UNL     1       0.955   0.552   0.015  0.00  0.00    +0.000 C 
ATOM      7  C   UNL     1       2.137   0.338   0.022  0.00  0.00    +0.000 C 
ENDBRANCH   1   7
BRANCH   4   8
ATOM      8  C   UNL     1       6.958  -1.722   0.055  0.00  0.00    +0.000 C 
ATOM      9  C   UNL     1       7.926  -2.432   0.064  0.00  0.00    +0.000 C 
BRANCH   9  10
ATOM     10  C   UNL     1       9.071  -3.281   0.074  0.00  0.00    +0.000 A 
ATOM     11  C   UNL     1      10.379  -2.843   0.090  0.00  0.00    +0.000 A 
ATOM     12  C   UNL     1      11.309  -3.925   0.097  0.00  0.00    +0.000 A 
ATOM     13  C   UNL     1      10.676  -5.148   0.085  0.00  0.00    +0.000 A 
ATOM     14  S   UNL     1       8.972  -4.987   0.066  0.00  0.00    +0.000 S 
ENDBRANCH   9  10
ENDBRANCH   4   8
TORSDOF 3
