REMARK  Name = *****
REMARK  4 active torsions:
REMARK  status: ('A' for Active; 'I' for Inactive)
REMARK    1  A    between atoms: C_4  and  C_7
REMARK    2  A    between atoms: C_7  and  C_8
REMARK    3  A    between atoms: C_8  and  C_9
REMARK    4  A    between atoms: C_10  and  C_11
REMARK                            x       y       z     vdW  Elec       q    Type
REMARK                         _______ _______ _______ _____ _____    ______ ____
ROOT
ATOM      1  C   UNL     1       1.393  -0.246   0.211  0.00  0.00    +0.000 A 
ATOM      2  C   UNL     1       0.813  -0.080  -1.045  0.00  0.00    +0.000 A 
ATOM      3  C   UNL     1      -0.559   0.151  -1.157  0.00  0.00    +0.000 A 
ATOM      4  C   UNL     1      -1.362   0.223  -0.011  0.00  0.00    +0.000 A 
ATOM      5  C   UNL     1      -0.769   0.049   1.247  0.00  0.00    +0.000 A 
ATOM      6  C   UNL     1       0.603  -0.183   1.356  0.00  0.00    +0.000 A 
ENDROOT
BRANCH   4   7
ATOM      7  C   UNL     1      -2.849   0.452  -0.129  0.00  0.00    +0.000 C 
BRANCH   7   8
ATOM      8  C   UNL     1      -3.614  -0.867  -0.279  0.00  0.00    +0.000 C 
BRANCH   8   9
ATOM      9  C   UNL     1      -5.095  -0.633  -0.393  0.00  0.00    +0.000 C 
ATOM     10  C   UNL     1      -5.993  -1.083   0.499  0.00  0.00    +0.000 C 
BRANCH  10  11
ATOM     11  C   UNL     1      -7.469  -0.865   0.398  0.00  0.00    +0.000 C 
ATOM     12 CL   UNL     1      -8.030   0.063   1.804  0.00  0.00    +0.000 Cl
ENDBRANCH  10  11
ENDBRANCH   8   9
ENDBRANCH   7   8
ENDBRANCH   4   7
TORSDOF 4
