REMARK  Name = *****
REMARK  2 active torsions:
REMARK  status: ('A' for Active; 'I' for Inactive)
REMARK    1  A    between atoms: C_4  and  C_7
REMARK    2  A    between atoms: C_8  and  C_9
REMARK                            x       y       z     vdW  Elec       q    Type
REMARK                         _______ _______ _______ _____ _____    ______ ____
ROOT
ATOM      1  C   UNL     1       0.660  -0.140  -0.004  0.00  0.00    +0.000 C 
ATOM      2  C   UNL     1      -0.540  -0.199  -0.006  0.00  0.00    +0.000 C 
ENDROOT
BRANCH   1   6
ATOM      3  C   UNL     1       4.877   0.088   0.013  0.00  0.00    +0.000 A 
ATOM      4  C   UNL     1       4.115   1.257   0.008  0.00  0.00    +0.000 A 
ATOM      5  C   UNL     1       2.721   1.181   0.001  0.00  0.00    +0.000 A 
ATOM      6  C   UNL     1       2.088  -0.064  -0.000  0.00  0.00    +0.000 A 
ATOM      7  C   UNL     1       2.853  -1.233   0.005  0.00  0.00    +0.000 A 
ATOM      8  C   UNL     1       4.247  -1.156   0.011  0.00  0.00    +0.000 A 
ENDBRANCH   1   6
BRANCH   2   9
ATOM      9  C   UNL     1      -1.964  -0.267  -0.004  0.00  0.00    +0.000 A 
ATOM     10  C   UNL     1      -2.698  -1.433  -0.001  0.00  0.00    +0.000 A 
ATOM     11  C   UNL     1      -4.103  -1.186   0.002  0.00  0.00    +0.000 A 
ATOM     12  C   UNL     1      -4.388   0.162   0.001  0.00  0.00    +0.000 A 
ATOM     13  S   UNL     1      -2.968   1.116  -0.004  0.00  0.00    +0.000 S 
ENDBRANCH   2   9
TORSDOF 2
