REMARK  Name = *****
REMARK  6 active torsions:
REMARK  status: ('A' for Active; 'I' for Inactive)
REMARK    1  A    between atoms: C_1  and  C_2
REMARK    2  A    between atoms: C_3  and  C_7
REMARK    3  A    between atoms: N_8  and  C_9
REMARK    4  A    between atoms: C_10  and  C_17
REMARK    5  A    between atoms: C_12  and  C_16
REMARK    6  A    between atoms: C_14  and  C_15
REMARK                            x       y       z     vdW  Elec       q    Type
REMARK                         _______ _______ _______ _____ _____    ______ ____
ROOT
ATOM      1  C   UNL     1       2.009  -4.443  -0.004  0.00  0.00    +0.000 A 
ATOM      2  C   UNL     1       2.677  -5.085   1.057  0.00  0.00    +0.000 A 
ATOM      3  C   UNL     1       3.006  -6.445   0.947  0.00  0.00    +0.000 A 
ATOM      4  C   UNL     1       2.666  -7.177  -0.195  0.00  0.00    +0.000 A 
ATOM      5  C   UNL     1       1.960  -6.544  -1.224  0.00  0.00    +0.000 A 
ATOM      6  C   UNL     1       1.622  -5.185  -1.137  0.00  0.00    +0.000 A 
ATOM      7  C   UNL     1       0.867  -4.533  -2.262  0.00  0.00    +0.000 C 
ATOM      8  C   UNL     1       2.989  -8.639  -0.283  0.00  0.00    +0.000 C 
ATOM      9  C   UNL     1       3.061  -4.327   2.297  0.00  0.00    +0.000 C 
ENDROOT
BRANCH   1  11
ATOM     10  C   UNL     1       2.600  -2.261  -0.361  0.00  0.00    +0.000 C 
ATOM     11  N   UNL     1       1.693  -3.074   0.083  0.00  0.00    +0.000 NA
BRANCH  10  14
ATOM     12  C   UNL     1       0.056  -0.618   0.663  0.00  0.00    +0.000 C 
ATOM     13  C   UNL     1       1.328  -0.072   0.099  0.00  0.00    +0.000 A 
ATOM     14  C   UNL     1       2.410  -0.827  -0.335  0.00  0.00    +0.000 A 
ATOM     15  S   UNL     1       3.687   0.154  -0.922  0.00  0.00    +0.000 S 
ATOM     16  C   UNL     1       2.823   1.589  -0.604  0.00  0.00    +0.000 A 
ATOM     17  C   UNL     1       1.585   1.332  -0.064  0.00  0.00    +0.000 A 
ENDBRANCH  10  14
ENDBRANCH   1  11
TORSDOF 2
