REMARK  Name = *****
REMARK  5 active torsions:
REMARK  status: ('A' for Active; 'I' for Inactive)
REMARK    1  A    between atoms: C_1  and  O_2
REMARK    2  A    between atoms: O_2  and  C_3
REMARK    3  A    between atoms: C_6  and  S_9
REMARK    4  A    between atoms: S_9  and  S_10
REMARK    5  A    between atoms: S_10  and  C_11
REMARK                            x       y       z     vdW  Elec       q    Type
REMARK                         _______ _______ _______ _____ _____    ______ ____
ROOT
ATOM      1  C   UNL     1      10.142  -3.627  -2.793  0.00  0.00    +0.000 A 
ATOM      2  C   UNL     1       9.056  -2.969  -3.371  0.00  0.00    +0.000 A 
ATOM      3  C   UNL     1       7.749  -3.377  -3.076  0.00  0.00    +0.000 A 
ATOM      4  C   UNL     1       7.516  -4.448  -2.208  0.00  0.00    +0.000 A 
ATOM      5  C   UNL     1       8.605  -5.097  -1.622  0.00  0.00    +0.000 A 
ATOM      6  C   UNL     1       9.908  -4.688  -1.916  0.00  0.00    +0.000 A 
ENDROOT
BRANCH   1   8
ATOM      7  C   UNL     1      11.754  -2.276  -3.901  0.00  0.00    +0.000 C 
ATOM      8  O   UNL     1      11.462  -3.334  -2.997  0.00  0.00    +0.000 OA
ENDBRANCH   1   8
BRANCH   4   9
ATOM      9  S   UNL     1       5.861  -4.987  -1.820  0.00  0.00    +0.000 S 
BRANCH   9  10
ATOM     10  S   UNL     1       5.144  -5.574  -3.658  0.00  0.00    +0.000 S 
BRANCH  10  11
ATOM     11  C   UNL     1       5.880  -7.240  -3.887  0.00  0.00    +0.000 C 
ATOM     12  C   UNL     1       5.610  -7.694  -5.329  0.00  0.00    +0.000 C 
ATOM     13  C   UNL     1       6.164  -9.095  -5.584  0.00  0.00    +0.000 C 
ATOM     14  C   UNL     1       5.622 -10.105  -4.579  0.00  0.00    +0.000 C 
ATOM     15  C   UNL     1       5.873  -9.656  -3.143  0.00  0.00    +0.000 C 
ATOM     16  C   UNL     1       5.321  -8.254  -2.882  0.00  0.00    +0.000 C 
ENDBRANCH  10  11
ENDBRANCH   9  10
ENDBRANCH   4   9
TORSDOF 4
