REMARK  Name = *****
REMARK  5 active torsions:
REMARK  status: ('A' for Active; 'I' for Inactive)
REMARK    1  A    between atoms: C_1  and  C_2
REMARK    2  A    between atoms: C_5  and  S_8
REMARK    3  A    between atoms: S_8  and  N_10
REMARK    4  A    between atoms: N_10  and  C_11
REMARK    5  A    between atoms: C_12  and  C_18
REMARK                            x       y       z     vdW  Elec       q    Type
REMARK                         _______ _______ _______ _____ _____    ______ ____
ROOT
ATOM      1  N   UNL     1      -4.444   1.191   0.225  0.00  0.00    +0.000 N 
ATOM      2  H   UNL     1      -4.591   1.446   1.164  0.00  0.00    +0.000 HD
ENDROOT
BRANCH   1   3
ATOM      3  C   UNL     1      -4.704   2.148  -0.778  0.00  0.00    +0.000 A 
ATOM      4  C   UNL     1      -4.484   3.524  -0.533  0.00  0.00    +0.000 A 
ATOM      5  C   UNL     1      -4.757   4.465  -1.544  0.00  0.00    +0.000 A 
ATOM      6  C   UNL     1      -5.252   4.055  -2.779  0.00  0.00    +0.000 A 
ATOM      7  C   UNL     1      -5.488   2.710  -3.027  0.00  0.00    +0.000 A 
ATOM      8  C   UNL     1      -5.219   1.767  -2.031  0.00  0.00    +0.000 A 
ATOM      9 CL   UNL     1      -5.579   5.221  -4.001  0.00  0.00    +0.000 Cl
ATOM     10  C   UNL     1      -3.944   4.021   0.782  0.00  0.00    +0.000 C 
ENDBRANCH   1   3
BRANCH   1  11
ATOM     11  S   UNL     1      -3.897  -0.357  -0.100  0.00  0.00    +0.000 S 
ATOM     12  O   UNL     1      -4.058  -1.179   1.144  0.00  0.00    +0.000 OA
BRANCH  11  17
ATOM     13  C   UNL     1       1.988   1.383  -0.023  0.00  0.00    +0.000 C 
ATOM     14  C   UNL     1       0.558   0.931  -0.051  0.00  0.00    +0.000 A 
ATOM     15  C   UNL     1      -0.016   0.333   1.077  0.00  0.00    +0.000 A 
ATOM     16  C   UNL     1      -1.356  -0.061   1.065  0.00  0.00    +0.000 A 
ATOM     17  C   UNL     1      -2.145   0.150  -0.071  0.00  0.00    +0.000 A 
ATOM     18  C   UNL     1      -1.574   0.752  -1.198  0.00  0.00    +0.000 A 
ATOM     19  C   UNL     1      -0.234   1.148  -1.184  0.00  0.00    +0.000 A 
ENDBRANCH  11  17
ENDBRANCH   1  11
TORSDOF 3
