REMARK  Name = *****
REMARK  3 active torsions:
REMARK  status: ('A' for Active; 'I' for Inactive)
REMARK    1  A    between atoms: C_1  and  C_2
REMARK    2  A    between atoms: P_9  and  O_12
REMARK    3  A    between atoms: O_12  and  C_13
REMARK                            x       y       z     vdW  Elec       q    Type
REMARK                         _______ _______ _______ _____ _____    ______ ____
ROOT
ATOM      1  C   UNL     1       0.956  -0.382   0.013  0.00  0.00    +0.000 C 
ATOM      2  C   UNL     1       2.447  -0.228   0.096  0.00  0.00    +0.000 A 
ATOM      3  C   UNL     1       3.042   1.032  -0.065  0.00  0.00    +0.000 A 
ATOM      4  C   UNL     1       4.430   1.157  -0.028  0.00  0.00    +0.000 A 
ATOM      5  C   UNL     1       5.229   0.022   0.210  0.00  0.00    +0.000 A 
ATOM      6  C   UNL     1       4.648  -1.234   0.358  0.00  0.00    +0.000 A 
ATOM      7  C   UNL     1       3.259  -1.357   0.291  0.00  0.00    +0.000 A 
ATOM      8  S   UNL     1       6.997   0.270   0.277  0.00  0.00    +0.000 S 
ATOM      9  P   UNL     1       6.716   2.304  -0.189  0.00  0.00    +0.000 P 
ATOM     10  O   UNL     1       7.375   2.603  -1.508  0.00  0.00    +0.000 OA
ATOM     11  N   UNL     1       5.067   2.413  -0.103  0.00  0.00    +0.000 N 
ATOM     12  H   UNL     1       4.580   3.268  -0.103  0.00  0.00    +0.000 HD
ENDROOT
BRANCH   9  13
ATOM     13  O   UNL     1       7.321   3.187   1.023  0.00  0.00    +0.000 OA
BRANCH  13  14
ATOM     14  C   UNL     1       7.212   4.545   1.117  0.00  0.00    +0.000 A 
ATOM     15  C   UNL     1       6.956   5.385   0.035  0.00  0.00    +0.000 A 
ATOM     16  C   UNL     1       6.864   6.765   0.234  0.00  0.00    +0.000 A 
ATOM     17  C   UNL     1       7.033   7.304   1.509  0.00  0.00    +0.000 A 
ATOM     18  C   UNL     1       7.301   6.464   2.588  0.00  0.00    +0.000 A 
ATOM     19  C   UNL     1       7.394   5.086   2.390  0.00  0.00    +0.000 A 
ENDBRANCH  13  14
ENDBRANCH   9  13
TORSDOF 2
