REMARK  Name = *****
REMARK  1 active torsions:
REMARK  status: ('A' for Active; 'I' for Inactive)
REMARK    1  A    between atoms: C_6  and  C_7
REMARK                            x       y       z     vdW  Elec       q    Type
REMARK                         _______ _______ _______ _____ _____    ______ ____
ROOT
ATOM      1  C   UNL     1      -2.198   0.018  -1.509  0.00  0.00    +0.000 A 
ATOM      2  C   UNL     1      -1.391  -0.234  -2.633  0.00  0.00    +0.000 A 
ATOM      3  C   UNL     1      -1.936  -0.326  -3.926  0.00  0.00    +0.000 A 
ATOM      4  C   UNL     1      -1.128  -0.581  -5.047  0.00  0.00    +0.000 A 
ATOM      5  C   UNL     1      -1.685  -0.668  -6.324  0.00  0.00    +0.000 A 
ATOM      6  C   UNL     1      -3.055  -0.502  -6.498  0.00  0.00    +0.000 A 
ATOM      7  C   UNL     1      -3.872  -0.247  -5.395  0.00  0.00    +0.000 A 
ATOM      8  C   UNL     1      -3.326  -0.156  -4.104  0.00  0.00    +0.000 A 
ATOM      9  C   UNL     1      -4.131   0.102  -2.985  0.00  0.00    +0.000 A 
ATOM     10  C   UNL     1      -3.574   0.191  -1.706  0.00  0.00    +0.000 A 
ENDROOT
BRANCH   1  16
ATOM     11  C   UNL     1      -1.138   1.581   0.180  0.00  0.00    +0.000 C 
ATOM     12  C   UNL     1      -2.287   2.336   0.838  0.00  0.00    +0.000 C 
ATOM     13  O   UNL     1      -2.759   1.700   2.033  0.00  0.00    +0.000 OA
ATOM     14  C   UNL     1      -2.880   0.340   1.953  0.00  0.00    +0.000 C 
ATOM     15  C   UNL     1      -2.379  -0.429   0.979  0.00  0.00    +0.000 C 
ATOM     16  C   UNL     1      -1.545   0.134  -0.138  0.00  0.00    +0.000 C 
ENDBRANCH   1  16
TORSDOF 1
