REMARK  Name = *****
REMARK  4 active torsions:
REMARK  status: ('A' for Active; 'I' for Inactive)
REMARK    1  A    between atoms: C_1  and  C_2
REMARK    2  A    between atoms: C_2  and  C_12
REMARK    3  A    between atoms: N_3  and  C_4
REMARK    4  A    between atoms: C_9  and  N_10
REMARK                            x       y       z     vdW  Elec       q    Type
REMARK                         _______ _______ _______ _____ _____    ______ ____
ROOT
ATOM      1  C   UNL     1       1.235  -0.653  -0.570  0.00  0.00    +0.000 C 
ATOM      2  C   UNL     1       2.488  -0.063   0.053  0.00  0.00    +0.000 C 
ATOM      3  N   UNL     1       2.914   1.149  -0.173  0.00  0.00    +0.000 NA
ENDROOT
BRANCH   3   4
ATOM      4  C   UNL     1       2.230   1.985  -1.069  0.00  0.00    +0.000 A 
ATOM      5  C   UNL     1       1.182   2.784  -0.603  0.00  0.00    +0.000 A 
ATOM      6  C   UNL     1       0.503   3.649  -1.469  0.00  0.00    +0.000 A 
ATOM      7  C   UNL     1       0.878   3.736  -2.811  0.00  0.00    +0.000 A 
ATOM      8  C   UNL     1       1.934   2.962  -3.289  0.00  0.00    +0.000 A 
ATOM      9  C   UNL     1       2.601   2.101  -2.415  0.00  0.00    +0.000 A 
BRANCH   9  10
ATOM     10  N   UNL     1       3.647   1.334  -2.914  0.00  0.00    +0.000 NA
ATOM     11  C   UNL     1       4.515   0.689  -3.367  0.00  0.00    +0.000 C 
ENDBRANCH   9  10
ENDBRANCH   3   4
BRANCH   2  12
ATOM     12  C   UNL     1       3.276  -0.895   1.077  0.00  0.00    +0.000 C 
ATOM     13  C   UNL     1       3.666  -2.251   0.555  0.00  0.00    +0.000 C 
ATOM     14  C   UNL     1       3.121  -3.207   1.326  0.00  0.00    +0.000 C 
ATOM     15  C   UNL     1       2.352  -2.591   2.380  0.00  0.00    +0.000 C 
ATOM     16  C   UNL     1       2.422  -1.257   2.263  0.00  0.00    +0.000 C 
ENDBRANCH   2  12
TORSDOF 3
