REMARK  Name = *****
REMARK  3 active torsions:
REMARK  status: ('A' for Active; 'I' for Inactive)
REMARK    1  A    between atoms: C_1  and  C_2
REMARK    2  A    between atoms: C_5  and  C_8
REMARK    3  A    between atoms: C_9  and  C_10
REMARK                            x       y       z     vdW  Elec       q    Type
REMARK                         _______ _______ _______ _____ _____    ______ ____
ROOT
ATOM      1  C   UNL     1       6.871   0.186  -0.708  0.00  0.00    +0.000 C 
ATOM      2  C   UNL     1       8.047   0.188  -0.951  0.00  0.00    +0.000 C 
ENDROOT
BRANCH   1   7
ATOM      3  C   UNL     1       1.210   0.078   0.212  0.00  0.00    +0.000 C 
ATOM      4  C   UNL     1       2.695   0.117   0.001  0.00  0.00    +0.000 A 
ATOM      5  C   UNL     1       3.373   1.337  -0.118  0.00  0.00    +0.000 A 
ATOM      6  C   UNL     1       4.753   1.360  -0.341  0.00  0.00    +0.000 A 
ATOM      7  C   UNL     1       5.464   0.165  -0.452  0.00  0.00    +0.000 A 
ATOM      8  C   UNL     1       4.796  -1.055  -0.333  0.00  0.00    +0.000 A 
ATOM      9  C   UNL     1       3.417  -1.078  -0.109  0.00  0.00    +0.000 A 
ENDBRANCH   1   7
BRANCH   2  10
ATOM     10  C   UNL     1       9.444   0.180  -1.270  0.00  0.00    +0.000 A 
ATOM     11  C   UNL     1      10.100   1.410  -1.415  0.00  0.00    +0.000 A 
ATOM     12  C   UNL     1      11.456   1.455  -1.743  0.00  0.00    +0.000 A 
ATOM     13  C   UNL     1      12.168   0.271  -1.930  0.00  0.00    +0.000 A 
ATOM     14  C   UNL     1      11.525  -0.959  -1.785  0.00  0.00    +0.000 A 
ATOM     15  C   UNL     1      10.166  -1.007  -1.456  0.00  0.00    +0.000 A 
ATOM     16 BR   UNL     1       9.362  -2.720  -1.280  0.00  0.00    +0.000 Br
ENDBRANCH   2  10
TORSDOF 2
