REMARK  Name = *****
REMARK  3 active torsions:
REMARK  status: ('A' for Active; 'I' for Inactive)
REMARK    1  A    between atoms: C_4  and  O_7
REMARK    2  A    between atoms: O_7  and  C_8
REMARK    3  A    between atoms: N_9  and  C_10
REMARK                            x       y       z     vdW  Elec       q    Type
REMARK                         _______ _______ _______ _____ _____    ______ ____
ROOT
ATOM      1  C   UNL     1      -3.713  -0.431  -0.046  0.00  0.00    +0.000 C 
ATOM      2  N   UNL     1      -4.986  -0.285   0.096  0.00  0.00    +0.000 NA
ENDROOT
BRANCH   2   3
ATOM      3  C   UNL     1      -5.759  -1.433  -0.154  0.00  0.00    +0.000 A 
ATOM      4  C   UNL     1      -6.239  -2.157   0.944  0.00  0.00    +0.000 A 
ATOM      5  C   UNL     1      -7.023  -3.299   0.765  0.00  0.00    +0.000 A 
ATOM      6  C   UNL     1      -7.346  -3.726  -0.521  0.00  0.00    +0.000 A 
ATOM      7  C   UNL     1      -6.892  -3.008  -1.628  0.00  0.00    +0.000 A 
ATOM      8  C   UNL     1      -6.107  -1.865  -1.446  0.00  0.00    +0.000 A 
ATOM      9 BR   UNL     1      -5.535  -0.927  -2.997  0.00  0.00    +0.000 Br
ENDBRANCH   2   3
BRANCH   1  10
ATOM     10  O   UNL     1      -2.874   0.630   0.165  0.00  0.00    +0.000 OA
BRANCH  10  14
ATOM     11  C   UNL     1       1.099  -0.360  -0.588  0.00  0.00    +0.000 A 
ATOM     12  C   UNL     1       0.263   0.004  -1.647  0.00  0.00    +0.000 A 
ATOM     13  C   UNL     1      -1.069   0.334  -1.401  0.00  0.00    +0.000 A 
ATOM     14  C   UNL     1      -1.552   0.281  -0.094  0.00  0.00    +0.000 A 
ATOM     15  C   UNL     1      -0.723  -0.059   0.973  0.00  0.00    +0.000 A 
ATOM     16  C   UNL     1       0.608  -0.387   0.720  0.00  0.00    +0.000 A 
ENDBRANCH  10  14
ENDBRANCH   1  10
TORSDOF 3
