REMARK  Name = *****
REMARK  2 active torsions:
REMARK  status: ('A' for Active; 'I' for Inactive)
REMARK    1  A    between atoms: C_4  and  C_7
REMARK    2  A    between atoms: C_8  and  C_9
REMARK                            x       y       z     vdW  Elec       q    Type
REMARK                         _______ _______ _______ _____ _____    ______ ____
ROOT
ATOM      1  C   UNL     1       2.900   0.186  -0.268  0.00  0.00    +0.000 C 
ATOM      2  C   UNL     1       4.095   0.249  -0.374  0.00  0.00    +0.000 C 
ENDROOT
BRANCH   1   6
ATOM      3  C   UNL     1      -1.299  -0.075   0.091  0.00  0.00    +0.000 A 
ATOM      4  C   UNL     1      -0.682   1.174   0.032  0.00  0.00    +0.000 A 
ATOM      5  C   UNL     1       0.707   1.262  -0.086  0.00  0.00    +0.000 A 
ATOM      6  C   UNL     1       1.478   0.098  -0.145  0.00  0.00    +0.000 A 
ATOM      7  C   UNL     1       0.858  -1.152  -0.085  0.00  0.00    +0.000 A 
ATOM      8  C   UNL     1      -0.531  -1.238   0.033  0.00  0.00    +0.000 A 
ENDBRANCH   1   6
BRANCH   2   9
ATOM      9  C   UNL     1       5.518   0.313  -0.502  0.00  0.00    +0.000 A 
ATOM     10  C   UNL     1       6.196   1.513  -0.555  0.00  0.00    +0.000 A 
ATOM     11  S   UNL     1       7.889   1.299  -0.712  0.00  0.00    +0.000 S 
ATOM     12  C   UNL     1       7.728  -0.406  -0.710  0.00  0.00    +0.000 A 
ATOM     13  C   UNL     1       6.413  -0.787  -0.592  0.00  0.00    +0.000 A 
ATOM     14 BR   UNL     1       5.853  -2.594  -0.554  0.00  0.00    +0.000 Br
ENDBRANCH   2   9
TORSDOF 2
