REMARK  Name = *****
REMARK  2 active torsions:
REMARK  status: ('A' for Active; 'I' for Inactive)
REMARK    1  A    between atoms: C_1  and  C_2
REMARK    2  A    between atoms: C_5  and  C_8
REMARK                            x       y       z     vdW  Elec       q    Type
REMARK                         _______ _______ _______ _____ _____    ______ ____
ROOT
ATOM      1  C   UNL     1      -0.257  -0.977  -0.331  0.00  0.00    +0.000 C 
ATOM      2  N   UNL     1      -0.955  -0.740  -1.381  0.00  0.00    +0.000 NA
ATOM      3  C   UNL     1      -1.682   0.518  -1.525  0.00  0.00    +0.000 C 
ATOM      4  C   UNL     1      -3.178   0.269  -1.204  0.00  0.00    +0.000 C 
ATOM      5  C   UNL     1      -3.994   1.508  -1.619  0.00  0.00    +0.000 C 
ATOM      6  C   UNL     1      -3.619   2.542  -0.544  0.00  0.00    +0.000 C 
ATOM      7  C   UNL     1      -2.589   1.781   0.316  0.00  0.00    +0.000 C 
ATOM      8  C   UNL     1      -3.208   0.385   0.321  0.00  0.00    +0.000 C 
ATOM      9  C   UNL     1      -1.297   1.619  -0.531  0.00  0.00    +0.000 C 
ATOM     10  C   UNL     1      -0.056   1.269   0.257  0.00  0.00    +0.000 C 
ATOM     11  O   UNL     1      -0.023  -0.093   0.664  0.00  0.00    +0.000 OA
ENDROOT
BRANCH   1  16
ATOM     12  C   UNL     1       2.155  -6.157   0.657  0.00  0.00    +0.000 C 
ATOM     13  C   UNL     1       1.566  -4.801   0.403  0.00  0.00    +0.000 A 
ATOM     14  C   UNL     1       0.988  -4.505  -0.837  0.00  0.00    +0.000 A 
ATOM     15  C   UNL     1       0.404  -3.256  -1.066  0.00  0.00    +0.000 A 
ATOM     16  C   UNL     1       0.384  -2.287  -0.056  0.00  0.00    +0.000 A 
ATOM     17  C   UNL     1       0.950  -2.586   1.189  0.00  0.00    +0.000 A 
ATOM     18  C   UNL     1       1.532  -3.837   1.418  0.00  0.00    +0.000 A 
ENDBRANCH   1  16
TORSDOF 1
