REMARK  Name = *****
REMARK  4 active torsions:
REMARK  status: ('A' for Active; 'I' for Inactive)
REMARK    1  A    between atoms: C_1  and  C_2
REMARK    2  A    between atoms: C_2  and  C_3
REMARK    3  A    between atoms: C_2  and  N_9
REMARK    4  A    between atoms: C_10  and  C_12
REMARK                            x       y       z     vdW  Elec       q    Type
REMARK                         _______ _______ _______ _____ _____    ______ ____
ROOT
ATOM      1  N   UNL     1       2.104   1.799   0.666  0.00  0.00    +0.000 NA
ATOM      2  C   UNL     1       2.576   1.592   2.038  0.00  0.00    +0.000 C 
ATOM      3  O   UNL     1       1.224   2.014   1.795  0.00  0.00    +0.000 OA
ENDROOT
BRANCH   2   4
ATOM      4  C   UNL     1       2.823   0.220   2.610  0.00  0.00    +0.000 A 
ATOM      5  C   UNL     1       3.966  -0.518   2.249  0.00  0.00    +0.000 A 
ATOM      6  C   UNL     1       4.214  -1.789   2.777  0.00  0.00    +0.000 A 
ATOM      7  C   UNL     1       3.323  -2.341   3.691  0.00  0.00    +0.000 A 
ATOM      8  C   UNL     1       2.191  -1.632   4.081  0.00  0.00    +0.000 A 
ATOM      9  C   UNL     1       1.949  -0.362   3.547  0.00  0.00    +0.000 A 
ATOM     10 CL   UNL     1       3.620  -3.905   4.341  0.00  0.00    +0.000 Cl
ENDBRANCH   2   4
BRANCH   1  12
ATOM     11  C   UNL     1       0.362   1.159  -0.932  0.00  0.00    +0.000 C 
ATOM     12  C   UNL     1       1.510   0.653  -0.046  0.00  0.00    +0.000 C 
BRANCH  12  13
ATOM     13  C   UNL     1       2.541  -0.068  -0.908  0.00  0.00    +0.000 A 
ATOM     14  C   UNL     1       3.414   0.635  -1.753  0.00  0.00    +0.000 A 
ATOM     15  C   UNL     1       4.346  -0.043  -2.541  0.00  0.00    +0.000 A 
ATOM     16  C   UNL     1       4.415  -1.434  -2.498  0.00  0.00    +0.000 A 
ATOM     17  C   UNL     1       3.551  -2.147  -1.670  0.00  0.00    +0.000 A 
ATOM     18  C   UNL     1       2.618  -1.470  -0.883  0.00  0.00    +0.000 A 
ENDBRANCH  12  13
ENDBRANCH   1  12
TORSDOF 3
