REMARK  Name = *****
REMARK  3 active torsions:
REMARK  status: ('A' for Active; 'I' for Inactive)
REMARK    1  A    between atoms: C_4  and  C_7
REMARK    2  A    between atoms: C_7  and  O_9
REMARK    3  A    between atoms: O_9  and  C_10
REMARK                            x       y       z     vdW  Elec       q    Type
REMARK                         _______ _______ _______ _____ _____    ______ ____
ROOT
ATOM      1  C   UNL     1       2.421  -1.008  -0.944  0.00  0.00    +0.000 C 
ATOM      2  O   UNL     1       2.742  -0.537  -2.025  0.00  0.00    +0.000 OA
ENDROOT
BRANCH   1   6
ATOM      3  C   UNL     1      -1.538   0.328   0.272  0.00  0.00    +0.000 C 
ATOM      4  C   UNL     1      -1.057  -1.041   0.744  0.00  0.00    +0.000 C 
ATOM      5  C   UNL     1       0.138  -1.532  -0.068  0.00  0.00    +0.000 C 
ATOM      6  C   UNL     1       1.280  -0.509  -0.074  0.00  0.00    +0.000 C 
ATOM      7  C   UNL     1       0.785   0.863  -0.553  0.00  0.00    +0.000 C 
ATOM      8  C   UNL     1      -0.406   1.350   0.268  0.00  0.00    +0.000 C 
ENDBRANCH   1   6
BRANCH   1   9
ATOM      9  O   UNL     1       3.038  -2.061  -0.334  0.00  0.00    +0.000 OA
BRANCH   9  10
ATOM     10  C   UNL     1       4.133  -2.658  -1.051  0.00  0.00    +0.000 C 
ATOM     11  C   UNL     1       3.597  -3.653  -2.085  0.00  0.00    +0.000 C 
ATOM     12  C   UNL     1       4.724  -4.430  -2.758  0.00  0.00    +0.000 C 
ATOM     13  C   UNL     1       5.617  -5.125  -1.734  0.00  0.00    +0.000 C 
ATOM     14  C   UNL     1       6.149  -4.144  -0.693  0.00  0.00    +0.000 C 
ATOM     15  C   UNL     1       5.019  -3.369  -0.025  0.00  0.00    +0.000 C 
ENDBRANCH   9  10
ENDBRANCH   1   9
TORSDOF 3
