REMARK  Name = *****
REMARK  2 active torsions:
REMARK  status: ('A' for Active; 'I' for Inactive)
REMARK    1  A    between atoms: C_5  and  C_6
REMARK    2  A    between atoms: C_7  and  C_8
REMARK                            x       y       z     vdW  Elec       q    Type
REMARK                         _______ _______ _______ _____ _____    ______ ____
ROOT
ATOM      1  C   UNL     1      -0.738   2.551   0.004  0.00  0.00    +0.000 C 
ATOM      2  C   UNL     1      -1.078   3.703   0.004  0.00  0.00    +0.000 C 
ENDROOT
BRANCH   2   3
ATOM      3  C   UNL     1      -1.485   5.070   0.005  0.00  0.00    +0.000 A 
ATOM      4  C   UNL     1      -2.778   5.540  -0.005  0.00  0.00    +0.000 A 
ATOM      5  C   UNL     1      -2.862   6.958  -0.002  0.00  0.00    +0.000 A 
ATOM      6  C   UNL     1      -1.612   7.536   0.010  0.00  0.00    +0.000 A 
ATOM      7  S   UNL     1      -0.362   6.365   0.018  0.00  0.00    +0.000 S 
ATOM      8 BR   UNL     1      -4.348   4.483  -0.021  0.00  0.00    +0.000 Br
ENDBRANCH   2   3
BRANCH   1  13
ATOM      9  C   UNL     1      -1.232   0.070   0.003  0.00  0.00    +0.000 A 
ATOM     10  C   UNL     1      -0.561  -1.134   0.002  0.00  0.00    +0.000 A 
ATOM     11  S   UNL     1       1.138  -0.923   0.003  0.00  0.00    +0.000 S 
ATOM     12  C   UNL     1       0.980   0.783   0.004  0.00  0.00    +0.000 A 
ATOM     13  C   UNL     1      -0.338   1.179   0.004  0.00  0.00    +0.000 A 
ENDBRANCH   1  13
TORSDOF 2
