REMARK  Name = *****
REMARK  3 active torsions:
REMARK  status: ('A' for Active; 'I' for Inactive)
REMARK    1  A    between atoms: N_2  and  C_3
REMARK    2  A    between atoms: C_6  and  C_9
REMARK    3  A    between atoms: C_10  and  C_11
REMARK                            x       y       z     vdW  Elec       q    Type
REMARK                         _______ _______ _______ _____ _____    ______ ____
ROOT
ATOM      1  C   UNL     1      -0.513   0.040  -0.117  0.00  0.00    +0.000 A 
ATOM      2  C   UNL     1       0.100  -0.952   0.644  0.00  0.00    +0.000 A 
ATOM      3  C   UNL     1       1.495  -0.995   0.711  0.00  0.00    +0.000 A 
ATOM      4  C   UNL     1       2.272  -0.057   0.012  0.00  0.00    +0.000 A 
ATOM      5  C   UNL     1       1.628   0.943  -0.734  0.00  0.00    +0.000 A 
ATOM      6  C   UNL     1       0.234   0.991  -0.806  0.00  0.00    +0.000 A 
ENDROOT
BRANCH   1   8
ATOM      7  C   UNL     1      -3.068   0.125  -0.240  0.00  0.00    +0.000 C 
ATOM      8  N   UNL     1      -1.898   0.086  -0.183  0.00  0.00    +0.000 NA
ENDBRANCH   1   8
BRANCH   4   9
ATOM      9  C   UNL     1       3.740  -0.051   0.084  0.00  0.00    +0.000 C 
ATOM     10  C   UNL     1       4.492  -1.164   0.092  0.00  0.00    +0.000 C 
BRANCH  10  11
ATOM     11  C   UNL     1       5.961  -1.157   0.146  0.00  0.00    +0.000 A 
ATOM     12  C   UNL     1       6.675  -0.253   0.945  0.00  0.00    +0.000 A 
ATOM     13  C   UNL     1       8.071  -0.298   0.994  0.00  0.00    +0.000 A 
ATOM     14  C   UNL     1       8.766  -1.253   0.254  0.00  0.00    +0.000 A 
ATOM     15  C   UNL     1       8.066  -2.167  -0.530  0.00  0.00    +0.000 A 
ATOM     16  C   UNL     1       6.670  -2.122  -0.579  0.00  0.00    +0.000 A 
ENDBRANCH  10  11
ENDBRANCH   4   9
TORSDOF 3
