REMARK  Name = *****
REMARK  4 active torsions:
REMARK  status: ('A' for Active; 'I' for Inactive)
REMARK    1  A    between atoms: C_1  and  C_2
REMARK    2  A    between atoms: C_2  and  C_16
REMARK    3  A    between atoms: C_6  and  C_7
REMARK    4  A    between atoms: C_7  and  C_9
REMARK                            x       y       z     vdW  Elec       q    Type
REMARK                         _______ _______ _______ _____ _____    ______ ____
ROOT
ATOM      1  C   UNL     1       2.584  -0.372  -1.669  0.00  0.00    +0.000 C 
ATOM      2  C   UNL     1       2.328  -0.174  -0.165  0.00  0.00    +0.000 C 
ATOM      3  C   UNL     1       3.013  -1.247   0.693  0.00  0.00    +0.000 C 
ATOM      4  S   UNL     1       4.801  -0.909   0.807  0.00  0.00    +0.000 S 
ATOM      5  C   UNL     1       4.663   0.828   0.687  0.00  0.00    +0.000 C 
ATOM      6  C   UNL     1       5.751   1.583   0.893  0.00  0.00    +0.000 C 
ATOM      7  S   UNL     1       3.071   1.435   0.348  0.00  0.00    +0.000 S 
ENDROOT
BRANCH   6   8
ATOM      8  C   UNL     1       5.813   3.066   0.799  0.00  0.00    +0.000 C 
ATOM      9  O   UNL     1       5.202   3.695  -0.057  0.00  0.00    +0.000 OA
BRANCH   8  10
ATOM     10  C   UNL     1       6.743   3.771   1.725  0.00  0.00    +0.000 A 
ATOM     11  C   UNL     1       7.208   5.041   1.357  0.00  0.00    +0.000 A 
ATOM     12  C   UNL     1       8.080   5.743   2.191  0.00  0.00    +0.000 A 
ATOM     13  C   UNL     1       8.486   5.184   3.402  0.00  0.00    +0.000 A 
ATOM     14  C   UNL     1       8.016   3.928   3.784  0.00  0.00    +0.000 A 
ATOM     15  C   UNL     1       7.143   3.222   2.951  0.00  0.00    +0.000 A 
ENDBRANCH   8  10
ENDBRANCH   6   8
BRANCH   2  16
ATOM     16  C   UNL     1       0.818  -0.096   0.131  0.00  0.00    +0.000 C 
ATOM     17 CL   UNL     1      -0.040  -1.628  -0.210  0.00  0.00    +0.000 Cl
ENDBRANCH   2  16
TORSDOF 3
