REMARK  Name = *****
REMARK  3 active torsions:
REMARK  status: ('A' for Active; 'I' for Inactive)
REMARK    1  A    between atoms: C_4  and  C_7
REMARK    2  A    between atoms: C_8  and  C_9
REMARK    3  A    between atoms: C_9  and  C_10
REMARK                            x       y       z     vdW  Elec       q    Type
REMARK                         _______ _______ _______ _____ _____    ______ ____
ROOT
ATOM      1  C   UNL     1      -2.819   0.402  -0.297  0.00  0.00    +0.000 C 
ATOM      2  C   UNL     1      -3.735  -0.576  -0.382  0.00  0.00    +0.000 C 
ENDROOT
BRANCH   1   6
ATOM      3  C   UNL     1       1.395  -0.178   0.144  0.00  0.00    +0.000 A 
ATOM      4  C   UNL     1       0.662  -1.051  -0.658  0.00  0.00    +0.000 A 
ATOM      5  C   UNL     1      -0.716  -0.876  -0.804  0.00  0.00    +0.000 A 
ATOM      6  C   UNL     1      -1.378   0.166  -0.141  0.00  0.00    +0.000 A 
ATOM      7  C   UNL     1      -0.626   1.047   0.648  0.00  0.00    +0.000 A 
ATOM      8  C   UNL     1       0.752   0.872   0.795  0.00  0.00    +0.000 A 
ENDBRANCH   1   6
BRANCH   2   9
ATOM      9  C   UNL     1      -5.213  -0.328  -0.550  0.00  0.00    +0.000 C 
BRANCH   9  10
ATOM     10  C   UNL     1      -5.847  -0.920  -1.825  0.00  0.00    +0.000 C 
ATOM     11  C   UNL     1      -5.733  -2.422  -1.938  0.00  0.00    +0.000 C 
ATOM     12  C   UNL     1      -5.116  -2.747  -3.086  0.00  0.00    +0.000 C 
ATOM     13  C   UNL     1      -4.779  -1.545  -3.806  0.00  0.00    +0.000 C 
ATOM     14  C   UNL     1      -5.187  -0.475  -3.109  0.00  0.00    +0.000 C 
ENDBRANCH   9  10
ENDBRANCH   2   9
TORSDOF 3
