REMARK  Name = *****
REMARK  4 active torsions:
REMARK  status: ('A' for Active; 'I' for Inactive)
REMARK    1  A    between atoms: C_1  and  C_2
REMARK    2  A    between atoms: C_5  and  N_8
REMARK    3  A    between atoms: N_8  and  C_9
REMARK    4  A    between atoms: C_9  and  C_11
REMARK                            x       y       z     vdW  Elec       q    Type
REMARK                         _______ _______ _______ _____ _____    ______ ____
ROOT
ATOM      1  N   UNL     1      -3.096   0.147  -0.108  0.00  0.00    +0.000 N 
ATOM      2  H   UNL     1      -3.495  -0.721   0.127  0.00  0.00    +0.000 HD
ENDROOT
BRANCH   1   7
ATOM      3  C   UNL     1       2.620  -0.100   0.221  0.00  0.00    +0.000 C 
ATOM      4  C   UNL     1       1.124  -0.008   0.163  0.00  0.00    +0.000 A 
ATOM      5  C   UNL     1       0.490   1.232   0.042  0.00  0.00    +0.000 A 
ATOM      6  C   UNL     1      -0.905   1.317  -0.046  0.00  0.00    +0.000 A 
ATOM      7  C   UNL     1      -1.688   0.164  -0.041  0.00  0.00    +0.000 A 
ATOM      8  C   UNL     1      -1.052  -1.076   0.093  0.00  0.00    +0.000 A 
ATOM      9  C   UNL     1       0.341  -1.164   0.180  0.00  0.00    +0.000 A 
ENDBRANCH   1   7
BRANCH   1  10
ATOM     10  C   UNL     1      -4.023   1.113  -0.441  0.00  0.00    +0.000 C 
ATOM     11  S   UNL     1      -5.636   0.777  -0.090  0.00  0.00    +0.000 S 
BRANCH  10  12
ATOM     12  C   UNL     1      -3.636   2.329  -1.188  0.00  0.00    +0.000 A 
ATOM     13  C   UNL     1      -3.026   2.199  -2.443  0.00  0.00    +0.000 A 
ATOM     14  C   UNL     1      -2.670   3.341  -3.162  0.00  0.00    +0.000 A 
ATOM     15  C   UNL     1      -2.932   4.607  -2.636  0.00  0.00    +0.000 A 
ATOM     16  C   UNL     1      -3.552   4.737  -1.392  0.00  0.00    +0.000 A 
ATOM     17  C   UNL     1      -3.909   3.600  -0.667  0.00  0.00    +0.000 A 
ENDBRANCH  10  12
ENDBRANCH   1  10
TORSDOF 3
