REMARK  Name = *****
REMARK  1 active torsions:
REMARK  status: ('A' for Active; 'I' for Inactive)
REMARK    1  A    between atoms: C_4  and  C_7
REMARK                            x       y       z     vdW  Elec       q    Type
REMARK                         _______ _______ _______ _____ _____    ______ ____
ROOT
ATOM      1  C   UNL     1      -2.820   0.607  -0.169  0.00  0.00    +0.000 A 
ATOM      2  C   UNL     1      -3.776  -0.061   0.617  0.00  0.00    +0.000 A 
ATOM      3  C   UNL     1      -5.147   0.226   0.455  0.00  0.00    +0.000 A 
ATOM      4  C   UNL     1      -5.593   1.167  -0.475  0.00  0.00    +0.000 A 
ATOM      5  C   UNL     1      -4.627   1.833  -1.262  0.00  0.00    +0.000 A 
ATOM      6  C   UNL     1      -3.264   1.549  -1.102  0.00  0.00    +0.000 A 
ATOM      7  C   UNL     1      -7.023   1.284  -0.453  0.00  0.00    +0.000 A 
ATOM      8  C   UNL     1      -7.614   0.450   0.467  0.00  0.00    +0.000 A 
ATOM      9  S   UNL     1      -6.464  -0.480   1.315  0.00  0.00    +0.000 S 
ENDROOT
BRANCH   1  13
ATOM     10  C   UNL     1       1.364  -0.233   0.293  0.00  0.00    +0.000 A 
ATOM     11  C   UNL     1       0.770  -0.321  -0.963  0.00  0.00    +0.000 A 
ATOM     12  C   UNL     1      -0.593  -0.047  -1.113  0.00  0.00    +0.000 A 
ATOM     13  C   UNL     1      -1.384   0.318  -0.011  0.00  0.00    +0.000 A 
ATOM     14  C   UNL     1      -0.764   0.400   1.247  0.00  0.00    +0.000 A 
ATOM     15  C   UNL     1       0.598   0.127   1.399  0.00  0.00    +0.000 A 
ENDBRANCH   1  13
TORSDOF 1
