REMARK  Name = *****
REMARK  4 active torsions:
REMARK  status: ('A' for Active; 'I' for Inactive)
REMARK    1  A    between atoms: C_4  and  N_7
REMARK    2  A    between atoms: N_7  and  C_8
REMARK    3  A    between atoms: C_8  and  C_9
REMARK    4  A    between atoms: C_9  and  C_10
REMARK                            x       y       z     vdW  Elec       q    Type
REMARK                         _______ _______ _______ _____ _____    ______ ____
ROOT
ATOM      1  C   UNL     1       3.555  -1.167   0.035  0.00  0.00    +0.000 C 
ENDROOT
BRANCH   1   2
ATOM      2  N   UNL     1       2.617  -0.648  -0.679  0.00  0.00    +0.000 NA
BRANCH   2   6
ATOM      3  C   UNL     1      -1.519   0.203  -0.066  0.00  0.00    +0.000 C 
ATOM      4  C   UNL     1      -0.978  -1.119   0.471  0.00  0.00    +0.000 C 
ATOM      5  C   UNL     1       0.379  -1.462  -0.139  0.00  0.00    +0.000 C 
ATOM      6  C   UNL     1       1.388  -0.326   0.058  0.00  0.00    +0.000 C 
ATOM      7  C   UNL     1       0.839   0.994  -0.494  0.00  0.00    +0.000 C 
ATOM      8  C   UNL     1      -0.516   1.338   0.118  0.00  0.00    +0.000 C 
ENDBRANCH   2   6
ENDBRANCH   1   2
BRANCH   1   9
ATOM      9  C   UNL     1       4.879  -1.536  -0.582  0.00  0.00    +0.000 C 
BRANCH   9  10
ATOM     10  C   UNL     1       6.004  -0.724   0.008  0.00  0.00    +0.000 A 
ATOM     11  C   UNL     1       6.920  -1.302   0.897  0.00  0.00    +0.000 A 
ATOM     12  C   UNL     1       7.949  -0.536   1.447  0.00  0.00    +0.000 A 
ATOM     13  C   UNL     1       8.070   0.813   1.117  0.00  0.00    +0.000 A 
ATOM     14  C   UNL     1       7.162   1.399   0.237  0.00  0.00    +0.000 A 
ATOM     15  C   UNL     1       6.133   0.635  -0.315  0.00  0.00    +0.000 A 
ENDBRANCH   9  10
ENDBRANCH   1   9
TORSDOF 4
