REMARK  Name = *****
REMARK  3 active torsions:
REMARK  status: ('A' for Active; 'I' for Inactive)
REMARK    1  A    between atoms: C_1  and  N_2
REMARK    2  A    between atoms: C_6  and  C_7
REMARK    3  A    between atoms: C_8  and  C_9
REMARK                            x       y       z     vdW  Elec       q    Type
REMARK                         _______ _______ _______ _____ _____    ______ ____
ROOT
ATOM      1  C   UNL     1       1.260   0.082   0.265  0.00  0.00    +0.000 C 
ATOM      2  N   UNL     1       2.654   0.126  -0.110  0.00  0.00    +0.000 N 
ATOM      3  C   UNL     1       3.423  -1.014  -0.162  0.00  0.00    +0.000 C 
ATOM      4  O   UNL     1       3.021  -2.144   0.076  0.00  0.00    +0.000 OA
ATOM      5  C   UNL     1       4.826  -0.669  -0.539  0.00  0.00    +0.000 C 
ATOM      6  C   UNL     1       5.871  -1.490  -0.719  0.00  0.00    +0.000 C 
ATOM      7  S   UNL     1       4.963   1.047  -0.736  0.00  0.00    +0.000 S 
ATOM      8  C   UNL     1       3.281   1.320  -0.333  0.00  0.00    +0.000 C 
ATOM      9  O   UNL     1       2.791   2.436  -0.263  0.00  0.00    +0.000 OA
ENDROOT
BRANCH   6  10
ATOM     10  C   UNL     1       5.888  -2.931  -0.581  0.00  0.00    +0.000 C 
ATOM     11  C   UNL     1       6.988  -3.666  -0.815  0.00  0.00    +0.000 C 
BRANCH  11  12
ATOM     12  C   UNL     1       7.051  -5.130  -0.680  0.00  0.00    +0.000 A 
ATOM     13  C   UNL     1       5.969  -5.963  -0.996  0.00  0.00    +0.000 A 
ATOM     14  C   UNL     1       6.084  -7.352  -0.884  0.00  0.00    +0.000 A 
ATOM     15  C   UNL     1       7.284  -7.923  -0.467  0.00  0.00    +0.000 A 
ATOM     16  C   UNL     1       8.371  -7.107  -0.165  0.00  0.00    +0.000 A 
ATOM     17  C   UNL     1       8.257  -5.719  -0.276  0.00  0.00    +0.000 A 
ENDBRANCH  11  12
ENDBRANCH   6  10
TORSDOF 2
