REMARK  Name = *****
REMARK  4 active torsions:
REMARK  status: ('A' for Active; 'I' for Inactive)
REMARK    1  A    between atoms: C_1  and  C_2
REMARK    2  A    between atoms: C_3  and  C_15
REMARK    3  A    between atoms: C_6  and  C_8
REMARK    4  A    between atoms: C_9  and  C_10
REMARK                            x       y       z     vdW  Elec       q    Type
REMARK                         _______ _______ _______ _____ _____    ______ ____
ROOT
ATOM      1  C   UNL     1       0.757  -2.132  -0.152  0.00  0.00    +0.000 C 
ATOM      2  C   UNL     1      -0.138  -0.927  -0.037  0.00  0.00    +0.000 A 
ATOM      3  C   UNL     1       0.387   0.374   0.053  0.00  0.00    +0.000 A 
ATOM      4  C   UNL     1      -0.479   1.469   0.166  0.00  0.00    +0.000 A 
ATOM      5  C   UNL     1      -1.863   1.280   0.186  0.00  0.00    +0.000 A 
ATOM      6  C   UNL     1      -2.404  -0.006   0.083  0.00  0.00    +0.000 A 
ATOM      7  C   UNL     1      -1.534  -1.102  -0.014  0.00  0.00    +0.000 A 
ENDROOT
BRANCH   6   8
ATOM      8  C   UNL     1      -3.853  -0.251   0.134  0.00  0.00    +0.000 C 
ATOM      9  C   UNL     1      -4.753   0.514  -0.505  0.00  0.00    +0.000 C 
BRANCH   9  10
ATOM     10  C   UNL     1      -6.157   0.260  -0.449  0.00  0.00    +0.000 A 
ATOM     11  C   UNL     1      -6.885  -0.717   0.214  0.00  0.00    +0.000 A 
ATOM     12  C   UNL     1      -8.292  -0.614   0.004  0.00  0.00    +0.000 A 
ATOM     13  C   UNL     1      -8.612   0.441  -0.816  0.00  0.00    +0.000 A 
ATOM     14  S   UNL     1      -7.227   1.297  -1.325  0.00  0.00    +0.000 S 
ENDBRANCH   9  10
ENDBRANCH   6   8
BRANCH   3  15
ATOM     15  C   UNL     1       1.804   0.614   0.038  0.00  0.00    +0.000 C 
ATOM     16  N   UNL     1       2.948   0.809   0.027  0.00  0.00    +0.000 NA
ENDBRANCH   3  15
TORSDOF 3
