REMARK  Name = *****
REMARK  3 active torsions:
REMARK  status: ('A' for Active; 'I' for Inactive)
REMARK    1  A    between atoms: C_5  and  C_7
REMARK    2  A    between atoms: C_7  and  N_8
REMARK    3  A    between atoms: C_9  and  C_10
REMARK                            x       y       z     vdW  Elec       q    Type
REMARK                         _______ _______ _______ _____ _____    ______ ____
ROOT
ATOM      1  N   UNL     1      -1.949  -2.335  -0.071  0.00  0.00    +0.000 NA
ATOM      2  C   UNL     1      -2.567  -2.697  -1.144  0.00  0.00    +0.000 C 
ENDROOT
BRANCH   2   3
ATOM      3  C   UNL     1      -4.038  -2.572  -1.268  0.00  0.00    +0.000 A 
ATOM      4  C   UNL     1      -4.750  -1.942  -0.235  0.00  0.00    +0.000 A 
ATOM      5  C   UNL     1      -6.134  -1.789  -0.320  0.00  0.00    +0.000 A 
ATOM      6  C   UNL     1      -6.819  -2.264  -1.436  0.00  0.00    +0.000 A 
ATOM      7  C   UNL     1      -6.119  -2.895  -2.466  0.00  0.00    +0.000 A 
ATOM      8  C   UNL     1      -4.730  -3.050  -2.387  0.00  0.00    +0.000 A 
ATOM      9 CL   UNL     1      -3.951  -3.851  -3.706  0.00  0.00    +0.000 Cl
ENDBRANCH   2   3
BRANCH   1  10
ATOM     10  C   UNL     1      -0.486  -2.493  -0.104  0.00  0.00    +0.000 C 
BRANCH  10  15
ATOM     11  C   UNL     1       0.491   0.937   1.231  0.00  0.00    +0.000 A 
ATOM     12  C   UNL     1       1.498   1.330   0.356  0.00  0.00    +0.000 A 
ATOM     13  C   UNL     1       1.874   0.487  -0.690  0.00  0.00    +0.000 A 
ATOM     14  C   UNL     1       1.243  -0.751  -0.866  0.00  0.00    +0.000 A 
ATOM     15  C   UNL     1       0.221  -1.161   0.004  0.00  0.00    +0.000 A 
ATOM     16  C   UNL     1      -0.139  -0.297   1.057  0.00  0.00    +0.000 A 
ATOM     17 CL   UNL     1       1.783  -1.727  -2.186  0.00  0.00    +0.000 Cl
ENDBRANCH  10  15
ENDBRANCH   1  10
TORSDOF 3
