REMARK  Name = *****
REMARK  4 active torsions:
REMARK  status: ('A' for Active; 'I' for Inactive)
REMARK    1  A    between atoms: C_1  and  C_2
REMARK    2  A    between atoms: C_3  and  N_9
REMARK    3  A    between atoms: C_4  and  C_8
REMARK    4  A    between atoms: C_10  and  C_11
REMARK                            x       y       z     vdW  Elec       q    Type
REMARK                         _______ _______ _______ _____ _____    ______ ____
ROOT
ATOM      1  C   UNL     1       2.712   0.645   0.940  0.00  0.00    +0.000 C 
ATOM      2  C   UNL     1       1.382   0.146   0.448  0.00  0.00    +0.000 A 
ATOM      3  C   UNL     1       0.280   1.017   0.333  0.00  0.00    +0.000 A 
ATOM      4  C   UNL     1      -0.966   0.518  -0.098  0.00  0.00    +0.000 A 
ATOM      5  C   UNL     1      -1.082  -0.832  -0.462  0.00  0.00    +0.000 A 
ATOM      6  C   UNL     1       0.017  -1.684  -0.378  0.00  0.00    +0.000 A 
ATOM      7  C   UNL     1       1.242  -1.199   0.077  0.00  0.00    +0.000 A 
ATOM      8  C   UNL     1      -2.167   1.417  -0.192  0.00  0.00    +0.000 C 
ENDROOT
BRANCH   3   9
ATOM      9  N   UNL     1       0.413   2.375   0.680  0.00  0.00    +0.000 NA
ATOM     10  C   UNL     1       0.773   3.165  -0.283  0.00  0.00    +0.000 C 
BRANCH  10  11
ATOM     11  C   UNL     1       0.942   4.577  -0.049  0.00  0.00    +0.000 A 
ATOM     12  C   UNL     1       0.769   5.289   1.121  0.00  0.00    +0.000 A 
ATOM     13  C   UNL     1       1.034   6.679   0.952  0.00  0.00    +0.000 A 
ATOM     14  C   UNL     1       1.401   6.978  -0.341  0.00  0.00    +0.000 A 
ATOM     15  S   UNL     1       1.423   5.589  -1.340  0.00  0.00    +0.000 S 
ENDBRANCH  10  11
ENDBRANCH   3   9
TORSDOF 2
