REMARK  Name = *****
REMARK  5 active torsions:
REMARK  status: ('A' for Active; 'I' for Inactive)
REMARK    1  A    between atoms: C_1  and  C_2
REMARK    2  A    between atoms: C_4  and  O_8
REMARK    3  A    between atoms: O_8  and  P_9
REMARK    4  A    between atoms: P_9  and  O_10
REMARK    5  A    between atoms: O_10  and  C_11
REMARK                            x       y       z     vdW  Elec       q    Type
REMARK                         _______ _______ _______ _____ _____    ______ ____
ROOT
ATOM      1  P   UNL     1      -0.754   4.026   0.179  0.00  0.00    +0.000 P 
ATOM      2  F   UNL     1      -0.810   4.185   1.745  0.00  0.00    +0.000 F 
ENDROOT
BRANCH   1   3
ATOM      3  O   UNL     1      -1.377   2.542   0.017  0.00  0.00    +0.000 OA
BRANCH   3   7
ATOM      4  C   UNL     1       2.344  -0.257   1.763  0.00  0.00    +0.000 C 
ATOM      5  C   UNL     1       1.121  -0.059   0.916  0.00  0.00    +0.000 A 
ATOM      6  C   UNL     1       0.481   1.189   0.878  0.00  0.00    +0.000 A 
ATOM      7  C   UNL     1      -0.677   1.368   0.114  0.00  0.00    +0.000 A 
ATOM      8  C   UNL     1      -1.218   0.285  -0.583  0.00  0.00    +0.000 A 
ATOM      9  C   UNL     1      -0.597  -0.962  -0.538  0.00  0.00    +0.000 A 
ATOM     10  C   UNL     1       0.567  -1.134   0.211  0.00  0.00    +0.000 A 
ENDBRANCH   3   7
ENDBRANCH   1   3
BRANCH   1  11
ATOM     11  O   UNL     1      -2.064   4.872  -0.240  0.00  0.00    +0.000 OA
BRANCH  11  12
ATOM     12  C   UNL     1      -2.483   5.163  -1.513  0.00  0.00    +0.000 A 
ATOM     13  C   UNL     1      -3.688   5.869  -1.594  0.00  0.00    +0.000 A 
ATOM     14  C   UNL     1      -4.219   6.227  -2.834  0.00  0.00    +0.000 A 
ATOM     15  C   UNL     1      -3.545   5.881  -4.003  0.00  0.00    +0.000 A 
ATOM     16  C   UNL     1      -2.344   5.179  -3.931  0.00  0.00    +0.000 A 
ATOM     17  C   UNL     1      -1.811   4.819  -2.689  0.00  0.00    +0.000 A 
ENDBRANCH  11  12
ENDBRANCH   1  11
TORSDOF 4
