REMARK  Name = *****
REMARK  3 active torsions:
REMARK  status: ('A' for Active; 'I' for Inactive)
REMARK    1  A    between atoms: C_4  and  N_7
REMARK    2  A    between atoms: C_8  and  C_9
REMARK    3  A    between atoms: C_8  and  C_15
REMARK                            x       y       z     vdW  Elec       q    Type
REMARK                         _______ _______ _______ _____ _____    ______ ____
ROOT
ATOM      1  N   UNL     1       2.689  -0.604  -0.251  0.00  0.00    +0.000 NA
ATOM      2  C   UNL     1       3.521  -1.440   0.281  0.00  0.00    +0.000 C 
ENDROOT
BRANCH   1   6
ATOM      3  C   UNL     1      -1.452   0.408  -0.303  0.00  0.00    +0.000 C 
ATOM      4  C   UNL     1      -1.082  -1.070  -0.229  0.00  0.00    +0.000 C 
ATOM      5  C   UNL     1       0.379  -1.304  -0.605  0.00  0.00    +0.000 C 
ATOM      6  C   UNL     1       1.323  -0.456   0.255  0.00  0.00    +0.000 C 
ATOM      7  C   UNL     1       0.951   1.029   0.160  0.00  0.00    +0.000 C 
ATOM      8  C   UNL     1      -0.510   1.267   0.535  0.00  0.00    +0.000 C 
ENDBRANCH   1   6
BRANCH   2   9
ATOM      9  C   UNL     1       3.241  -2.316   1.434  0.00  0.00    +0.000 A 
ATOM     10  C   UNL     1       2.861  -3.642   1.215  0.00  0.00    +0.000 A 
ATOM     11  C   UNL     1       2.602  -4.467   2.309  0.00  0.00    +0.000 A 
ATOM     12  C   UNL     1       2.726  -3.966   3.607  0.00  0.00    +0.000 A 
ATOM     13  C   UNL     1       3.111  -2.640   3.818  0.00  0.00    +0.000 A 
ATOM     14  C   UNL     1       3.372  -1.809   2.729  0.00  0.00    +0.000 A 
ENDBRANCH   2   9
BRANCH   2  15
ATOM     15  C   UNL     1       4.920  -1.578  -0.297  0.00  0.00    +0.000 C 
ATOM     16  F   UNL     1       5.883  -1.391   0.650  0.00  0.00    +0.000 F 
ATOM     17  F   UNL     1       5.135  -2.822  -0.812  0.00  0.00    +0.000 F 
ENDBRANCH   2  15
TORSDOF 3
