REMARK  Name = *****
REMARK  3 active torsions:
REMARK  status: ('A' for Active; 'I' for Inactive)
REMARK    1  A    between atoms: N_2  and  C_3
REMARK    2  A    between atoms: C_6  and  C_9
REMARK    3  A    between atoms: C_10  and  C_11
REMARK                            x       y       z     vdW  Elec       q    Type
REMARK                         _______ _______ _______ _____ _____    ______ ____
ROOT
ATOM      1  C   UNL     1      -0.499   0.026  -0.080  0.00  0.00    +0.000 A 
ATOM      2  C   UNL     1       0.124  -1.063   0.524  0.00  0.00    +0.000 A 
ATOM      3  C   UNL     1       1.519  -1.098   0.590  0.00  0.00    +0.000 A 
ATOM      4  C   UNL     1       2.287  -0.057   0.044  0.00  0.00    +0.000 A 
ATOM      5  C   UNL     1       1.632   1.037  -0.544  0.00  0.00    +0.000 A 
ATOM      6  C   UNL     1       0.238   1.079  -0.614  0.00  0.00    +0.000 A 
ENDROOT
BRANCH   1   8
ATOM      7  C   UNL     1      -3.055   0.096  -0.200  0.00  0.00    +0.000 C 
ATOM      8  N   UNL     1      -1.885   0.064  -0.145  0.00  0.00    +0.000 NA
ENDBRANCH   1   8
BRANCH   4   9
ATOM      9  C   UNL     1       3.754  -0.043   0.121  0.00  0.00    +0.000 C 
ATOM     10  C   UNL     1       4.523  -1.131  -0.039  0.00  0.00    +0.000 C 
BRANCH  10  11
ATOM     11  C   UNL     1       5.941  -1.042   0.037  0.00  0.00    +0.000 A 
ATOM     12  C   UNL     1       6.880  -2.059  -0.106  0.00  0.00    +0.000 A 
ATOM     13  C   UNL     1       8.167  -1.492   0.050  0.00  0.00    +0.000 A 
ATOM     14  C   UNL     1       7.961  -0.157   0.281  0.00  0.00    +0.000 A 
ATOM     15  O   UNL     1       6.636   0.125   0.276  0.00  0.00    +0.000 OA
ENDBRANCH  10  11
ENDBRANCH   4   9
TORSDOF 3
