REMARK  Name = *****
REMARK  3 active torsions:
REMARK  status: ('A' for Active; 'I' for Inactive)
REMARK    1  A    between atoms: C_4  and  C_6
REMARK    2  A    between atoms: C_6  and  C_7
REMARK    3  A    between atoms: C_8  and  C_9
REMARK                            x       y       z     vdW  Elec       q    Type
REMARK                         _______ _______ _______ _____ _____    ______ ____
ROOT
ATOM      1  C   UNL     1      -2.918   1.731   1.393  0.00  0.00    +0.000 C 
ATOM      2  C   UNL     1      -3.364   1.858   2.653  0.00  0.00    +0.000 C 
ENDROOT
BRANCH   2   3
ATOM      3  C   UNL     1      -2.542   2.259   3.793  0.00  0.00    +0.000 A 
ATOM      4  C   UNL     1      -2.276   3.611   4.035  0.00  0.00    +0.000 A 
ATOM      5  C   UNL     1      -1.486   3.987   5.123  0.00  0.00    +0.000 A 
ATOM      6  C   UNL     1      -0.959   3.015   5.973  0.00  0.00    +0.000 A 
ATOM      7  C   UNL     1      -1.221   1.666   5.736  0.00  0.00    +0.000 A 
ATOM      8  C   UNL     1      -2.011   1.288   4.648  0.00  0.00    +0.000 A 
ENDBRANCH   2   3
BRANCH   1   9
ATOM      9  C   UNL     1      -1.518   1.971   0.893  0.00  0.00    +0.000 C 
BRANCH   9  13
ATOM     10  C   UNL     1       1.124  -0.444  -0.361  0.00  0.00    +0.000 C 
ATOM     11  C   UNL     1       0.361  -1.322   0.631  0.00  0.00    +0.000 C 
ATOM     12  C   UNL     1      -0.632  -0.400   1.331  0.00  0.00    +0.000 C 
ATOM     13  C   UNL     1      -0.892   0.704   0.307  0.00  0.00    +0.000 C 
ATOM     14  C   UNL     1       0.507   0.948  -0.259  0.00  0.00    +0.000 C 
ENDBRANCH   9  13
ENDBRANCH   1   9
TORSDOF 3
