REMARK  Name = *****
REMARK  5 active torsions:
REMARK  status: ('A' for Active; 'I' for Inactive)
REMARK    1  A    between atoms: C_1  and  O_2
REMARK    2  A    between atoms: O_2  and  C_3
REMARK    3  A    between atoms: C_7  and  C_9
REMARK    4  A    between atoms: C_9  and  N_10
REMARK    5  A    between atoms: N_10  and  C_11
REMARK                            x       y       z     vdW  Elec       q    Type
REMARK                         _______ _______ _______ _____ _____    ______ ____
ROOT
ATOM      1  C   UNL     1       3.094  -0.063   1.303  0.00  0.00    +0.000 A 
ATOM      2  C   UNL     1       2.881  -1.231   2.038  0.00  0.00    +0.000 A 
ATOM      3  C   UNL     1       3.625  -1.479   3.196  0.00  0.00    +0.000 A 
ATOM      4  C   UNL     1       4.584  -0.561   3.624  0.00  0.00    +0.000 A 
ATOM      5  C   UNL     1       4.802   0.607   2.893  0.00  0.00    +0.000 A 
ATOM      6  C   UNL     1       4.058   0.853   1.736  0.00  0.00    +0.000 A 
ENDROOT
BRANCH   1   8
ATOM      7  C   UNL     1       1.430  -0.588  -0.312  0.00  0.00    +0.000 C 
ATOM      8  O   UNL     1       2.437   0.299   0.160  0.00  0.00    +0.000 OA
ENDBRANCH   1   8
BRANCH   5   9
ATOM      9  C   UNL     1       5.782   1.552   3.329  0.00  0.00    +0.000 C 
BRANCH   9  10
ATOM     10  N   UNL     1       6.544   2.291   3.670  0.00  0.00    +0.000 NA
BRANCH  10  11
ATOM     11  C   UNL     1       7.487   3.212   4.093  0.00  0.00    +0.000 A 
ATOM     12  C   UNL     1       7.156   4.563   4.104  0.00  0.00    +0.000 A 
ATOM     13  C   UNL     1       8.107   5.488   4.532  0.00  0.00    +0.000 A 
ATOM     14  C   UNL     1       9.370   5.053   4.942  0.00  0.00    +0.000 A 
ATOM     15  C   UNL     1       9.686   3.691   4.925  0.00  0.00    +0.000 A 
ATOM     16  C   UNL     1       8.739   2.761   4.498  0.00  0.00    +0.000 A 
ENDBRANCH  10  11
ENDBRANCH   9  10
ENDBRANCH   5   9
TORSDOF 4
