REMARK  Name = *****
REMARK  3 active torsions:
REMARK  status: ('A' for Active; 'I' for Inactive)
REMARK    1  A    between atoms: C_6  and  O_7
REMARK    2  A    between atoms: O_7  and  C_8
REMARK    3  A    between atoms: C_8  and  C_10
REMARK                            x       y       z     vdW  Elec       q    Type
REMARK                         _______ _______ _______ _____ _____    ______ ____
ROOT
ATOM      1  C   UNL     1       4.516   1.257   0.378  0.00  0.00    +0.000 C 
ATOM      2  O   UNL     1       4.012   2.226   0.926  0.00  0.00    +0.000 OA
ENDROOT
BRANCH   1   3
ATOM      3  C   UNL     1       5.976   1.128   0.184  0.00  0.00    +0.000 A 
ATOM      4  C   UNL     1       6.612  -0.110   0.066  0.00  0.00    +0.000 A 
ATOM      5  C   UNL     1       7.994  -0.188  -0.107  0.00  0.00    +0.000 A 
ATOM      6  C   UNL     1       8.753   0.981  -0.155  0.00  0.00    +0.000 A 
ATOM      7  C   UNL     1       8.120   2.213  -0.022  0.00  0.00    +0.000 A 
ATOM      8  C   UNL     1       6.743   2.300   0.151  0.00  0.00    +0.000 A 
ATOM      9  F   UNL     1       8.850   3.334  -0.061  0.00  0.00    +0.000 F 
ATOM     10  F   UNL     1       5.925  -1.258   0.142  0.00  0.00    +0.000 F 
ENDBRANCH   1   3
BRANCH   1  11
ATOM     11  O   UNL     1       3.868   0.187  -0.205  0.00  0.00    +0.000 OA
BRANCH  11  17
ATOM     12  C   UNL     1       1.685   1.189  -0.637  0.00  0.00    +0.000 A 
ATOM     13  C   UNL     1       0.295   1.097  -0.549  0.00  0.00    +0.000 A 
ATOM     14  C   UNL     1      -0.290  -0.016   0.059  0.00  0.00    +0.000 A 
ATOM     15  C   UNL     1       0.503  -1.043   0.576  0.00  0.00    +0.000 A 
ATOM     16  C   UNL     1       1.893  -0.953   0.492  0.00  0.00    +0.000 A 
ATOM     17  C   UNL     1       2.471   0.172  -0.097  0.00  0.00    +0.000 A 
ATOM     18 CL   UNL     1      -2.004  -0.130   0.162  0.00  0.00    +0.000 Cl
ENDBRANCH  11  17
ENDBRANCH   1  11
TORSDOF 3
