REMARK  Name = *****
REMARK  2 active torsions:
REMARK  status: ('A' for Active; 'I' for Inactive)
REMARK    1  A    between atoms: C_4  and  S_8
REMARK    2  A    between atoms: S_8  and  C_9
REMARK                            x       y       z     vdW  Elec       q    Type
REMARK                         _______ _______ _______ _____ _____    ______ ____
ROOT
ATOM      1  S   UNL     1       1.268  -1.741  -2.124  0.00  0.00    +0.000 S 
ENDROOT
BRANCH   1   5
ATOM      2  C   UNL     1       0.106   0.189   1.255  0.00  0.00    +0.000 C 
ATOM      3  C   UNL     1      -0.162   1.142   0.086  0.00  0.00    +0.000 C 
ATOM      4  C   UNL     1       1.012   0.812  -0.864  0.00  0.00    +0.000 C 
ATOM      5  C   UNL     1       1.243  -0.711  -0.612  0.00  0.00    +0.000 C 
ATOM      6  C   UNL     1       0.086  -1.063   0.366  0.00  0.00    +0.000 C 
ATOM      7  C   UNL     1      -1.258  -0.840  -0.297  0.00  0.00    +0.000 C 
ATOM      8  C   UNL     1      -1.401   0.483  -0.470  0.00  0.00    +0.000 C 
ENDBRANCH   1   5
BRANCH   1   9
ATOM      9  C   UNL     1       2.682  -1.053  -2.966  0.00  0.00    +0.000 A 
ATOM     10  C   UNL     1       3.952  -1.049  -2.383  0.00  0.00    +0.000 A 
ATOM     11  C   UNL     1       5.033  -0.507  -3.079  0.00  0.00    +0.000 A 
ATOM     12  C   UNL     1       4.863   0.023  -4.356  0.00  0.00    +0.000 A 
ATOM     13  C   UNL     1       3.601   0.006  -4.948  0.00  0.00    +0.000 A 
ATOM     14  C   UNL     1       2.515  -0.534  -4.255  0.00  0.00    +0.000 A 
ATOM     15 CL   UNL     1       6.593  -0.495  -2.352  0.00  0.00    +0.000 Cl
ENDBRANCH   1   9
TORSDOF 2
