REMARK  Name = *****
REMARK  6 active torsions:
REMARK  status: ('A' for Active; 'I' for Inactive)
REMARK    1  A    between atoms: C_1  and  C_2
REMARK    2  A    between atoms: C_2  and  N_3
REMARK    3  A    between atoms: N_3  and  C_4
REMARK    4  A    between atoms: N_3  and  C_11
REMARK    5  A    between atoms: C_4  and  C_5
REMARK    6  A    between atoms: C_16  and  C_17
REMARK                            x       y       z     vdW  Elec       q    Type
REMARK                         _______ _______ _______ _____ _____    ______ ____
ROOT
ATOM      1  N   UNL     1       3.078  -0.430   1.540  0.00  0.00    +0.000 N 
ENDROOT
BRANCH   1   2
ATOM      2  C   UNL     1       4.444  -0.092   1.766  0.00  0.00    +0.000 A 
ATOM      3  C   UNL     1       4.940   1.199   1.505  0.00  0.00    +0.000 A 
ATOM      4  C   UNL     1       6.273   1.522   1.759  0.00  0.00    +0.000 A 
ATOM      5  C   UNL     1       7.131   0.562   2.286  0.00  0.00    +0.000 A 
ATOM      6  C   UNL     1       6.657  -0.721   2.555  0.00  0.00    +0.000 A 
ATOM      7  C   UNL     1       5.320  -1.063   2.293  0.00  0.00    +0.000 A 
ATOM      8  C   UNL     1       4.840  -2.452   2.613  0.00  0.00    +0.000 C 
ENDBRANCH   1   2
BRANCH   1  10
ATOM      9  C   UNL     1       1.728  -1.211  -0.382  0.00  0.00    +0.000 C 
ATOM     10  C   UNL     1       2.668  -0.138   0.150  0.00  0.00    +0.000 C 
ENDBRANCH   1  10
BRANCH   1  11
ATOM     11  C   UNL     1       2.248   0.189   2.599  0.00  0.00    +0.000 C 
BRANCH  11  12
ATOM     12  C   UNL     1       0.913  -0.505   2.770  0.00  0.00    +0.000 A 
ATOM     13  C   UNL     1       0.849  -1.887   3.002  0.00  0.00    +0.000 A 
ATOM     14  C   UNL     1      -0.380  -2.521   3.189  0.00  0.00    +0.000 A 
ATOM     15  C   UNL     1      -1.559  -1.779   3.159  0.00  0.00    +0.000 A 
ATOM     16  C   UNL     1      -1.509  -0.403   2.941  0.00  0.00    +0.000 A 
ATOM     17  C   UNL     1      -0.280   0.232   2.750  0.00  0.00    +0.000 A 
ENDBRANCH  11  12
ENDBRANCH   1  11
TORSDOF 4
