REMARK  Name = *****
REMARK  7 active torsions:
REMARK  status: ('A' for Active; 'I' for Inactive)
REMARK    1  A    between atoms: C_1  and  O_2
REMARK    2  A    between atoms: O_2  and  P_3
REMARK    3  A    between atoms: P_3  and  C_5
REMARK    4  A    between atoms: P_3  and  O_11
REMARK    5  A    between atoms: O_11  and  C_12
REMARK    6  A    between atoms: C_15  and  S_18
REMARK    7  A    between atoms: S_18  and  C_19
REMARK                            x       y       z     vdW  Elec       q    Type
REMARK                         _______ _______ _______ _____ _____    ______ ____
ROOT
ATOM      1  P   UNL     1       2.944  -1.679  -0.120  0.00  0.00    +0.000 P 
ATOM      2  S   UNL     1       1.422  -1.977  -1.495  0.00  0.00    +0.000 S 
ENDROOT
BRANCH   1   3
ATOM      3  C   UNL     1       4.487  -0.929  -0.931  0.00  0.00    +0.000 A 
ATOM      4  C   UNL     1       5.277  -0.036  -0.185  0.00  0.00    +0.000 A 
ATOM      5  C   UNL     1       6.204   0.788  -0.829  0.00  0.00    +0.000 A 
ATOM      6  C   UNL     1       6.360   0.719  -2.213  0.00  0.00    +0.000 A 
ATOM      7  C   UNL     1       5.613  -0.195  -2.955  0.00  0.00    +0.000 A 
ATOM      8  C   UNL     1       4.684  -1.021  -2.320  0.00  0.00    +0.000 A 
ENDBRANCH   1   3
BRANCH   1  10
ATOM      9  C   UNL     1       1.566   0.233   1.188  0.00  0.00    +0.000 C 
ATOM     10  O   UNL     1       2.367  -0.059   0.061  0.00  0.00    +0.000 OA
ENDBRANCH   1  10
BRANCH   1  11
ATOM     11  O   UNL     1       3.520  -3.300  -0.301  0.00  0.00    +0.000 OA
BRANCH  11  12
ATOM     12  C   UNL     1       2.860  -4.346   0.326  0.00  0.00    +0.000 A 
ATOM     13  C   UNL     1       1.686  -4.203   1.072  0.00  0.00    +0.000 A 
ATOM     14  C   UNL     1       1.009  -5.332   1.553  0.00  0.00    +0.000 A 
ATOM     15  C   UNL     1       1.516  -6.612   1.333  0.00  0.00    +0.000 A 
ATOM     16  C   UNL     1       2.724  -6.744   0.644  0.00  0.00    +0.000 A 
ATOM     17  C   UNL     1       3.390  -5.617   0.139  0.00  0.00    +0.000 A 
BRANCH  15  18
ATOM     18  S   UNL     1       0.688  -8.061   1.959  0.00  0.00    +0.000 S 
ATOM     19  C   UNL     1      -0.891  -7.964   1.066  0.00  0.00    +0.000 C 
ENDBRANCH  15  18
ENDBRANCH  11  12
ENDBRANCH   1  11
TORSDOF 5
