REMARK  Name = *****
REMARK  3 active torsions:
REMARK  status: ('A' for Active; 'I' for Inactive)
REMARK    1  A    between atoms: C_4  and  C_7
REMARK    2  A    between atoms: C_8  and  C_9
REMARK    3  A    between atoms: C_12  and  C_15
REMARK                            x       y       z     vdW  Elec       q    Type
REMARK                         _______ _______ _______ _____ _____    ______ ____
ROOT
ATOM      1  C   UNL     1      -0.934   1.233   4.416  0.00  0.00    +0.000 A 
ATOM      2  C   UNL     1       0.203   1.417   5.212  0.00  0.00    +0.000 A 
ATOM      3  C   UNL     1       0.143   1.219   6.595  0.00  0.00    +0.000 A 
ATOM      4  C   UNL     1      -1.058   0.836   7.210  0.00  0.00    +0.000 A 
ATOM      5  C   UNL     1      -2.202   0.677   6.413  0.00  0.00    +0.000 A 
ATOM      6  C   UNL     1      -2.139   0.876   5.031  0.00  0.00    +0.000 A 
ENDROOT
BRANCH   4   7
ATOM      7  C   UNL     1      -1.135   0.644   8.704  0.00  0.00    +0.000 C 
ATOM      8  F   UNL     1       0.065   0.331   9.268  0.00  0.00    +0.000 F 
ATOM      9  F   UNL     1      -1.571   1.760   9.349  0.00  0.00    +0.000 F 
ATOM     10  F   UNL     1      -1.986  -0.356   9.069  0.00  0.00    +0.000 F 
ENDBRANCH   4   7
BRANCH   1  12
ATOM     11  C   UNL     1       0.076   1.039   2.160  0.00  0.00    +0.000 C 
ATOM     12  C   UNL     1      -0.913   1.462   2.967  0.00  0.00    +0.000 C 
BRANCH  11  16
ATOM     13  C   UNL     1       2.731  -0.191  -0.340  0.00  0.00    +0.000 C 
ATOM     14  C   UNL     1       2.880   1.101   0.449  0.00  0.00    +0.000 C 
ATOM     15  S   UNL     1       1.519   2.269   0.175  0.00  0.00    +0.000 S 
ATOM     16  C   UNL     1       0.096   1.268   0.676  0.00  0.00    +0.000 C 
ATOM     17  S   UNL     1      -0.053  -0.284  -0.242  0.00  0.00    +0.000 S 
ATOM     18  C   UNL     1       1.555  -1.047   0.105  0.00  0.00    +0.000 C 
ENDBRANCH  11  16
ENDBRANCH   1  12
TORSDOF 3
