REMARK  Name = *****
REMARK  5 active torsions:
REMARK  status: ('A' for Active; 'I' for Inactive)
REMARK    1  A    between atoms: C_1  and  O_2
REMARK    2  A    between atoms: O_2  and  C_3
REMARK    3  A    between atoms: C_6  and  C_9
REMARK    4  A    between atoms: C_10  and  C_11
REMARK    5  A    between atoms: C_14  and  C_16
REMARK                            x       y       z     vdW  Elec       q    Type
REMARK                         _______ _______ _______ _____ _____    ______ ____
ROOT
ATOM      1  C   UNL     1       5.108   1.237  -4.795  0.00  0.00    +0.000 C 
ATOM      2  C   UNL     1       5.294   2.484  -5.255  0.00  0.00    +0.000 C 
ENDROOT
BRANCH   1   6
ATOM      3  C   UNL     1       3.118   0.237  -1.129  0.00  0.00    +0.000 A 
ATOM      4  C   UNL     1       2.633   1.280  -1.917  0.00  0.00    +0.000 A 
ATOM      5  C   UNL     1       3.279   1.621  -3.112  0.00  0.00    +0.000 A 
ATOM      6  C   UNL     1       4.424   0.931  -3.531  0.00  0.00    +0.000 A 
ATOM      7  C   UNL     1       4.895  -0.125  -2.744  0.00  0.00    +0.000 A 
ATOM      8  C   UNL     1       4.249  -0.463  -1.551  0.00  0.00    +0.000 A 
BRANCH   3  10
ATOM      9  C   UNL     1       1.426   0.482   0.523  0.00  0.00    +0.000 C 
ATOM     10  O   UNL     1       2.584  -0.197   0.052  0.00  0.00    +0.000 OA
ENDBRANCH   3  10
ENDBRANCH   1   6
BRANCH   2  11
ATOM     11  C   UNL     1       5.967   2.737  -6.481  0.00  0.00    +0.000 A 
ATOM     12  N   UNL     1       6.189   3.931  -7.010  0.00  0.00    +0.000 NA
ATOM     13  N   UNL     1       6.862   3.757  -8.198  0.00  0.00    +0.000 NA
ATOM     14  C   UNL     1       7.022   2.459  -8.346  0.00  0.00    +0.000 A 
ATOM     15  O   UNL     1       6.485   1.749  -7.302  0.00  0.00    +0.000 OA
BRANCH  14  16
ATOM     16  C   UNL     1       7.675   1.687  -9.432  0.00  0.00    +0.000 C 
ATOM     17  F   UNL     1       8.101   2.470 -10.459  0.00  0.00    +0.000 F 
ATOM     18  F   UNL     1       8.765   1.003  -8.990  0.00  0.00    +0.000 F 
ATOM     19  F   UNL     1       6.837   0.762  -9.977  0.00  0.00    +0.000 F 
ENDBRANCH  14  16
ENDBRANCH   2  11
TORSDOF 4
