REMARK  Name = *****
REMARK  4 active torsions:
REMARK  status: ('A' for Active; 'I' for Inactive)
REMARK    1  A    between atoms: C_1  and  C_2
REMARK    2  A    between atoms: C_2  and  O_3
REMARK    3  A    between atoms: O_3  and  C_4
REMARK    4  A    between atoms: C_11  and  C_14
REMARK                            x       y       z     vdW  Elec       q    Type
REMARK                         _______ _______ _______ _____ _____    ______ ____
ROOT
ATOM      1  C   UNL     1       4.499  -1.474  -0.450  0.00  0.00    +0.000 A 
ATOM      2  C   UNL     1       5.359  -1.036   0.563  0.00  0.00    +0.000 A 
ATOM      3  C   UNL     1       6.739  -1.206   0.444  0.00  0.00    +0.000 A 
ATOM      4  C   UNL     1       7.273  -1.816  -0.687  0.00  0.00    +0.000 A 
ATOM      5  C   UNL     1       6.433  -2.252  -1.723  0.00  0.00    +0.000 A 
ATOM      6  C   UNL     1       5.036  -2.084  -1.606  0.00  0.00    +0.000 A 
ATOM      7  C   UNL     1       4.150  -2.564  -2.688  0.00  0.00    +0.000 C 
ATOM      8  C   UNL     1       4.555  -2.823  -3.942  0.00  0.00    +0.000 C 
ATOM      9  S   UNL     1       6.192  -2.630  -4.469  0.00  0.00    +0.000 S 
ATOM     10  C   UNL     1       7.034  -2.974  -2.903  0.00  0.00    +0.000 C 
ENDROOT
BRANCH   8  11
ATOM     11  C   UNL     1       3.590  -3.263  -4.962  0.00  0.00    +0.000 A 
ATOM     12  C   UNL     1       3.205  -2.404  -6.000  0.00  0.00    +0.000 A 
ATOM     13  C   UNL     1       2.274  -2.819  -6.955  0.00  0.00    +0.000 A 
ATOM     14  C   UNL     1       1.719  -4.095  -6.878  0.00  0.00    +0.000 A 
ATOM     15  C   UNL     1       2.091  -4.957  -5.848  0.00  0.00    +0.000 A 
ATOM     16  C   UNL     1       3.022  -4.543  -4.893  0.00  0.00    +0.000 A 
ENDBRANCH   8  11
BRANCH   1  17
ATOM     17  O   UNL     1       3.132  -1.349  -0.404  0.00  0.00    +0.000 OA
BRANCH  17  19
ATOM     18  C   UNL     1       1.052  -0.662   0.528  0.00  0.00    +0.000 C 
ATOM     19  C   UNL     1       2.557  -0.696   0.726  0.00  0.00    +0.000 C 
ENDBRANCH  17  19
ENDBRANCH   1  17
TORSDOF 3
