REMARK  Name = *****
REMARK  5 active torsions:
REMARK  status: ('A' for Active; 'I' for Inactive)
REMARK    1  A    between atoms: C_1  and  C_2
REMARK    2  A    between atoms: C_4  and  C_8
REMARK    3  A    between atoms: C_8  and  C_9
REMARK    4  A    between atoms: C_9  and  C_11
REMARK    5  A    between atoms: C_15  and  C_17
REMARK                            x       y       z     vdW  Elec       q    Type
REMARK                         _______ _______ _______ _____ _____    ______ ____
ROOT
ATOM      1  C   UNL     1      -0.514   3.586   0.086  0.00  0.00    +0.000 C 
ATOM      2  O   UNL     1      -0.365   4.375  -0.850  0.00  0.00    +0.000 OA
ENDROOT
BRANCH   1   3
ATOM      3  C   UNL     1       0.303   3.764   1.328  0.00  0.00    +0.000 A 
ATOM      4  C   UNL     1       0.161   2.946   2.454  0.00  0.00    +0.000 A 
ATOM      5  C   UNL     1       0.956   3.160   3.582  0.00  0.00    +0.000 A 
ATOM      6  C   UNL     1       1.896   4.190   3.596  0.00  0.00    +0.000 A 
ATOM      7  C   UNL     1       2.061   5.012   2.476  0.00  0.00    +0.000 A 
ATOM      8  C   UNL     1       1.251   4.800   1.352  0.00  0.00    +0.000 A 
ATOM      9  C   UNL     1       3.047   6.142   2.500  0.00  0.00    +0.000 C 
ENDBRANCH   1   3
BRANCH   1  10
ATOM     10  C   UNL     1      -1.517   2.452  -0.013  0.00  0.00    +0.000 C 
BRANCH  10  14
ATOM     11  C   UNL     1       2.084  -0.686  -1.694  0.00  0.00    +0.000 C 
ATOM     12  C   UNL     1       0.798  -0.456  -0.956  0.00  0.00    +0.000 A 
ATOM     13  C   UNL     1       0.259   0.834  -0.852  0.00  0.00    +0.000 A 
ATOM     14  C   UNL     1      -0.913   1.070  -0.117  0.00  0.00    +0.000 A 
ATOM     15  C   UNL     1      -1.562  -0.016   0.485  0.00  0.00    +0.000 A 
ATOM     16  C   UNL     1      -1.028  -1.301   0.392  0.00  0.00    +0.000 A 
ATOM     17  C   UNL     1       0.153  -1.519  -0.315  0.00  0.00    +0.000 A 
ENDBRANCH  10  14
ENDBRANCH   1  10
TORSDOF 3
