REMARK  Name = *****
REMARK  2 active torsions:
REMARK  status: ('A' for Active; 'I' for Inactive)
REMARK    1  A    between atoms: C_4  and  C_7
REMARK    2  A    between atoms: N_9  and  C_10
REMARK                            x       y       z     vdW  Elec       q    Type
REMARK                         _______ _______ _______ _____ _____    ______ ____
ROOT
ATOM      1  C   UNL     1      -2.932   0.877  -0.411  0.00  0.00    +0.000 C 
ATOM      2  C   UNL     1      -4.165   0.427   0.318  0.00  0.00    +0.000 C 
ATOM      3  N   UNL     1      -4.056   0.226  -1.120  0.00  0.00    +0.000 N 
ATOM      4 CL   UNL     1      -5.325   1.608   0.860  0.00  0.00    +0.000 Cl
ENDROOT
BRANCH   1   8
ATOM      5  C   UNL     1       0.944  -0.954   0.234  0.00  0.00    +0.000 A 
ATOM      6  C   UNL     1       0.474  -0.749  -1.060  0.00  0.00    +0.000 A 
ATOM      7  C   UNL     1      -0.776  -0.160  -1.263  0.00  0.00    +0.000 A 
ATOM      8  C   UNL     1      -1.594   0.223  -0.185  0.00  0.00    +0.000 A 
ATOM      9  C   UNL     1      -1.085   0.022   1.110  0.00  0.00    +0.000 A 
ATOM     10  C   UNL     1       0.166  -0.565   1.320  0.00  0.00    +0.000 A 
ENDBRANCH   1   8
BRANCH   3  11
ATOM     11  C   UNL     1      -3.982  -1.086  -1.651  0.00  0.00    +0.000 A 
ATOM     12  C   UNL     1      -3.504  -2.223  -0.986  0.00  0.00    +0.000 A 
ATOM     13  C   UNL     1      -3.487  -3.473  -1.616  0.00  0.00    +0.000 A 
ATOM     14  C   UNL     1      -3.955  -3.609  -2.920  0.00  0.00    +0.000 A 
ATOM     15  C   UNL     1      -4.441  -2.496  -3.596  0.00  0.00    +0.000 A 
ATOM     16  C   UNL     1      -4.454  -1.249  -2.965  0.00  0.00    +0.000 A 
ENDBRANCH   3  11
TORSDOF 2
