REMARK  Name = *****
REMARK  5 active torsions:
REMARK  status: ('A' for Active; 'I' for Inactive)
REMARK    1  A    between atoms: C_1  and  C_2
REMARK    2  A    between atoms: C_3  and  C_9
REMARK    3  A    between atoms: C_9  and  C_10
REMARK    4  A    between atoms: C_10  and  C_11
REMARK    5  A    between atoms: C_15  and  C_17
REMARK                            x       y       z     vdW  Elec       q    Type
REMARK                         _______ _______ _______ _____ _____    ______ ____
ROOT
ATOM      1  C   UNL     1       0.081  -2.525  -0.362  0.00  0.00    +0.000 C 
ENDROOT
BRANCH   1   4
ATOM      2  C   UNL     1       0.806   0.037  -1.907  0.00  0.00    +0.000 C 
ATOM      3  C   UNL     1       0.543  -0.018  -0.423  0.00  0.00    +0.000 C 
ATOM      4  C   UNL     1       0.185  -1.141   0.239  0.00  0.00    +0.000 C 
ATOM      5  C   UNL     1      -0.149  -1.058   1.704  0.00  0.00    +0.000 C 
ATOM      6  O   UNL     1      -0.505  -2.062   2.321  0.00  0.00    +0.000 OA
ATOM      7  C   UNL     1      -0.136   0.294   2.378  0.00  0.00    +0.000 C 
ATOM      8  C   UNL     1       0.917   1.194   1.764  0.00  0.00    +0.000 C 
ATOM      9  C   UNL     1       0.709   1.321   0.262  0.00  0.00    +0.000 C 
ENDBRANCH   1   4
BRANCH   1  10
ATOM     10  C   UNL     1      -1.355  -2.865  -0.771  0.00  0.00    +0.000 C 
BRANCH  10  11
ATOM     11  C   UNL     1      -1.448  -4.247  -1.369  0.00  0.00    +0.000 A 
ATOM     12  C   UNL     1      -1.687  -5.356  -0.548  0.00  0.00    +0.000 A 
ATOM     13  C   UNL     1      -1.760  -6.636  -1.096  0.00  0.00    +0.000 A 
ATOM     14  C   UNL     1      -1.582  -6.821  -2.467  0.00  0.00    +0.000 A 
ATOM     15  C   UNL     1      -1.318  -5.729  -3.301  0.00  0.00    +0.000 A 
ATOM     16  C   UNL     1      -1.265  -4.443  -2.745  0.00  0.00    +0.000 A 
ATOM     17  C   UNL     1      -1.156  -5.923  -4.779  0.00  0.00    +0.000 C 
ENDBRANCH  10  11
ENDBRANCH   1  10
TORSDOF 3
