REMARK  Name = *****
REMARK  4 active torsions:
REMARK  status: ('A' for Active; 'I' for Inactive)
REMARK    1  A    between atoms: C_1  and  C_2
REMARK    2  A    between atoms: C_7  and  N_8
REMARK    3  A    between atoms: N_8  and  C_9
REMARK    4  A    between atoms: C_9  and  C_11
REMARK                            x       y       z     vdW  Elec       q    Type
REMARK                         _______ _______ _______ _____ _____    ______ ____
ROOT
ATOM      1  N   UNL     1       1.284  -2.163   0.196  0.00  0.00    +0.000 N 
ATOM      2  H   UNL     1       0.788  -2.934  -0.163  0.00  0.00    +0.000 HD
ENDROOT
BRANCH   1   9
ATOM      3  C   UNL     1      -0.973  -2.025  -1.615  0.00  0.00    +0.000 C 
ATOM      4  C   UNL     1      -0.544  -0.867  -0.752  0.00  0.00    +0.000 A 
ATOM      5  C   UNL     1      -1.290   0.324  -0.829  0.00  0.00    +0.000 A 
ATOM      6  C   UNL     1      -0.944   1.434  -0.064  0.00  0.00    +0.000 A 
ATOM      7  C   UNL     1       0.144   1.362   0.795  0.00  0.00    +0.000 A 
ATOM      8  C   UNL     1       0.892   0.184   0.885  0.00  0.00    +0.000 A 
ATOM      9  C   UNL     1       0.576  -0.937   0.110  0.00  0.00    +0.000 A 
ENDBRANCH   1   9
BRANCH   1  10
ATOM     10  C   UNL     1       2.544  -2.485   0.689  0.00  0.00    +0.000 C 
ATOM     11  S   UNL     1       3.805  -1.460   1.108  0.00  0.00    +0.000 S 
BRANCH  10  12
ATOM     12  C   UNL     1       2.739  -3.966   0.756  0.00  0.00    +0.000 A 
ATOM     13  C   UNL     1       3.739  -4.594   0.003  0.00  0.00    +0.000 A 
ATOM     14  C   UNL     1       3.879  -5.981   0.061  0.00  0.00    +0.000 A 
ATOM     15  C   UNL     1       3.024  -6.739   0.863  0.00  0.00    +0.000 A 
ATOM     16  C   UNL     1       2.025  -6.114   1.610  0.00  0.00    +0.000 A 
ATOM     17  C   UNL     1       1.878  -4.727   1.557  0.00  0.00    +0.000 A 
ENDBRANCH  10  12
ENDBRANCH   1  10
TORSDOF 3
