REMARK  Name = *****
REMARK  3 active torsions:
REMARK  status: ('A' for Active; 'I' for Inactive)
REMARK    1  A    between atoms: C_1  and  N_2
REMARK    2  A    between atoms: N_2  and  C_12
REMARK    3  A    between atoms: N_4  and  C_5
REMARK                            x       y       z     vdW  Elec       q    Type
REMARK                         _______ _______ _______ _____ _____    ______ ____
ROOT
ATOM      1  C   UNL     1       0.967   0.350  -0.367  0.00  0.00    +0.000 C 
ATOM      2  N   UNL     1       2.349   0.057   0.006  0.00  0.00    +0.000 N 
ATOM      3  C   UNL     1       2.941   0.789   1.015  0.00  0.00    +0.000 C 
ATOM      4  N   UNL     1       2.354   1.647   1.791  0.00  0.00    +0.000 NA
ENDROOT
BRANCH   4   5
ATOM      5  C   UNL     1       3.170   2.281   2.734  0.00  0.00    +0.000 A 
ATOM      6  C   UNL     1       3.931   3.400   2.381  0.00  0.00    +0.000 A 
ATOM      7  C   UNL     1       4.730   4.041   3.331  0.00  0.00    +0.000 A 
ATOM      8  C   UNL     1       4.759   3.566   4.641  0.00  0.00    +0.000 A 
ATOM      9  C   UNL     1       3.992   2.462   5.009  0.00  0.00    +0.000 A 
ATOM     10  C   UNL     1       3.195   1.825   4.055  0.00  0.00    +0.000 A 
ATOM     11 CL   UNL     1       5.741   4.353   5.814  0.00  0.00    +0.000 Cl
ENDBRANCH   4   5
BRANCH   2  12
ATOM     12  C   UNL     1       3.071  -0.831  -0.825  0.00  0.00    +0.000 A 
ATOM     13  C   UNL     1       2.769  -0.994  -2.189  0.00  0.00    +0.000 A 
ATOM     14  C   UNL     1       3.496  -1.871  -3.002  0.00  0.00    +0.000 A 
ATOM     15  C   UNL     1       4.544  -2.612  -2.468  0.00  0.00    +0.000 A 
ATOM     16  C   UNL     1       4.864  -2.476  -1.123  0.00  0.00    +0.000 A 
ATOM     17  C   UNL     1       4.136  -1.596  -0.314  0.00  0.00    +0.000 A 
ENDBRANCH   2  12
TORSDOF 2
