REMARK  Name = *****
REMARK  3 active torsions:
REMARK  status: ('A' for Active; 'I' for Inactive)
REMARK    1  A    between atoms: C_5  and  C_7
REMARK    2  A    between atoms: C_7  and  O_9
REMARK    3  A    between atoms: O_9  and  C_10
REMARK                            x       y       z     vdW  Elec       q    Type
REMARK                         _______ _______ _______ _____ _____    ______ ____
ROOT
ATOM      1  C   UNL     1       0.910  -2.204  -0.615  0.00  0.00    +0.000 C 
ATOM      2  O   UNL     1       0.470  -3.334  -0.462  0.00  0.00    +0.000 OA
ENDROOT
BRANCH   1   7
ATOM      3  C   UNL     1      -1.939   0.013   0.453  0.00  0.00    +0.000 A 
ATOM      4  C   UNL     1      -1.291   1.221   0.711  0.00  0.00    +0.000 A 
ATOM      5  C   UNL     1       0.091   1.317   0.548  0.00  0.00    +0.000 A 
ATOM      6  C   UNL     1       0.821   0.209   0.120  0.00  0.00    +0.000 A 
ATOM      7  C   UNL     1       0.182  -1.000  -0.157  0.00  0.00    +0.000 A 
ATOM      8  C   UNL     1      -1.206  -1.096   0.024  0.00  0.00    +0.000 A 
ATOM      9  F   UNL     1       2.151   0.339   0.010  0.00  0.00    +0.000 F 
ENDBRANCH   1   7
BRANCH   1  10
ATOM     10  O   UNL     1       2.062  -1.836  -1.280  0.00  0.00    +0.000 OA
BRANCH  10  11
ATOM     11  C   UNL     1       2.789  -2.918  -1.783  0.00  0.00    +0.000 A 
ATOM     12  C   UNL     1       2.380  -3.549  -2.959  0.00  0.00    +0.000 A 
ATOM     13  C   UNL     1       3.150  -4.592  -3.471  0.00  0.00    +0.000 A 
ATOM     14  C   UNL     1       4.316  -4.974  -2.811  0.00  0.00    +0.000 A 
ATOM     15  C   UNL     1       4.732  -4.328  -1.649  0.00  0.00    +0.000 A 
ATOM     16  C   UNL     1       3.967  -3.284  -1.130  0.00  0.00    +0.000 A 
ATOM     17  F   UNL     1       5.055  -5.974  -3.308  0.00  0.00    +0.000 F 
ENDBRANCH  10  11
ENDBRANCH   1  10
TORSDOF 3
