REMARK  Name = *****
REMARK  3 active torsions:
REMARK  status: ('A' for Active; 'I' for Inactive)
REMARK    1  A    between atoms: C_4  and  C_7
REMARK    2  A    between atoms: C_7  and  S_8
REMARK    3  A    between atoms: S_8  and  C_9
REMARK                            x       y       z     vdW  Elec       q    Type
REMARK                         _______ _______ _______ _____ _____    ______ ____
ROOT
ATOM      1  S   UNL     1      -3.749  -1.280  -0.437  0.00  0.00    +0.000 S 
ENDROOT
BRANCH   1   2
ATOM      2  C   UNL     1      -5.406  -0.682  -0.756  0.00  0.00    +0.000 A 
ATOM      3  C   UNL     1      -5.863  -0.742  -2.081  0.00  0.00    +0.000 A 
ATOM      4  C   UNL     1      -7.144  -0.298  -2.416  0.00  0.00    +0.000 A 
ATOM      5  C   UNL     1      -7.987   0.206  -1.429  0.00  0.00    +0.000 A 
ATOM      6  C   UNL     1      -7.551   0.262  -0.105  0.00  0.00    +0.000 A 
ATOM      7  C   UNL     1      -6.268  -0.183   0.235  0.00  0.00    +0.000 A 
ATOM      8 CL   UNL     1      -5.817  -0.094   1.903  0.00  0.00    +0.000 Cl
ENDBRANCH   1   2
BRANCH   1   9
ATOM      9  C   UNL     1      -2.890   0.323  -0.309  0.00  0.00    +0.000 C 
BRANCH   9  13
ATOM     10  C   UNL     1       1.330  -0.227   0.397  0.00  0.00    +0.000 A 
ATOM     11  C   UNL     1       0.853  -0.093  -0.906  0.00  0.00    +0.000 A 
ATOM     12  C   UNL     1      -0.512   0.086  -1.137  0.00  0.00    +0.000 A 
ATOM     13  C   UNL     1      -1.414   0.139  -0.064  0.00  0.00    +0.000 A 
ATOM     14  C   UNL     1      -0.923  -0.007   1.242  0.00  0.00    +0.000 A 
ATOM     15  C   UNL     1       0.442  -0.186   1.470  0.00  0.00    +0.000 A 
ENDBRANCH   9  13
ENDBRANCH   1   9
TORSDOF 3
