REMARK  Name = *****
REMARK  4 active torsions:
REMARK  status: ('A' for Active; 'I' for Inactive)
REMARK    1  A    between atoms: C_4  and  C_7
REMARK    2  A    between atoms: C_7  and  S_8
REMARK    3  A    between atoms: S_8  and  C_9
REMARK    4  A    between atoms: C_10  and  C_11
REMARK                            x       y       z     vdW  Elec       q    Type
REMARK                         _______ _______ _______ _____ _____    ______ ____
ROOT
ATOM      1  S   UNL     1      -3.515  -1.172  -0.997  0.00  0.00    +0.000 S 
ENDROOT
BRANCH   1   2
ATOM      2  C   UNL     1      -5.200  -0.779  -1.002  0.00  0.00    +0.000 C 
ATOM      3  C   UNL     1      -6.202  -1.597  -1.366  0.00  0.00    +0.000 C 
BRANCH   3   4
ATOM      4  C   UNL     1      -6.162  -2.940  -1.864  0.00  0.00    +0.000 A 
ATOM      5  C   UNL     1      -7.133  -3.861  -1.526  0.00  0.00    +0.000 A 
ATOM      6  S   UNL     1      -6.878  -5.385  -2.265  0.00  0.00    +0.000 S 
ATOM      7  C   UNL     1      -5.481  -4.818  -3.069  0.00  0.00    +0.000 A 
ATOM      8  C   UNL     1      -5.216  -3.497  -2.777  0.00  0.00    +0.000 A 
ENDBRANCH   3   4
ENDBRANCH   1   2
BRANCH   1   9
ATOM      9  C   UNL     1      -2.817   0.324  -0.237  0.00  0.00    +0.000 C 
BRANCH   9  13
ATOM     10  C   UNL     1       1.468   0.038   0.163  0.00  0.00    +0.000 A 
ATOM     11  C   UNL     1       0.911   0.610  -0.979  0.00  0.00    +0.000 A 
ATOM     12  C   UNL     1      -0.475   0.704  -1.110  0.00  0.00    +0.000 A 
ATOM     13  C   UNL     1      -1.320   0.232  -0.094  0.00  0.00    +0.000 A 
ATOM     14  C   UNL     1      -0.747  -0.351   1.047  0.00  0.00    +0.000 A 
ATOM     15  C   UNL     1       0.639  -0.444   1.175  0.00  0.00    +0.000 A 
ENDBRANCH   9  13
ENDBRANCH   1   9
TORSDOF 4
