REMARK  Name = *****
REMARK  7 active torsions:
REMARK  status: ('A' for Active; 'I' for Inactive)
REMARK    1  A    between atoms: C_1  and  C_2
REMARK    2  A    between atoms: C_5  and  S_8
REMARK    3  A    between atoms: S_8  and  C_9
REMARK    4  A    between atoms: C_9  and  C_10
REMARK    5  A    between atoms: C_12  and  C_15
REMARK    6  A    between atoms: C_15  and  C_16
REMARK    7  A    between atoms: C_15  and  C_17
REMARK                            x       y       z     vdW  Elec       q    Type
REMARK                         _______ _______ _______ _____ _____    ______ ____
ROOT
ATOM      1  C   UNL     1      -4.171   1.557  -0.013  0.00  0.00    +0.000 C 
ENDROOT
BRANCH   1   2
ATOM      2  C   UNL     1      -5.662   1.667  -0.043  0.00  0.00    +0.000 C 
ATOM      3  N   UNL     1      -6.342   2.373  -0.893  0.00  0.00    +0.000 NA
ATOM      4  C   UNL     1      -7.737   2.197  -0.438  0.00  0.00    +0.000 C 
ATOM      5  C   UNL     1      -7.671   0.981   0.472  0.00  0.00    +0.000 C 
ATOM      6  O   UNL     1      -6.318   0.950   0.900  0.00  0.00    +0.000 OA
BRANCH   4   7
ATOM      7  C   UNL     1      -8.687   2.039  -1.637  0.00  0.00    +0.000 C 
ATOM      8  C   UNL     1      -8.676   3.294  -2.516  0.00  0.00    +0.000 C 
ATOM      9  C   UNL     1     -10.121   1.751  -1.182  0.00  0.00    +0.000 C 
ENDBRANCH   4   7
ENDBRANCH   1   2
BRANCH   1  10
ATOM     10  S   UNL     1      -3.663   0.024  -0.855  0.00  0.00    +0.000 S 
BRANCH  10  15
ATOM     11  C   UNL     1       2.326   0.074   0.278  0.00  0.00    +0.000 C 
ATOM     12  C   UNL     1       0.848   0.084   0.022  0.00  0.00    +0.000 A 
ATOM     13  C   UNL     1       0.260   1.130  -0.698  0.00  0.00    +0.000 A 
ATOM     14  C   UNL     1      -1.111   1.123  -0.967  0.00  0.00    +0.000 A 
ATOM     15  C   UNL     1      -1.913   0.069  -0.521  0.00  0.00    +0.000 A 
ATOM     16  C   UNL     1      -1.323  -0.991   0.171  0.00  0.00    +0.000 A 
ATOM     17  C   UNL     1       0.048  -0.985   0.441  0.00  0.00    +0.000 A 
ENDBRANCH  10  15
ENDBRANCH   1  10
TORSDOF 4
