REMARK  Name = *****
REMARK  3 active torsions:
REMARK  status: ('A' for Active; 'I' for Inactive)
REMARK    1  A    between atoms: C_4  and  C_7
REMARK    2  A    between atoms: C_7  and  O_8
REMARK    3  A    between atoms: O_8  and  C_9
REMARK                            x       y       z     vdW  Elec       q    Type
REMARK                         _______ _______ _______ _____ _____    ______ ____
ROOT
ATOM      1  C   UNL     1      -4.974  -0.729  -0.198  0.00  0.00    +0.000 C 
ATOM      2  C   UNL     1      -5.805   0.291  -0.464  0.00  0.00    +0.000 C 
ATOM      3  C   UNL     1      -7.225  -0.171  -0.477  0.00  0.00    +0.000 C 
ATOM      4  C   UNL     1      -7.050  -1.649  -0.792  0.00  0.00    +0.000 C 
ATOM      5  C   UNL     1      -5.787  -1.981  -0.007  0.00  0.00    +0.000 C 
ATOM      6  F   UNL     1      -6.058  -2.168   1.310  0.00  0.00    +0.000 F 
ATOM      7  F   UNL     1      -5.190  -3.109  -0.457  0.00  0.00    +0.000 F 
ATOM      8  F   UNL     1      -8.117  -2.412  -0.478  0.00  0.00    +0.000 F 
ATOM      9  F   UNL     1      -6.830  -1.818  -2.132  0.00  0.00    +0.000 F 
ATOM     10  F   UNL     1      -8.004   0.462  -1.384  0.00  0.00    +0.000 F 
ATOM     11  F   UNL     1      -7.795   0.019   0.740  0.00  0.00    +0.000 F 
ATOM     12  F   UNL     1      -5.416   1.558  -0.682  0.00  0.00    +0.000 F 
ENDROOT
BRANCH   1  13
ATOM     13  O   UNL     1      -3.615  -0.781  -0.078  0.00  0.00    +0.000 OA
BRANCH  13  14
ATOM     14  C   UNL     1      -2.899   0.443  -0.270  0.00  0.00    +0.000 C 
BRANCH  14  18
ATOM     15  C   UNL     1       1.355  -0.208   0.099  0.00  0.00    +0.000 A 
ATOM     16  C   UNL     1       0.566  -1.139  -0.572  0.00  0.00    +0.000 A 
ATOM     17  C   UNL     1      -0.811  -0.937  -0.686  0.00  0.00    +0.000 A 
ATOM     18  C   UNL     1      -1.417   0.194  -0.119  0.00  0.00    +0.000 A 
ATOM     19  C   UNL     1      -0.608   1.131   0.542  0.00  0.00    +0.000 A 
ATOM     20  C   UNL     1       0.769   0.928   0.654  0.00  0.00    +0.000 A 
ENDBRANCH  14  18
ENDBRANCH  13  14
ENDBRANCH   1  13
TORSDOF 3
