REMARK  Name = *****
REMARK  3 active torsions:
REMARK  status: ('A' for Active; 'I' for Inactive)
REMARK    1  A    between atoms: C_5  and  C_6
REMARK    2  A    between atoms: C_6  and  C_14
REMARK    3  A    between atoms: N_7  and  C_8
REMARK                            x       y       z     vdW  Elec       q    Type
REMARK                         _______ _______ _______ _____ _____    ______ ____
ROOT
ATOM      1  C   UNL     1      -2.510  -0.835   0.062  0.00  0.00    +0.000 C 
ATOM      2  N   UNL     1      -3.549  -0.083  -0.172  0.00  0.00    +0.000 NA
ENDROOT
BRANCH   2   3
ATOM      3  C   UNL     1      -3.437   1.310  -0.255  0.00  0.00    +0.000 A 
ATOM      4  C   UNL     1      -2.847   1.928  -1.362  0.00  0.00    +0.000 A 
ATOM      5  C   UNL     1      -2.767   3.321  -1.435  0.00  0.00    +0.000 A 
ATOM      6  C   UNL     1      -3.295   4.104  -0.410  0.00  0.00    +0.000 A 
ATOM      7  C   UNL     1      -3.911   3.496   0.683  0.00  0.00    +0.000 A 
ATOM      8  C   UNL     1      -3.988   2.104   0.754  0.00  0.00    +0.000 A 
ENDBRANCH   2   3
BRANCH   1  13
ATOM      9  C   UNL     1       0.071  -0.951  -0.414  0.00  0.00    +0.000 C 
ATOM     10  C   UNL     1       1.203  -0.189   0.214  0.00  0.00    +0.000 C 
ATOM     11  C   UNL     1       0.723   0.660   1.138  0.00  0.00    +0.000 C 
ATOM     12  C   UNL     1      -0.713   0.538   1.202  0.00  0.00    +0.000 C 
ATOM     13  C   UNL     1      -1.114  -0.372   0.302  0.00  0.00    +0.000 C 
ENDBRANCH   1  13
BRANCH   1  14
ATOM     14  C   UNL     1      -2.688  -2.358   0.071  0.00  0.00    +0.000 C 
ATOM     15  F   UNL     1      -2.048  -2.945   1.123  0.00  0.00    +0.000 F 
ATOM     16  F   UNL     1      -3.985  -2.764   0.140  0.00  0.00    +0.000 F 
ATOM     17  F   UNL     1      -2.163  -2.929  -1.051  0.00  0.00    +0.000 F 
ENDBRANCH   1  14
TORSDOF 3
