REMARK  Name = *****
REMARK  3 active torsions:
REMARK  status: ('A' for Active; 'I' for Inactive)
REMARK    1  A    between atoms: C_1  and  C_2
REMARK    2  A    between atoms: C_5  and  C_8
REMARK    3  A    between atoms: C_9  and  C_10
REMARK                            x       y       z     vdW  Elec       q    Type
REMARK                         _______ _______ _______ _____ _____    ______ ____
ROOT
ATOM      1  C   UNL     1      -3.274   0.024   0.035  0.00  0.00    +0.000 C 
ATOM      2  C   UNL     1      -4.044   1.104  -0.171  0.00  0.00    +0.000 C 
ENDROOT
BRANCH   1   7
ATOM      3  C   UNL     1       2.515   0.002  -0.061  0.00  0.00    +0.000 C 
ATOM      4  C   UNL     1       1.016   0.036  -0.060  0.00  0.00    +0.000 A 
ATOM      5  C   UNL     1       0.328   1.062   0.597  0.00  0.00    +0.000 A 
ATOM      6  C   UNL     1      -1.070   1.075   0.625  0.00  0.00    +0.000 A 
ATOM      7  C   UNL     1      -1.804   0.061  -0.002  0.00  0.00    +0.000 A 
ATOM      8  C   UNL     1      -1.114  -0.981  -0.631  0.00  0.00    +0.000 A 
ATOM      9  C   UNL     1       0.284  -0.994  -0.660  0.00  0.00    +0.000 A 
ENDBRANCH   1   7
BRANCH   2  10
ATOM     10  C   UNL     1      -5.503   1.140  -0.148  0.00  0.00    +0.000 C 
ATOM     11  C   UNL     1      -6.128   2.326  -0.265  0.00  0.00    +0.000 C 
ATOM     12  C   UNL     1      -7.604   2.438  -0.173  0.00  0.00    +0.000 C 
ATOM     13  O   UNL     1      -8.132   3.542  -0.282  0.00  0.00    +0.000 OA
ATOM     14  C   UNL     1      -8.400   1.196   0.146  0.00  0.00    +0.000 C 
ATOM     15  C   UNL     1      -7.733  -0.032  -0.449  0.00  0.00    +0.000 C 
ATOM     16  C   UNL     1      -6.276  -0.154  -0.002  0.00  0.00    +0.000 C 
ENDBRANCH   2  10
TORSDOF 2
