REMARK  Name = *****
REMARK  5 active torsions:
REMARK  status: ('A' for Active; 'I' for Inactive)
REMARK    1  A    between atoms: C_1  and  C_2
REMARK    2  A    between atoms: C_3  and  C_17
REMARK    3  A    between atoms: C_4  and  C_9
REMARK    4  A    between atoms: C_5  and  C_8
REMARK    5  A    between atoms: C_10  and  C_11
REMARK                            x       y       z     vdW  Elec       q    Type
REMARK                         _______ _______ _______ _____ _____    ______ ____
ROOT
ATOM      1  C   UNL     1       2.984   0.503  -0.232  0.00  0.00    +0.000 C 
ATOM      2  C   UNL     1       1.536   0.114  -0.086  0.00  0.00    +0.000 A 
ATOM      3  C   UNL     1       0.509   1.077   0.054  0.00  0.00    +0.000 A 
ATOM      4  C   UNL     1      -0.832   0.644   0.227  0.00  0.00    +0.000 A 
ATOM      5  C   UNL     1      -1.142  -0.735   0.217  0.00  0.00    +0.000 A 
ATOM      6  C   UNL     1      -0.114  -1.665   0.027  0.00  0.00    +0.000 A 
ATOM      7  C   UNL     1       1.206  -1.247  -0.117  0.00  0.00    +0.000 A 
ATOM      8  C   UNL     1      -2.552  -1.242   0.380  0.00  0.00    +0.000 C 
ATOM      9  C   UNL     1       0.850   2.550   0.086  0.00  0.00    +0.000 C 
ENDROOT
BRANCH   4  10
ATOM     10  C   UNL     1      -1.904   1.632   0.436  0.00  0.00    +0.000 C 
ATOM     11  C   UNL     1      -2.745   1.984  -0.548  0.00  0.00    +0.000 C 
BRANCH  11  12
ATOM     12  C   UNL     1      -3.824   2.925  -0.419  0.00  0.00    +0.000 C 
ATOM     13  C   UNL     1      -4.018   3.889   0.481  0.00  0.00    +0.000 C 
ATOM     14  C   UNL     1      -5.252   4.641   0.196  0.00  0.00    +0.000 C 
ATOM     15  O   UNL     1      -5.771   4.042  -0.987  0.00  0.00    +0.000 OA
ATOM     16  C   UNL     1      -4.944   3.031  -1.379  0.00  0.00    +0.000 C 
ATOM     17  O   UNL     1      -5.110   2.332  -2.363  0.00  0.00    +0.000 OA
ENDBRANCH  11  12
ENDBRANCH   4  10
TORSDOF 2
