REMARK  Name = *****
REMARK  3 active torsions:
REMARK  status: ('A' for Active; 'I' for Inactive)
REMARK    1  A    between atoms: C_1  and  C_2
REMARK    2  A    between atoms: C_3  and  N_9
REMARK    3  A    between atoms: C_10  and  C_12
REMARK                            x       y       z     vdW  Elec       q    Type
REMARK                         _______ _______ _______ _____ _____    ______ ____
ROOT
ATOM      1  N   UNL     1       2.296   2.356   0.005  0.00  0.00    +0.000 N 
ATOM      2  C   UNL     1       3.557   2.557   0.535  0.00  0.00    +0.000 C 
ATOM      3  O   UNL     1       4.194   1.768   1.220  0.00  0.00    +0.000 OA
ATOM      4  H   UNL     1       1.871   3.138  -0.417  0.00  0.00    +0.000 HD
ENDROOT
BRANCH   1   7
ATOM      5  C   UNL     1       3.523  -0.477  -0.281  0.00  0.00    +0.000 C 
ATOM      6  C   UNL     1       2.068  -0.147  -0.089  0.00  0.00    +0.000 A 
ATOM      7  C   UNL     1       1.545   1.157  -0.002  0.00  0.00    +0.000 A 
ATOM      8  C   UNL     1       0.149   1.330   0.027  0.00  0.00    +0.000 A 
ATOM      9  C   UNL     1      -0.709   0.231   0.052  0.00  0.00    +0.000 A 
ATOM     10  C   UNL     1      -0.199  -1.058   0.035  0.00  0.00    +0.000 A 
ATOM     11  C   UNL     1       1.180  -1.243  -0.037  0.00  0.00    +0.000 A 
ATOM     12 CL   UNL     1      -2.411   0.478   0.113  0.00  0.00    +0.000 Cl
ENDBRANCH   1   7
BRANCH   2  13
ATOM     13  C   UNL     1       4.125   3.917   0.307  0.00  0.00    +0.000 A 
ATOM     14  C   UNL     1       5.019   4.434   1.251  0.00  0.00    +0.000 A 
ATOM     15  C   UNL     1       5.566   5.696   1.056  0.00  0.00    +0.000 A 
ATOM     16  C   UNL     1       5.245   6.454  -0.066  0.00  0.00    +0.000 A 
ATOM     17  C   UNL     1       4.368   5.938  -1.019  0.00  0.00    +0.000 A 
ATOM     18  C   UNL     1       3.810   4.669  -0.837  0.00  0.00    +0.000 A 
ATOM     19  F   UNL     1       6.417   6.194   1.962  0.00  0.00    +0.000 F 
ENDBRANCH   2  13
TORSDOF 2
