REMARK  Name = *****
REMARK  5 active torsions:
REMARK  status: ('A' for Active; 'I' for Inactive)
REMARK    1  A    between atoms: C_1  and  P_2
REMARK    2  A    between atoms: P_2  and  C_3
REMARK    3  A    between atoms: P_2  and  C_4
REMARK    4  A    between atoms: P_2  and  C_16
REMARK    5  A    between atoms: C_4  and  C_5
REMARK                            x       y       z     vdW  Elec       q    Type
REMARK                         _______ _______ _______ _____ _____    ______ ____
ROOT
ATOM      1  C   UNL     1       2.964   2.703   0.426  0.00  0.00    +0.000 A 
ATOM      2  C   UNL     1       1.766   3.261   0.883  0.00  0.00    +0.000 A 
ATOM      3  C   UNL     1       1.305   4.479   0.392  0.00  0.00    +0.000 A 
ATOM      4  C   UNL     1       2.037   5.161  -0.570  0.00  0.00    +0.000 A 
ATOM      5  C   UNL     1       3.227   4.625  -1.039  0.00  0.00    +0.000 A 
ATOM      6  C   UNL     1       3.684   3.406  -0.545  0.00  0.00    +0.000 A 
ATOM      7  F   UNL     1       4.834   2.899  -1.012  0.00  0.00    +0.000 F 
ATOM      8  F   UNL     1       3.936   5.278  -1.970  0.00  0.00    +0.000 F 
ATOM      9  F   UNL     1       1.594   6.333  -1.045  0.00  0.00    +0.000 F 
ATOM     10  F   UNL     1       0.153   4.991   0.847  0.00  0.00    +0.000 F 
ATOM     11  F   UNL     1       1.046   2.612   1.810  0.00  0.00    +0.000 F 
ENDROOT
BRANCH   1  12
ATOM     12  C   UNL     1       3.453   1.379   0.946  0.00  0.00    +0.000 C 
BRANCH  12  14
ATOM     13  C   UNL     1       1.147  -0.111   0.097  0.00  0.00    +0.000 C 
ATOM     14  P   UNL     1       2.928  -0.107   0.097  0.00  0.00    +0.000 P 
ATOM     15  C   UNL     1       3.413   0.063  -1.609  0.00  0.00    +0.000 C 
BRANCH  14  16
ATOM     16  C   UNL     1       3.568  -1.582   0.793  0.00  0.00    +0.000 A 
ATOM     17  C   UNL     1       3.217  -2.818   0.235  0.00  0.00    +0.000 A 
ATOM     18  C   UNL     1       3.710  -4.012   0.765  0.00  0.00    +0.000 A 
ATOM     19  C   UNL     1       4.564  -3.984   1.864  0.00  0.00    +0.000 A 
ATOM     20  C   UNL     1       4.923  -2.764   2.429  0.00  0.00    +0.000 A 
ATOM     21  C   UNL     1       4.427  -1.571   1.896  0.00  0.00    +0.000 A 
ENDBRANCH  14  16
ENDBRANCH  12  14
ENDBRANCH   1  12
TORSDOF 3
