REMARK  Name = *****
REMARK  1 active torsions:
REMARK  status: ('A' for Active; 'I' for Inactive)
REMARK    1  A    between atoms: C_4  and  C_5
REMARK                            x       y       z     vdW  Elec       q    Type
REMARK                         _______ _______ _______ _____ _____    ______ ____
ROOT
ATOM      1  C   UNL     1      -1.314  -1.617   0.210  0.00  0.00    +0.000 C 
ATOM      2  C   UNL     1      -2.451  -0.631   0.508  0.00  0.00    +0.000 C 
ATOM      3  C   UNL     1      -1.938   0.738   0.113  0.00  0.00    +0.000 C 
ATOM      4  C   UNL     1      -2.667   1.826  -0.186  0.00  0.00    +0.000 C 
ATOM      5  F   UNL     1      -2.050   2.943  -0.639  0.00  0.00    +0.000 F 
ATOM      6  C   UNL     1      -0.479   0.625   0.030  0.00  0.00    +0.000 A 
ATOM      7  C   UNL     1       0.499   1.602  -0.092  0.00  0.00    +0.000 A 
ATOM      8  C   UNL     1       1.842   1.215  -0.131  0.00  0.00    +0.000 A 
ATOM      9  C   UNL     1       2.196  -0.139  -0.049  0.00  0.00    +0.000 A 
ATOM     10  C   UNL     1       1.211  -1.120   0.075  0.00  0.00    +0.000 A 
ATOM     11  C   UNL     1      -0.118  -0.723   0.123  0.00  0.00    +0.000 A 
ENDROOT
BRANCH   4  12
ATOM     12  C   UNL     1      -4.133   1.898  -0.128  0.00  0.00    +0.000 A 
ATOM     13  C   UNL     1      -4.848   1.566   1.031  0.00  0.00    +0.000 A 
ATOM     14  C   UNL     1      -6.241   1.663   1.057  0.00  0.00    +0.000 A 
ATOM     15  C   UNL     1      -6.931   2.103  -0.071  0.00  0.00    +0.000 A 
ATOM     16  C   UNL     1      -6.230   2.454  -1.223  0.00  0.00    +0.000 A 
ATOM     17  C   UNL     1      -4.837   2.358  -1.249  0.00  0.00    +0.000 A 
ENDBRANCH   4  12
TORSDOF 1
