REMARK  Name = *****
REMARK  3 active torsions:
REMARK  status: ('A' for Active; 'I' for Inactive)
REMARK    1  A    between atoms: C_6  and  C_7
REMARK    2  A    between atoms: C_7  and  S_8
REMARK    3  A    between atoms: S_8  and  C_9
REMARK                            x       y       z     vdW  Elec       q    Type
REMARK                         _______ _______ _______ _____ _____    ______ ____
ROOT
ATOM      1  C   UNL     1      -3.473   0.152   0.006  0.00  0.00    +0.000 C 
ENDROOT
BRANCH   1   7
ATOM      2  C   UNL     1      -1.232   0.058  -1.167  0.00  0.00    +0.000 A 
ATOM      3  C   UNL     1       0.163   0.019  -1.142  0.00  0.00    +0.000 A 
ATOM      4  C   UNL     1       0.827   0.022   0.079  0.00  0.00    +0.000 A 
ATOM      5  C   UNL     1       0.123   0.069   1.276  0.00  0.00    +0.000 A 
ATOM      6  C   UNL     1      -1.272   0.109   1.254  0.00  0.00    +0.000 A 
ATOM      7  C   UNL     1      -1.964   0.096   0.031  0.00  0.00    +0.000 A 
ATOM      8  F   UNL     1       2.165  -0.016   0.102  0.00  0.00    +0.000 F 
ENDBRANCH   1   7
BRANCH   1   9
ATOM      9  S   UNL     1      -4.067   1.874  -0.058  0.00  0.00    +0.000 S 
BRANCH   9  10
ATOM     10  C   UNL     1      -5.848   1.710  -0.053  0.00  0.00    +0.000 A 
ATOM     11  C   UNL     1      -6.546   0.497  -0.043  0.00  0.00    +0.000 A 
ATOM     12  C   UNL     1      -7.946   0.478  -0.041  0.00  0.00    +0.000 A 
ATOM     13  C   UNL     1      -8.658   1.675  -0.049  0.00  0.00    +0.000 A 
ATOM     14  C   UNL     1      -7.983   2.890  -0.060  0.00  0.00    +0.000 A 
ATOM     15  C   UNL     1      -6.585   2.904  -0.062  0.00  0.00    +0.000 A 
ATOM     16 BR   UNL     1     -10.547   1.646  -0.046  0.00  0.00    +0.000 Br
ENDBRANCH   9  10
ENDBRANCH   1   9
TORSDOF 3
