REMARK  Name = *****
REMARK  2 active torsions:
REMARK  status: ('A' for Active; 'I' for Inactive)
REMARK    1  A    between atoms: C_9  and  C_10
REMARK    2  A    between atoms: C_10  and  C_11
REMARK                            x       y       z     vdW  Elec       q    Type
REMARK                         _______ _______ _______ _____ _____    ______ ____
ROOT
ATOM      1  C   UNL     1      -1.673   1.082  -0.300  0.00  0.00    +0.000 C 
ATOM      2  C   UNL     1      -0.246   0.640  -0.182  0.00  0.00    +0.000 A 
ATOM      3  C   UNL     1       0.913   1.383  -0.329  0.00  0.00    +0.000 A 
ATOM      4  C   UNL     1       2.137   0.727  -0.174  0.00  0.00    +0.000 A 
ATOM      5  C   UNL     1       2.183  -0.646   0.120  0.00  0.00    +0.000 A 
ATOM      6  C   UNL     1       1.006  -1.385   0.268  0.00  0.00    +0.000 A 
ATOM      7  C   UNL     1      -0.201  -0.727   0.115  0.00  0.00    +0.000 A 
ATOM      8  C   UNL     1      -1.557  -1.237   0.221  0.00  0.00    +0.000 C 
ATOM      9  C   UNL     1      -2.402  -0.217  -0.018  0.00  0.00    +0.000 C 
ENDROOT
BRANCH   9  10
ATOM     10  C   UNL     1      -3.896  -0.268   0.016  0.00  0.00    +0.000 C 
BRANCH  10  11
ATOM     11  C   UNL     1      -4.526  -0.134  -1.350  0.00  0.00    +0.000 A 
ATOM     12  C   UNL     1      -4.644  -1.253  -2.187  0.00  0.00    +0.000 A 
ATOM     13  C   UNL     1      -5.214  -1.133  -3.455  0.00  0.00    +0.000 A 
ATOM     14  C   UNL     1      -5.665   0.108  -3.902  0.00  0.00    +0.000 A 
ATOM     15  C   UNL     1      -5.545   1.229  -3.083  0.00  0.00    +0.000 A 
ATOM     16  C   UNL     1      -4.978   1.110  -1.813  0.00  0.00    +0.000 A 
ENDBRANCH  10  11
ENDBRANCH   9  10
TORSDOF 2
