REMARK  Name = *****
REMARK  6 active torsions:
REMARK  status: ('A' for Active; 'I' for Inactive)
REMARK    1  A    between atoms: C_1  and  C_2
REMARK    2  A    between atoms: C_4  and  C_17
REMARK    3  A    between atoms: C_5  and  P_9
REMARK    4  A    between atoms: C_6  and  C_8
REMARK    5  A    between atoms: P_9  and  N_10
REMARK    6  A    between atoms: N_10  and  C_11
REMARK                            x       y       z     vdW  Elec       q    Type
REMARK                         _______ _______ _______ _____ _____    ______ ____
ROOT
ATOM      1  C   UNL     1       2.048   1.766   0.668  0.00  0.00    +0.000 C 
ATOM      2  C   UNL     1       1.003   0.769   0.268  0.00  0.00    +0.000 A 
ATOM      3  C   UNL     1       1.350  -0.557  -0.005  0.00  0.00    +0.000 A 
ATOM      4  C   UNL     1       0.379  -1.516  -0.353  0.00  0.00    +0.000 A 
ATOM      5  C   UNL     1      -0.982  -1.129  -0.387  0.00  0.00    +0.000 A 
ATOM      6  C   UNL     1      -1.350   0.209  -0.111  0.00  0.00    +0.000 A 
ATOM      7  C   UNL     1      -0.344   1.138   0.221  0.00  0.00    +0.000 A 
ATOM      8  C   UNL     1      -2.777   0.699  -0.127  0.00  0.00    +0.000 C 
ATOM      9  C   UNL     1       0.858  -2.918  -0.641  0.00  0.00    +0.000 C 
ENDROOT
BRANCH   5  10
ATOM     10  P   UNL     1      -2.255  -2.298  -0.855  0.00  0.00    +0.000 P 
BRANCH  10  11
ATOM     11  N   UNL     1      -2.225  -3.150   0.409  0.00  0.00    +0.000 NA
BRANCH  11  12
ATOM     12  C   UNL     1      -2.964  -4.280   0.551  0.00  0.00    +0.000 A 
ATOM     13  C   UNL     1      -3.893  -4.838  -0.356  0.00  0.00    +0.000 A 
ATOM     14  C   UNL     1      -4.593  -6.021  -0.081  0.00  0.00    +0.000 A 
ATOM     15  C   UNL     1      -4.390  -6.693   1.118  0.00  0.00    +0.000 A 
ATOM     16  C   UNL     1      -3.487  -6.178   2.039  0.00  0.00    +0.000 A 
ATOM     17  C   UNL     1      -2.793  -4.995   1.754  0.00  0.00    +0.000 A 
ENDBRANCH  11  12
ENDBRANCH  10  11
ENDBRANCH   5  10
TORSDOF 3
