REMARK  Name = *****
REMARK  3 active torsions:
REMARK  status: ('A' for Active; 'I' for Inactive)
REMARK    1  A    between atoms: C_3  and  C_4
REMARK    2  A    between atoms: C_3  and  C_10
REMARK    3  A    between atoms: C_4  and  C_5
REMARK                            x       y       z     vdW  Elec       q    Type
REMARK                         _______ _______ _______ _____ _____    ______ ____
ROOT
ATOM      1  C   UNL     1       3.242  -1.313  -2.021  0.00  0.00    +0.000 C 
ATOM      2  C   UNL     1       3.562  -0.711  -0.916  0.00  0.00    +0.000 C 
ATOM      3  C   UNL     1       3.891  -0.103   0.195  0.00  0.00    +0.000 C 
ENDROOT
BRANCH   3   4
ATOM      4  C   UNL     1       3.677  -0.780   1.499  0.00  0.00    +0.000 A 
ATOM      5  C   UNL     1       4.630  -0.719   2.526  0.00  0.00    +0.000 A 
ATOM      6  C   UNL     1       4.408  -1.354   3.752  0.00  0.00    +0.000 A 
ATOM      7  C   UNL     1       3.230  -2.064   3.969  0.00  0.00    +0.000 A 
ATOM      8  C   UNL     1       2.275  -2.143   2.959  0.00  0.00    +0.000 A 
ATOM      9  C   UNL     1       2.499  -1.508   1.734  0.00  0.00    +0.000 A 
ENDBRANCH   3   4
BRANCH   3  10
ATOM     10  C   UNL     1       4.486   1.291   0.179  0.00  0.00    +0.000 C 
BRANCH  10  11
ATOM     11  C   UNL     1       3.420   2.391   0.111  0.00  0.00    +0.000 C 
ATOM     12  C   UNL     1       4.031   3.789   0.025  0.00  0.00    +0.000 C 
ATOM     13  C   UNL     1       2.873   4.716   0.373  0.00  0.00    +0.000 C 
ATOM     14  C   UNL     1       1.955   3.910   1.291  0.00  0.00    +0.000 C 
ATOM     15  C   UNL     1       2.545   2.503   1.360  0.00  0.00    +0.000 C 
ENDBRANCH  10  11
ENDBRANCH   3  10
TORSDOF 3
