REMARK  Name = *****
REMARK  1 active torsions:
REMARK  status: ('A' for Active; 'I' for Inactive)
REMARK    1  A    between atoms: C_5  and  C_6
REMARK                            x       y       z     vdW  Elec       q    Type
REMARK                         _______ _______ _______ _____ _____    ______ ____
ROOT
ATOM      1  C   UNL     1       0.307  -1.819   1.569  0.00  0.00    +0.000 A 
ATOM      2  C   UNL     1       0.559  -3.193   1.718  0.00  0.00    +0.000 A 
ATOM      3  C   UNL     1       0.666  -3.786   2.989  0.00  0.00    +0.000 A 
ATOM      4  C   UNL     1       0.918  -5.160   3.139  0.00  0.00    +0.000 A 
ATOM      5  C   UNL     1       1.021  -5.734   4.407  0.00  0.00    +0.000 A 
ATOM      6  C   UNL     1       0.875  -4.942   5.542  0.00  0.00    +0.000 A 
ATOM      7  C   UNL     1       0.624  -3.575   5.411  0.00  0.00    +0.000 A 
ATOM      8  C   UNL     1       0.517  -2.984   4.142  0.00  0.00    +0.000 A 
ATOM      9  C   UNL     1       0.266  -1.613   3.992  0.00  0.00    +0.000 A 
ATOM     10  C   UNL     1       0.163  -1.038   2.723  0.00  0.00    +0.000 A 
ENDROOT
BRANCH   1  15
ATOM     11  C   UNL     1      -1.169  -0.555  -0.090  0.00  0.00    +0.000 C 
ATOM     12  C   UNL     1      -0.857   0.906  -0.152  0.00  0.00    +0.000 C 
ATOM     13  C   UNL     1       0.459   1.140  -0.152  0.00  0.00    +0.000 C 
ATOM     14  C   UNL     1       1.256  -0.124  -0.090  0.00  0.00    +0.000 C 
ATOM     15  C   UNL     1       0.200  -1.219   0.175  0.00  0.00    +0.000 C 
ENDBRANCH   1  15
TORSDOF 1
