REMARK  Name = *****
REMARK  4 active torsions:
REMARK  status: ('A' for Active; 'I' for Inactive)
REMARK    1  A    between atoms: C_4  and  S_7
REMARK    2  A    between atoms: S_7  and  C_8
REMARK    3  A    between atoms: C_8  and  C_9
REMARK    4  A    between atoms: C_9  and  C_11
REMARK                            x       y       z     vdW  Elec       q    Type
REMARK                         _______ _______ _______ _____ _____    ______ ____
ROOT
ATOM      1  C   UNL     1       5.117  -2.445  -0.018  0.00  0.00    +0.000 C 
ATOM      2  O   UNL     1       5.960  -1.593  -0.297  0.00  0.00    +0.000 OA
ENDROOT
BRANCH   1   3
ATOM      3  C   UNL     1       5.582  -3.848   0.146  0.00  0.00    +0.000 A 
ATOM      4  C   UNL     1       6.765  -4.243  -0.496  0.00  0.00    +0.000 A 
ATOM      5  C   UNL     1       7.237  -5.551  -0.363  0.00  0.00    +0.000 A 
ATOM      6  C   UNL     1       6.537  -6.471   0.416  0.00  0.00    +0.000 A 
ATOM      7  C   UNL     1       5.367  -6.082   1.068  0.00  0.00    +0.000 A 
ATOM      8  C   UNL     1       4.899  -4.776   0.933  0.00  0.00    +0.000 A 
ATOM      9  F   UNL     1       3.787  -4.435   1.600  0.00  0.00    +0.000 F 
ENDBRANCH   1   3
BRANCH   1  10
ATOM     10  C   UNL     1       3.641  -2.142   0.201  0.00  0.00    +0.000 C 
BRANCH  10  11
ATOM     11  S   UNL     1       3.099  -0.695  -0.767  0.00  0.00    +0.000 S 
BRANCH  11  15
ATOM     12  C   UNL     1      -1.405   0.235  -0.146  0.00  0.00    +0.000 C 
ATOM     13  C   UNL     1      -0.911  -1.142   0.286  0.00  0.00    +0.000 C 
ATOM     14  C   UNL     1       0.463  -1.462  -0.304  0.00  0.00    +0.000 C 
ATOM     15  C   UNL     1       1.484  -0.371   0.036  0.00  0.00    +0.000 C 
ATOM     16  C   UNL     1       0.983   1.009  -0.412  0.00  0.00    +0.000 C 
ATOM     17  C   UNL     1      -0.388   1.323   0.184  0.00  0.00    +0.000 C 
ENDBRANCH  11  15
ENDBRANCH  10  11
ENDBRANCH   1  10
TORSDOF 4
