REMARK  Name = *****
REMARK  4 active torsions:
REMARK  status: ('A' for Active; 'I' for Inactive)
REMARK    1  A    between atoms: C_1  and  C_2
REMARK    2  A    between atoms: C_7  and  O_8
REMARK    3  A    between atoms: O_8  and  C_9
REMARK    4  A    between atoms: C_9  and  C_11
REMARK                            x       y       z     vdW  Elec       q    Type
REMARK                         _______ _______ _______ _____ _____    ______ ____
ROOT
ATOM      1  C   UNL     1       2.074  -2.655   0.074  0.00  0.00    +0.000 C 
ATOM      2  O   UNL     1       2.281  -2.241   1.204  0.00  0.00    +0.000 OA
ENDROOT
BRANCH   1   3
ATOM      3  C   UNL     1       2.783  -3.833  -0.498  0.00  0.00    +0.000 A 
ATOM      4  C   UNL     1       2.477  -4.359  -1.759  0.00  0.00    +0.000 A 
ATOM      5  C   UNL     1       3.181  -5.464  -2.227  0.00  0.00    +0.000 A 
ATOM      6  C   UNL     1       4.184  -6.058  -1.469  0.00  0.00    +0.000 A 
ATOM      7  C   UNL     1       4.494  -5.540  -0.213  0.00  0.00    +0.000 A 
ATOM      8  C   UNL     1       3.794  -4.432   0.272  0.00  0.00    +0.000 A 
ATOM      9  F   UNL     1       2.886  -5.966  -3.433  0.00  0.00    +0.000 F 
ENDBRANCH   1   3
BRANCH   1  10
ATOM     10  O   UNL     1       1.203  -2.139  -0.865  0.00  0.00    +0.000 OA
BRANCH  10  17
ATOM     11  C   UNL     1       2.316   0.486  -1.328  0.00  0.00    +0.000 C 
ATOM     12  C   UNL     1       0.992   0.268  -0.658  0.00  0.00    +0.000 A 
ATOM     13  C   UNL     1       0.235   1.361  -0.216  0.00  0.00    +0.000 A 
ATOM     14  C   UNL     1      -0.994   1.164   0.421  0.00  0.00    +0.000 A 
ATOM     15  C   UNL     1      -1.481  -0.127   0.628  0.00  0.00    +0.000 A 
ATOM     16  C   UNL     1      -0.736  -1.226   0.207  0.00  0.00    +0.000 A 
ATOM     17  C   UNL     1       0.498  -1.019  -0.411  0.00  0.00    +0.000 A 
ENDBRANCH  10  17
ENDBRANCH   1  10
TORSDOF 3
