REMARK  Name = *****
REMARK  2 active torsions:
REMARK  status: ('A' for Active; 'I' for Inactive)
REMARK    1  A    between atoms: C_4  and  C_6
REMARK    2  A    between atoms: C_8  and  C_11
REMARK                            x       y       z     vdW  Elec       q    Type
REMARK                         _______ _______ _______ _____ _____    ______ ____
ROOT
ATOM      1  C   UNL     1       0.535  -0.611   1.538  0.00  0.00    +0.000 C 
ATOM      2  C   UNL     1       0.048  -0.781   3.012  0.00  0.00    +0.000 C 
ATOM      3  C   UNL     1       1.657  -0.759   3.026  0.00  0.00    +0.000 C 
ATOM      4  C   UNL     1       1.457   0.500   2.097  0.00  0.00    +0.000 C 
ATOM      5  C   UNL     1       1.794  -1.533   1.625  0.00  0.00    +0.000 C 
ENDROOT
BRANCH   3   6
ATOM      6  C   UNL     1       2.584  -0.862   4.231  0.00  0.00    +0.000 A 
ATOM      7  C   UNL     1       2.214  -1.555   5.399  0.00  0.00    +0.000 A 
ATOM      8  C   UNL     1       3.061  -1.657   6.507  0.00  0.00    +0.000 A 
ATOM      9  C   UNL     1       4.318  -1.063   6.477  0.00  0.00    +0.000 A 
ATOM     10  C   UNL     1       4.722  -0.373   5.341  0.00  0.00    +0.000 A 
ATOM     11  C   UNL     1       3.866  -0.278   4.239  0.00  0.00    +0.000 A 
ENDBRANCH   3   6
BRANCH   1  15
ATOM     12  C   UNL     1      -1.421   0.633   0.327  0.00  0.00    +0.000 C 
ATOM     13  C   UNL     1      -1.427  -0.109  -1.066  0.00  0.00    +0.000 C 
ATOM     14  C   UNL     1      -1.364  -1.429  -0.145  0.00  0.00    +0.000 C 
ATOM     15  C   UNL     1      -0.290  -0.424   0.384  0.00  0.00    +0.000 C 
ATOM     16  C   UNL     1       0.160   0.156  -0.996  0.00  0.00    +0.000 C 
ENDBRANCH   1  15
TORSDOF 2
