REMARK  Name = *****
REMARK  6 active torsions:
REMARK  status: ('A' for Active; 'I' for Inactive)
REMARK    1  A    between atoms: C_1  and  C_2
REMARK    2  A    between atoms: C_2  and  C_3
REMARK    3  A    between atoms: C_2  and  N_4
REMARK    4  A    between atoms: N_4  and  C_5
REMARK    5  A    between atoms: N_4  and  S_11
REMARK    6  A    between atoms: S_11  and  C_12
REMARK                            x       y       z     vdW  Elec       q    Type
REMARK                         _______ _______ _______ _____ _____    ______ ____
ROOT
ATOM      1  N   UNL     1       3.058  -1.294   1.364  0.00  0.00    +0.000 N 
ENDROOT
BRANCH   1   2
ATOM      2  C   UNL     1       2.024  -2.160   1.824  0.00  0.00    +0.000 A 
ATOM      3  C   UNL     1       0.710  -2.129   1.318  0.00  0.00    +0.000 A 
ATOM      4  C   UNL     1      -0.297  -2.979   1.799  0.00  0.00    +0.000 A 
ATOM      5  C   UNL     1      -0.023  -3.888   2.812  0.00  0.00    +0.000 A 
ATOM      6  C   UNL     1       1.258  -3.947   3.342  0.00  0.00    +0.000 A 
ATOM      7  C   UNL     1       2.258  -3.096   2.855  0.00  0.00    +0.000 A 
ENDBRANCH   1   2
BRANCH   1   9
ATOM      8  C   UNL     1       3.595   1.048   0.619  0.00  0.00    +0.000 C 
ATOM      9  C   UNL     1       2.715  -0.193   0.421  0.00  0.00    +0.000 C 
ATOM     10  C   UNL     1       2.761  -0.651  -1.041  0.00  0.00    +0.000 C 
ENDBRANCH   1   9
BRANCH   1  11
ATOM     11  S   UNL     1       4.646  -1.890   1.329  0.00  0.00    +0.000 S 
BRANCH  11  12
ATOM     12  C   UNL     1       5.429  -0.996   2.670  0.00  0.00    +0.000 A 
ATOM     13  C   UNL     1       4.726  -0.439   3.744  0.00  0.00    +0.000 A 
ATOM     14  C   UNL     1       5.401   0.234   4.766  0.00  0.00    +0.000 A 
ATOM     15  C   UNL     1       6.788   0.353   4.726  0.00  0.00    +0.000 A 
ATOM     16  C   UNL     1       7.501  -0.202   3.667  0.00  0.00    +0.000 A 
ATOM     17  C   UNL     1       6.825  -0.874   2.646  0.00  0.00    +0.000 A 
ENDBRANCH  11  12
ENDBRANCH   1  11
TORSDOF 4
