REMARK  Name = *****
REMARK  5 active torsions:
REMARK  status: ('A' for Active; 'I' for Inactive)
REMARK    1  A    between atoms: C_1  and  C_2
REMARK    2  A    between atoms: C_5  and  C_8
REMARK    3  A    between atoms: C_8  and  P_9
REMARK    4  A    between atoms: P_9  and  C_10
REMARK    5  A    between atoms: P_9  and  C_11
REMARK                            x       y       z     vdW  Elec       q    Type
REMARK                         _______ _______ _______ _____ _____    ______ ____
ROOT
ATOM      1  C   UNL     1      -3.245   0.263  -0.249  0.00  0.00    +0.000 C 
ENDROOT
BRANCH   1   6
ATOM      2  C   UNL     1       2.560   0.294   0.320  0.00  0.00    +0.000 C 
ATOM      3  C   UNL     1       1.069   0.317   0.164  0.00  0.00    +0.000 A 
ATOM      4  C   UNL     1       0.250   0.699   1.231  0.00  0.00    +0.000 A 
ATOM      5  C   UNL     1      -1.141   0.691   1.096  0.00  0.00    +0.000 A 
ATOM      6  C   UNL     1      -1.744   0.297  -0.109  0.00  0.00    +0.000 A 
ATOM      7  C   UNL     1      -0.917  -0.112  -1.167  0.00  0.00    +0.000 A 
ATOM      8  C   UNL     1       0.474  -0.102  -1.031  0.00  0.00    +0.000 A 
ENDBRANCH   1   6
BRANCH   1   9
ATOM      9  P   UNL     1      -3.722   1.994  -0.612  0.00  0.00    +0.000 P 
ATOM     10  C   UNL     1      -3.398   2.084  -2.415  0.00  0.00    +0.000 C 
BRANCH   9  11
ATOM     11  C   UNL     1      -5.538   1.898  -0.578  0.00  0.00    +0.000 A 
ATOM     12  C   UNL     1      -6.269   0.920  -1.267  0.00  0.00    +0.000 A 
ATOM     13  C   UNL     1      -7.665   0.893  -1.203  0.00  0.00    +0.000 A 
ATOM     14  C   UNL     1      -8.349   1.845  -0.451  0.00  0.00    +0.000 A 
ATOM     15  C   UNL     1      -7.638   2.824   0.237  0.00  0.00    +0.000 A 
ATOM     16  C   UNL     1      -6.242   2.850   0.173  0.00  0.00    +0.000 A 
ENDBRANCH   9  11
ENDBRANCH   1   9
TORSDOF 3
