REMARK  Name = *****
REMARK  5 active torsions:
REMARK  status: ('A' for Active; 'I' for Inactive)
REMARK    1  A    between atoms: C_1  and  C_2
REMARK    2  A    between atoms: C_2  and  C_16
REMARK    3  A    between atoms: C_4  and  C_8
REMARK    4  A    between atoms: C_8  and  C_9
REMARK    5  A    between atoms: C_9  and  C_10
REMARK                            x       y       z     vdW  Elec       q    Type
REMARK                         _______ _______ _______ _____ _____    ______ ____
ROOT
ATOM      1  C   UNL     1       1.065  -0.277   0.653  0.00  0.00    +0.000 C 
ATOM      2  C   UNL     1       2.477  -0.057   0.086  0.00  0.00    +0.000 C 
ATOM      3  C   UNL     1       2.483   1.254  -0.760  0.00  0.00    +0.000 C 
ATOM      4  C   UNL     1       3.536   1.297  -1.850  0.00  0.00    +0.000 C 
ATOM      5  C   UNL     1       4.047   0.155  -2.343  0.00  0.00    +0.000 C 
ATOM      6  C   UNL     1       3.603  -1.135  -1.873  0.00  0.00    +0.000 C 
ATOM      7  C   UNL     1       2.888  -1.260  -0.746  0.00  0.00    +0.000 C 
ATOM      8  C   UNL     1       3.467   0.071   1.259  0.00  0.00    +0.000 C 
ENDROOT
BRANCH   4   9
ATOM      9  C   UNL     1       3.970   2.654  -2.350  0.00  0.00    +0.000 C 
BRANCH   9  10
ATOM     10  C   UNL     1       2.850   3.393  -3.092  0.00  0.00    +0.000 C 
BRANCH  10  11
ATOM     11  C   UNL     1       3.322   4.720  -3.634  0.00  0.00    +0.000 A 
ATOM     12  C   UNL     1       3.802   4.822  -4.946  0.00  0.00    +0.000 A 
ATOM     13  C   UNL     1       4.254   6.046  -5.441  0.00  0.00    +0.000 A 
ATOM     14  C   UNL     1       4.236   7.177  -4.627  0.00  0.00    +0.000 A 
ATOM     15  C   UNL     1       3.766   7.086  -3.318  0.00  0.00    +0.000 A 
ATOM     16  C   UNL     1       3.313   5.862  -2.822  0.00  0.00    +0.000 A 
ENDBRANCH  10  11
ENDBRANCH   9  10
ENDBRANCH   4   9
TORSDOF 3
