REMARK  Name = *****
REMARK  4 active torsions:
REMARK  status: ('A' for Active; 'I' for Inactive)
REMARK    1  A    between atoms: C_3  and  C_5
REMARK    2  A    between atoms: C_5  and  C_6
REMARK    3  A    between atoms: C_6  and  C_7
REMARK    4  A    between atoms: C_7  and  C_8
REMARK                            x       y       z     vdW  Elec       q    Type
REMARK                         _______ _______ _______ _____ _____    ______ ____
ROOT
ATOM      1  C   UNL     1      -1.992  -2.447  -3.361  0.00  0.00    +0.000 C 
ENDROOT
BRANCH   1   2
ATOM      2  C   UNL     1      -3.333  -3.095  -3.604  0.00  0.00    +0.000 A 
ATOM      3  C   UNL     1      -4.451  -2.314  -3.927  0.00  0.00    +0.000 A 
ATOM      4  C   UNL     1      -5.695  -2.912  -4.135  0.00  0.00    +0.000 A 
ATOM      5  C   UNL     1      -5.833  -4.294  -4.018  0.00  0.00    +0.000 A 
ATOM      6  C   UNL     1      -4.729  -5.079  -3.691  0.00  0.00    +0.000 A 
ATOM      7  C   UNL     1      -3.484  -4.482  -3.482  0.00  0.00    +0.000 A 
ENDBRANCH   1   2
BRANCH   1   8
ATOM      8  C   UNL     1      -1.803  -2.076  -1.889  0.00  0.00    +0.000 C 
BRANCH   8   9
ATOM      9  C   UNL     1      -0.446  -1.409  -1.655  0.00  0.00    +0.000 C 
BRANCH   9  12
ATOM     10  C   UNL     1       1.533  -1.824   0.645  0.00  0.00    +0.000 C 
ATOM     11  C   UNL     1       1.095  -0.419   0.190  0.00  0.00    +0.000 C 
ATOM     12  C   UNL     1      -0.283  -1.025  -0.184  0.00  0.00    +0.000 C 
ATOM     13  C   UNL     1       0.041  -2.168   0.817  0.00  0.00    +0.000 C 
ENDBRANCH   9  12
ENDBRANCH   8   9
ENDBRANCH   1   8
TORSDOF 4
