REMARK  Name = *****
REMARK  3 active torsions:
REMARK  status: ('A' for Active; 'I' for Inactive)
REMARK    1  A    between atoms: C_1  and  C_2
REMARK    2  A    between atoms: C_5  and  C_8
REMARK    3  A    between atoms: C_9  and  C_10
REMARK                            x       y       z     vdW  Elec       q    Type
REMARK                         _______ _______ _______ _____ _____    ______ ____
ROOT
ATOM      1  C   UNL     1      -3.264   0.089  -0.064  0.00  0.00    +0.000 C 
ATOM      2  C   UNL     1      -4.049   1.179  -0.047  0.00  0.00    +0.000 C 
ENDROOT
BRANCH   1   7
ATOM      3  C   UNL     1       2.530   0.069  -0.052  0.00  0.00    +0.000 C 
ATOM      4  C   UNL     1       1.031   0.089  -0.034  0.00  0.00    +0.000 A 
ATOM      5  C   UNL     1       0.330   1.091   0.643  0.00  0.00    +0.000 A 
ATOM      6  C   UNL     1      -1.069   1.104   0.643  0.00  0.00    +0.000 A 
ATOM      7  C   UNL     1      -1.793   0.124  -0.045  0.00  0.00    +0.000 A 
ATOM      8  C   UNL     1      -1.088  -0.891  -0.703  0.00  0.00    +0.000 A 
ATOM      9  C   UNL     1       0.311  -0.906  -0.703  0.00  0.00    +0.000 A 
ENDBRANCH   1   7
BRANCH   2  10
ATOM     10  C   UNL     1      -5.557   1.121  -0.104  0.00  0.00    +0.000 C 
ATOM     11  C   UNL     1      -6.067   1.900  -1.328  0.00  0.00    +0.000 C 
ATOM     12  C   UNL     1      -7.592   1.860  -1.406  0.00  0.00    +0.000 C 
ATOM     13  C   UNL     1      -8.235   2.411  -0.142  0.00  0.00    +0.000 C 
ATOM     14  C   UNL     1      -7.669   1.729   1.083  0.00  0.00    +0.000 C 
ATOM     15  O   UNL     1      -8.396   1.354   2.002  0.00  0.00    +0.000 OA
ATOM     16  C   UNL     1      -6.162   1.672   1.189  0.00  0.00    +0.000 C 
ENDBRANCH   2  10
TORSDOF 2
