REMARK  Name = *****
REMARK  3 active torsions:
REMARK  status: ('A' for Active; 'I' for Inactive)
REMARK    1  A    between atoms: C_6  and  N_7
REMARK    2  A    between atoms: N_7  and  C_8
REMARK    3  A    between atoms: C_8  and  C_10
REMARK                            x       y       z     vdW  Elec       q    Type
REMARK                         _______ _______ _______ _____ _____    ______ ____
ROOT
ATOM      1  C   UNL     1      -3.982   1.885  -0.459  0.00  0.00    +0.000 C 
ATOM      2  S   UNL     1      -3.470   3.455  -0.168  0.00  0.00    +0.000 S 
ENDROOT
BRANCH   1   3
ATOM      3  C   UNL     1      -5.392   1.642  -0.887  0.00  0.00    +0.000 A 
ATOM      4  C   UNL     1      -6.466   2.038  -0.082  0.00  0.00    +0.000 A 
ATOM      5  C   UNL     1      -7.765   1.782  -0.510  0.00  0.00    +0.000 A 
ATOM      6  C   UNL     1      -8.014   1.139  -1.716  0.00  0.00    +0.000 A 
ATOM      7  C   UNL     1      -6.938   0.750  -2.503  0.00  0.00    +0.000 A 
ATOM      8  C   UNL     1      -5.628   0.991  -2.103  0.00  0.00    +0.000 A 
ATOM      9  F   UNL     1      -7.164   0.126  -3.666  0.00  0.00    +0.000 F 
ATOM     10  F   UNL     1      -8.796   2.156   0.259  0.00  0.00    +0.000 F 
ENDBRANCH   1   3
BRANCH   1  11
ATOM     11  N   UNL     1      -3.278   0.694  -0.316  0.00  0.00    +0.000 N 
ATOM     12  H   UNL     1      -3.841  -0.111  -0.386  0.00  0.00    +0.000 HD
BRANCH  11  18
ATOM     13  C   UNL     1      -0.865   1.335  -0.226  0.00  0.00    +0.000 A 
ATOM     14  C   UNL     1       0.461   0.946  -0.001  0.00  0.00    +0.000 A 
ATOM     15  C   UNL     1       0.747  -0.366   0.349  0.00  0.00    +0.000 A 
ATOM     16  C   UNL     1      -0.269  -1.301   0.472  0.00  0.00    +0.000 A 
ATOM     17  C   UNL     1      -1.592  -0.911   0.246  0.00  0.00    +0.000 A 
ATOM     18  C   UNL     1      -1.909   0.417  -0.091  0.00  0.00    +0.000 A 
ATOM     19  F   UNL     1       2.016  -0.736   0.559  0.00  0.00    +0.000 F 
ENDBRANCH  11  18
ENDBRANCH   1  11
TORSDOF 3
