REMARK  Name = *****
REMARK  5 active torsions:
REMARK  status: ('A' for Active; 'I' for Inactive)
REMARK    1  A    between atoms: C_1  and  O_2
REMARK    2  A    between atoms: O_2  and  C_3
REMARK    3  A    between atoms: C_3  and  C_4
REMARK    4  A    between atoms: C_3  and  C_11
REMARK    5  A    between atoms: C_4  and  C_5
REMARK                            x       y       z     vdW  Elec       q    Type
REMARK                         _______ _______ _______ _____ _____    ______ ____
ROOT
ATOM      1  C   UNL     1       2.891   1.075  -0.296  0.00  0.00    +0.000 C 
ENDROOT
BRANCH   1   2
ATOM      2  C   UNL     1       4.404   1.284  -0.578  0.00  0.00    +0.000 C 
ATOM      3  C   UNL     1       5.019   0.002  -1.175  0.00  0.00    +0.000 C 
ATOM      4  C   UNL     1       6.504   0.175  -1.486  0.00  0.00    +0.000 C 
ATOM      5  C   UNL     1       7.286   0.618  -0.255  0.00  0.00    +0.000 C 
ATOM      6  C   UNL     1       6.688   1.878   0.362  0.00  0.00    +0.000 C 
ATOM      7  C   UNL     1       5.202   1.706   0.671  0.00  0.00    +0.000 C 
ENDBRANCH   1   2
BRANCH   1   9
ATOM      8  C   UNL     1       1.525  -0.630   0.683  0.00  0.00    +0.000 C 
ATOM      9  O   UNL     1       2.763   0.066   0.721  0.00  0.00    +0.000 OA
ENDBRANCH   1   9
BRANCH   1  10
ATOM     10  C   UNL     1       2.158   2.363   0.150  0.00  0.00    +0.000 C 
BRANCH  10  11
ATOM     11  C   UNL     1       2.247   3.532  -0.809  0.00  0.00    +0.000 C 
ATOM     12  C   UNL     1       2.904   4.661  -0.484  0.00  0.00    +0.000 C 
ATOM     13  C   UNL     1       2.975   5.873  -1.366  0.00  0.00    +0.000 C 
ATOM     14  C   UNL     1       1.960   5.845  -2.508  0.00  0.00    +0.000 C 
ATOM     15  C   UNL     1       1.900   4.466  -3.152  0.00  0.00    +0.000 C 
ATOM     16  C   UNL     1       1.526   3.389  -2.130  0.00  0.00    +0.000 C 
ENDBRANCH  10  11
ENDBRANCH   1  10
TORSDOF 4
