REMARK  Name = *****
REMARK  4 active torsions:
REMARK  status: ('A' for Active; 'I' for Inactive)
REMARK    1  A    between atoms: C_3  and  O_8
REMARK    2  A    between atoms: O_8  and  C_9
REMARK    3  A    between atoms: C_9  and  C_11
REMARK    4  A    between atoms: C_14  and  C_17
REMARK                            x       y       z     vdW  Elec       q    Type
REMARK                         _______ _______ _______ _____ _____    ______ ____
ROOT
ATOM      1  C   UNL     1       1.044   4.445  -0.553  0.00  0.00    +0.000 C 
ATOM      2  O   UNL     1       0.358   4.042   0.374  0.00  0.00    +0.000 OA
ENDROOT
BRANCH   1   3
ATOM      3  C   UNL     1       2.112   5.471  -0.388  0.00  0.00    +0.000 A 
ATOM      4  C   UNL     1       2.936   5.885  -1.443  0.00  0.00    +0.000 A 
ATOM      5  C   UNL     1       3.924   6.852  -1.227  0.00  0.00    +0.000 A 
ATOM      6  C   UNL     1       4.110   7.416   0.044  0.00  0.00    +0.000 A 
ATOM      7  C   UNL     1       3.276   7.005   1.095  0.00  0.00    +0.000 A 
ATOM      8  C   UNL     1       2.289   6.038   0.881  0.00  0.00    +0.000 A 
BRANCH   6   9
ATOM      9  C   UNL     1       5.164   8.476   0.263  0.00  0.00    +0.000 C 
ATOM     10  F   UNL     1       6.297   8.251  -0.459  0.00  0.00    +0.000 F 
ATOM     11  F   UNL     1       4.731   9.716  -0.096  0.00  0.00    +0.000 F 
ATOM     12  F   UNL     1       5.564   8.578   1.561  0.00  0.00    +0.000 F 
ENDBRANCH   6   9
ENDBRANCH   1   3
BRANCH   1  13
ATOM     13  O   UNL     1       0.972   4.054  -1.878  0.00  0.00    +0.000 OA
BRANCH  13  16
ATOM     14  C   UNL     1      -0.557   0.894  -2.950  0.00  0.00    +0.000 A 
ATOM     15  C   UNL     1       0.399   1.850  -2.609  0.00  0.00    +0.000 A 
ATOM     16  C   UNL     1      -0.016   3.102  -2.156  0.00  0.00    +0.000 A 
ATOM     17  C   UNL     1      -1.369   3.431  -2.073  0.00  0.00    +0.000 A 
ATOM     18  C   UNL     1      -2.315   2.468  -2.414  0.00  0.00    +0.000 A 
ATOM     19  C   UNL     1      -1.916   1.202  -2.850  0.00  0.00    +0.000 A 
ATOM     20 CL   UNL     1      -3.991   2.843  -2.309  0.00  0.00    +0.000 Cl
ENDBRANCH  13  16
ENDBRANCH   1  13
TORSDOF 4
