REMARK  Name = *****
REMARK  3 active torsions:
REMARK  status: ('A' for Active; 'I' for Inactive)
REMARK    1  A    between atoms: C_2  and  C_4
REMARK    2  A    between atoms: C_2  and  C_11
REMARK    3  A    between atoms: C_11  and  C_12
REMARK                            x       y       z     vdW  Elec       q    Type
REMARK                         _______ _______ _______ _____ _____    ______ ____
ROOT
ATOM      1  C   UNL     1      -0.172   0.690  -0.316  0.00  0.00    +0.000 C 
ATOM      2  C   UNL     1       0.791  -0.409   0.110  0.00  0.00    +0.000 C 
ATOM      3  O   UNL     1      -0.565  -0.684  -0.321  0.00  0.00    +0.000 OA
ENDROOT
BRANCH   2   4
ATOM      4  C   UNL     1       1.888  -0.839  -0.850  0.00  0.00    +0.000 A 
ATOM      5  C   UNL     1       2.909   0.046  -1.247  0.00  0.00    +0.000 A 
ATOM      6  C   UNL     1       3.920  -0.358  -2.122  0.00  0.00    +0.000 A 
ATOM      7  C   UNL     1       3.920  -1.655  -2.615  0.00  0.00    +0.000 A 
ATOM      8  C   UNL     1       2.929  -2.554  -2.249  0.00  0.00    +0.000 A 
ATOM      9  C   UNL     1       1.921  -2.146  -1.372  0.00  0.00    +0.000 A 
ATOM     10  F   UNL     1       4.889  -2.044  -3.454  0.00  0.00    +0.000 F 
ENDBRANCH   2   4
BRANCH   2  11
ATOM     11  C   UNL     1       1.029  -0.655   1.598  0.00  0.00    +0.000 C 
ATOM     12  F   UNL     1      -0.099  -0.324   2.299  0.00  0.00    +0.000 F 
ATOM     13  F   UNL     1       1.171  -2.004   1.786  0.00  0.00    +0.000 F 
BRANCH  11  14
ATOM     14  C   UNL     1       2.219   0.066   2.182  0.00  0.00    +0.000 A 
ATOM     15  C   UNL     1       3.453  -0.455   2.527  0.00  0.00    +0.000 A 
ATOM     16  C   UNL     1       4.340   0.535   3.040  0.00  0.00    +0.000 A 
ATOM     17  C   UNL     1       3.756   1.781   3.074  0.00  0.00    +0.000 A 
ATOM     18  S   UNL     1       2.151   1.754   2.488  0.00  0.00    +0.000 S 
ENDBRANCH  11  14
ENDBRANCH   2  11
TORSDOF 3
