REMARK  Name = *****
REMARK  3 active torsions:
REMARK  status: ('A' for Active; 'I' for Inactive)
REMARK    1  A    between atoms: C_4  and  O_7
REMARK    2  A    between atoms: O_7  and  C_8
REMARK    3  A    between atoms: C_8  and  C_10
REMARK                            x       y       z     vdW  Elec       q    Type
REMARK                         _______ _______ _______ _____ _____    ______ ____
ROOT
ATOM      1  C   UNL     1       3.440  -1.735   0.307  0.00  0.00    +0.000 C 
ATOM      2  O   UNL     1       3.119  -2.321   1.328  0.00  0.00    +0.000 OA
ENDROOT
BRANCH   1   3
ATOM      3  C   UNL     1       4.680  -2.023  -0.435  0.00  0.00    +0.000 A 
ATOM      4  C   UNL     1       4.980  -3.375  -0.665  0.00  0.00    +0.000 A 
ATOM      5  C   UNL     1       6.133  -3.730  -1.364  0.00  0.00    +0.000 A 
ATOM      6  C   UNL     1       6.996  -2.739  -1.829  0.00  0.00    +0.000 A 
ATOM      7  C   UNL     1       6.712  -1.393  -1.584  0.00  0.00    +0.000 A 
ATOM      8  C   UNL     1       5.558  -1.029  -0.881  0.00  0.00    +0.000 A 
ATOM      9 CL   UNL     1       5.326   0.652  -0.554  0.00  0.00    +0.000 Cl
ENDBRANCH   1   3
BRANCH   1  10
ATOM     10  O   UNL     1       2.698  -0.840  -0.387  0.00  0.00    +0.000 OA
BRANCH  10  14
ATOM     11  C   UNL     1      -1.380   0.317  -0.259  0.00  0.00    +0.000 C 
ATOM     12  C   UNL     1      -1.027  -1.086   0.227  0.00  0.00    +0.000 C 
ATOM     13  C   UNL     1       0.367  -1.505  -0.230  0.00  0.00    +0.000 C 
ATOM     14  C   UNL     1       1.430  -0.487   0.193  0.00  0.00    +0.000 C 
ATOM     15  C   UNL     1       1.071   0.913  -0.310  0.00  0.00    +0.000 C 
ATOM     16  C   UNL     1      -0.321   1.338   0.147  0.00  0.00    +0.000 C 
ENDBRANCH  10  14
ENDBRANCH   1  10
TORSDOF 3
