REMARK  Name = *****
REMARK  5 active torsions:
REMARK  status: ('A' for Active; 'I' for Inactive)
REMARK    1  A    between atoms: C_1  and  C_2
REMARK    2  A    between atoms: C_2  and  C_3
REMARK    3  A    between atoms: C_2  and  N_9
REMARK    4  A    between atoms: N_9  and  C_10
REMARK    5  A    between atoms: N_9  and  C_11
REMARK                            x       y       z     vdW  Elec       q    Type
REMARK                         _______ _______ _______ _____ _____    ______ ____
ROOT
ATOM      1  C   UNL     1       3.003  -0.009   1.364  0.00  0.00    +0.000 C 
ATOM      2  C   UNL     1       2.403  -0.107  -0.047  0.00  0.00    +0.000 C 
ENDROOT
BRANCH   2   3
ATOM      3  C   UNL     1       0.877  -0.052  -0.001  0.00  0.00    +0.000 A 
ATOM      4  C   UNL     1       0.095  -1.044   0.611  0.00  0.00    +0.000 A 
ATOM      5  C   UNL     1      -1.298  -0.937   0.659  0.00  0.00    +0.000 A 
ATOM      6  C   UNL     1      -1.936   0.170   0.107  0.00  0.00    +0.000 A 
ATOM      7  C   UNL     1      -1.180   1.175  -0.488  0.00  0.00    +0.000 A 
ATOM      8  C   UNL     1       0.212   1.067  -0.536  0.00  0.00    +0.000 A 
ENDBRANCH   2   3
BRANCH   2   9
ATOM      9  N   UNL     1       2.968  -1.260  -0.784  0.00  0.00    +0.000 N 
ATOM     10  C   UNL     1       2.833  -2.615  -0.258  0.00  0.00    +0.000 C 
BRANCH   9  11
ATOM     11  C   UNL     1       3.278  -1.160  -2.144  0.00  0.00    +0.000 A 
ATOM     12  C   UNL     1       4.310  -1.935  -2.705  0.00  0.00    +0.000 A 
ATOM     13  C   UNL     1       4.652  -1.854  -4.061  0.00  0.00    +0.000 A 
ATOM     14  C   UNL     1       3.964  -0.987  -4.900  0.00  0.00    +0.000 A 
ATOM     15  C   UNL     1       2.942  -0.205  -4.378  0.00  0.00    +0.000 A 
ATOM     16  C   UNL     1       2.611  -0.291  -3.019  0.00  0.00    +0.000 A 
ENDBRANCH   9  11
ENDBRANCH   2   9
TORSDOF 3
