REMARK  Name = *****
REMARK  6 active torsions:
REMARK  status: ('A' for Active; 'I' for Inactive)
REMARK    1  A    between atoms: C_1  and  C_2
REMARK    2  A    between atoms: C_4  and  O_17
REMARK    3  A    between atoms: C_6  and  C_16
REMARK    4  A    between atoms: C_7  and  C_8
REMARK    5  A    between atoms: C_9  and  C_10
REMARK    6  A    between atoms: O_17  and  C_18
REMARK                            x       y       z     vdW  Elec       q    Type
REMARK                         _______ _______ _______ _____ _____    ______ ____
ROOT
ATOM      1  C   UNL     1       0.898  -0.057  -0.038  0.00  0.00    +0.000 C 
ATOM      2  C   UNL     1       2.403  -0.010  -0.040  0.00  0.00    +0.000 A 
ATOM      3  C   UNL     1       3.126  -1.217  -0.047  0.00  0.00    +0.000 A 
ATOM      4  C   UNL     1       4.520  -1.214  -0.052  0.00  0.00    +0.000 A 
ATOM      5  C   UNL     1       5.200   0.005  -0.047  0.00  0.00    +0.000 A 
ATOM      6  C   UNL     1       4.508   1.227  -0.040  0.00  0.00    +0.000 A 
ATOM      7  C   UNL     1       3.100   1.215  -0.039  0.00  0.00    +0.000 A 
ATOM      8  C   UNL     1       5.290   2.513  -0.039  0.00  0.00    +0.000 C 
ENDROOT
BRANCH   7   9
ATOM      9  C   UNL     1       2.374   2.455  -0.046  0.00  0.00    +0.000 C 
ATOM     10  C   UNL     1       1.769   3.493  -0.068  0.00  0.00    +0.000 C 
BRANCH  10  11
ATOM     11  C   UNL     1       1.052   4.729  -0.116  0.00  0.00    +0.000 A 
ATOM     12  C   UNL     1      -0.322   4.731  -0.368  0.00  0.00    +0.000 A 
ATOM     13  C   UNL     1      -1.019   5.939  -0.431  0.00  0.00    +0.000 A 
ATOM     14  C   UNL     1      -0.344   7.145  -0.241  0.00  0.00    +0.000 A 
ATOM     15  C   UNL     1       1.027   7.144   0.013  0.00  0.00    +0.000 A 
ATOM     16  C   UNL     1       1.726   5.937   0.076  0.00  0.00    +0.000 A 
ENDBRANCH  10  11
ENDBRANCH   7   9
BRANCH   4  17
ATOM     17  O   UNL     1       5.329  -2.317  -0.061  0.00  0.00    +0.000 OA
ATOM     18  C   UNL     1       4.689  -3.586  -0.075  0.00  0.00    +0.000 C 
ENDBRANCH   4  17
TORSDOF 3
