REMARK  Name = *****
REMARK  3 active torsions:
REMARK  status: ('A' for Active; 'I' for Inactive)
REMARK    1  A    between atoms: C_1  and  C_2
REMARK    2  A    between atoms: C_4  and  C_8
REMARK    3  A    between atoms: C_14  and  C_17
REMARK                            x       y       z     vdW  Elec       q    Type
REMARK                         _______ _______ _______ _____ _____    ______ ____
ROOT
ATOM      1  C   UNL     1      -1.262   2.909  -0.221  0.00  0.00    +0.000 A 
ATOM      2  N   UNL     1      -1.172   3.940  -1.044  0.00  0.00    +0.000 NA
ATOM      3  C   UNL     1      -2.027   4.866  -0.503  0.00  0.00    +0.000 A 
ATOM      4  C   UNL     1      -2.612   4.354   0.641  0.00  0.00    +0.000 A 
ATOM      5  O   UNL     1      -2.125   3.095   0.832  0.00  0.00    +0.000 OA
ATOM      6  C   UNL     1      -3.530   5.032   1.435  0.00  0.00    +0.000 A 
ATOM      7  C   UNL     1      -3.876   6.327   1.011  0.00  0.00    +0.000 A 
ATOM      8  C   UNL     1      -3.288   6.882  -0.140  0.00  0.00    +0.000 A 
ATOM      9  C   UNL     1      -2.363   6.161  -0.914  0.00  0.00    +0.000 A 
ATOM     10  C   UNL     1      -4.836   7.147   1.828  0.00  0.00    +0.000 C 
ENDROOT
BRANCH   1  14
ATOM     11  C   UNL     1       1.933  -0.119  -2.580  0.00  0.00    +0.000 C 
ATOM     12  C   UNL     1       1.008   0.145  -1.429  0.00  0.00    +0.000 A 
ATOM     13  C   UNL     1       0.322   1.365  -1.336  0.00  0.00    +0.000 A 
ATOM     14  C   UNL     1      -0.574   1.620  -0.285  0.00  0.00    +0.000 A 
ATOM     15  C   UNL     1      -0.781   0.619   0.674  0.00  0.00    +0.000 A 
ATOM     16  C   UNL     1      -0.115  -0.605   0.582  0.00  0.00    +0.000 A 
ATOM     17  C   UNL     1       0.771  -0.842  -0.468  0.00  0.00    +0.000 A 
ENDBRANCH   1  14
TORSDOF 1
