REMARK  Name = *****
REMARK  5 active torsions:
REMARK  status: ('A' for Active; 'I' for Inactive)
REMARK    1  A    between atoms: C_1  and  O_2
REMARK    2  A    between atoms: O_2  and  C_3
REMARK    3  A    between atoms: C_3  and  C_5
REMARK    4  A    between atoms: C_8  and  C_10
REMARK    5  A    between atoms: C_11  and  C_12
REMARK                            x       y       z     vdW  Elec       q    Type
REMARK                         _______ _______ _______ _____ _____    ______ ____
ROOT
ATOM      1  C   UNL     1       4.582  -0.738  -0.847  0.00  0.00    +0.000 A 
ATOM      2  C   UNL     1       5.290  -0.627   0.333  0.00  0.00    +0.000 A 
ATOM      3  C   UNL     1       6.702  -0.620   0.126  0.00  0.00    +0.000 A 
ATOM      4  C   UNL     1       7.057  -0.727  -1.208  0.00  0.00    +0.000 A 
ATOM      5  S   UNL     1       5.640  -0.834  -2.188  0.00  0.00    +0.000 S 
ENDROOT
BRANCH   1   6
ATOM      6  C   UNL     1       3.148  -0.778  -1.066  0.00  0.00    +0.000 C 
ATOM      7  O   UNL     1       2.576  -0.878  -2.146  0.00  0.00    +0.000 OA
BRANCH   6   9
ATOM      8  C   UNL     1       1.074  -0.715   0.025  0.00  0.00    +0.000 C 
ATOM      9  O   UNL     1       2.498  -0.687   0.133  0.00  0.00    +0.000 OA
ENDBRANCH   6   9
ENDBRANCH   1   6
BRANCH   4  10
ATOM     10  C   UNL     1       8.331  -0.756  -1.850  0.00  0.00    +0.000 C 
ATOM     11  C   UNL     1       9.486  -0.678  -1.168  0.00  0.00    +0.000 C 
BRANCH  11  12
ATOM     12  C   UNL     1      10.809  -0.710  -1.809  0.00  0.00    +0.000 A 
ATOM     13  C   UNL     1      11.080  -0.015  -2.995  0.00  0.00    +0.000 A 
ATOM     14  C   UNL     1      12.360  -0.050  -3.550  0.00  0.00    +0.000 A 
ATOM     15  C   UNL     1      13.384  -0.763  -2.931  0.00  0.00    +0.000 A 
ATOM     16  C   UNL     1      13.128  -1.444  -1.742  0.00  0.00    +0.000 A 
ATOM     17  C   UNL     1      11.848  -1.412  -1.182  0.00  0.00    +0.000 A 
ATOM     18 CL   UNL     1      12.680   0.803  -5.011  0.00  0.00    +0.000 Cl
ENDBRANCH  11  12
ENDBRANCH   4  10
TORSDOF 4
