REMARK  Name = *****
REMARK  3 active torsions:
REMARK  status: ('A' for Active; 'I' for Inactive)
REMARK    1  A    between atoms: C_4  and  S_8
REMARK    2  A    between atoms: S_8  and  C_10
REMARK    3  A    between atoms: C_10  and  C_11
REMARK                            x       y       z     vdW  Elec       q    Type
REMARK                         _______ _______ _______ _____ _____    ______ ____
ROOT
ATOM      1  C   UNL     1       3.713   3.582  -0.146  0.00  0.00    +0.000 A 
ATOM      2  C   UNL     1       3.864   4.534   0.866  0.00  0.00    +0.000 A 
ATOM      3  C   UNL     1       4.632   5.679   0.669  0.00  0.00    +0.000 A 
ATOM      4  C   UNL     1       5.261   5.889  -0.549  0.00  0.00    +0.000 A 
ATOM      5  C   UNL     1       5.125   4.956  -1.567  0.00  0.00    +0.000 A 
ATOM      6  C   UNL     1       4.356   3.813  -1.366  0.00  0.00    +0.000 A 
ATOM      7  F   UNL     1       4.245   2.914  -2.354  0.00  0.00    +0.000 F 
ATOM      8  F   UNL     1       5.744   5.149  -2.741  0.00  0.00    +0.000 F 
ATOM      9  F   UNL     1       6.008   6.986  -0.738  0.00  0.00    +0.000 F 
ATOM     10  F   UNL     1       4.766   6.573   1.658  0.00  0.00    +0.000 F 
ATOM     11  F   UNL     1       3.262   4.339   2.048  0.00  0.00    +0.000 F 
ENDROOT
BRANCH   1  12
ATOM     12  C   UNL     1       2.850   2.370   0.057  0.00  0.00    +0.000 C 
BRANCH  12  13
ATOM     13  S   UNL     1       1.075   2.795  -0.040  0.00  0.00    +0.000 S 
ATOM     14  O   UNL     1       0.832   3.439  -1.375  0.00  0.00    +0.000 OA
BRANCH  13  18
ATOM     15  C   UNL     1      -0.593  -1.490  -0.331  0.00  0.00    +0.000 A 
ATOM     16  C   UNL     1      -0.730  -0.616  -1.410  0.00  0.00    +0.000 A 
ATOM     17  C   UNL     1      -0.223   0.684  -1.330  0.00  0.00    +0.000 A 
ATOM     18  C   UNL     1       0.430   1.116  -0.170  0.00  0.00    +0.000 A 
ATOM     19  C   UNL     1       0.551   0.233   0.904  0.00  0.00    +0.000 A 
ATOM     20  C   UNL     1       0.049  -1.064   0.830  0.00  0.00    +0.000 A 
ATOM     21  F   UNL     1       1.165   0.619   2.032  0.00  0.00    +0.000 F 
ENDBRANCH  13  18
ENDBRANCH  12  13
ENDBRANCH   1  12
TORSDOF 3
