REMARK  Name = *****
REMARK  4 active torsions:
REMARK  status: ('A' for Active; 'I' for Inactive)
REMARK    1  A    between atoms: C_1  and  C_2
REMARK    2  A    between atoms: C_4  and  C_8
REMARK    3  A    between atoms: C_9  and  C_10
REMARK    4  A    between atoms: C_13  and  C_15
REMARK                            x       y       z     vdW  Elec       q    Type
REMARK                         _______ _______ _______ _____ _____    ______ ____
ROOT
ATOM      1  C   UNL     1       5.272   2.718  -0.580  0.00  0.00    +0.000 C 
ATOM      2  C   UNL     1       5.819   3.780  -0.709  0.00  0.00    +0.000 C 
ENDROOT
BRANCH   1   6
ATOM      3  C   UNL     1       1.108   0.060  -0.046  0.00  0.00    +0.000 C 
ATOM      4  C   UNL     1       2.602   0.140  -0.142  0.00  0.00    +0.000 A 
ATOM      5  C   UNL     1       3.239   1.378  -0.303  0.00  0.00    +0.000 A 
ATOM      6  C   UNL     1       4.630   1.450  -0.425  0.00  0.00    +0.000 A 
ATOM      7  C   UNL     1       5.392   0.281  -0.399  0.00  0.00    +0.000 A 
ATOM      8  C   UNL     1       4.765  -0.957  -0.255  0.00  0.00    +0.000 A 
ATOM      9  C   UNL     1       3.376  -1.028  -0.132  0.00  0.00    +0.000 A 
ENDBRANCH   1   6
BRANCH   2  10
ATOM     10  C   UNL     1       6.471   5.037  -0.859  0.00  0.00    +0.000 A 
ATOM     11  C   UNL     1       5.926   6.256  -0.526  0.00  0.00    +0.000 A 
ATOM     12  S   UNL     1       7.057   7.498  -0.870  0.00  0.00    +0.000 S 
ATOM     13  C   UNL     1       8.170   6.309  -1.431  0.00  0.00    +0.000 A 
ATOM     14  N   UNL     1       7.748   5.063  -1.374  0.00  0.00    +0.000 NA
ATOM     15  C   UNL     1       9.508   6.722  -1.934  0.00  0.00    +0.000 C 
ENDBRANCH   2  10
TORSDOF 2
