REMARK  Name = *****
REMARK  6 active torsions:
REMARK  status: ('A' for Active; 'I' for Inactive)
REMARK    1  A    between atoms: C_1  and  C_2
REMARK    2  A    between atoms: C_6  and  C_16
REMARK    3  A    between atoms: C_7  and  C_8
REMARK    4  A    between atoms: C_7  and  C_9
REMARK    5  A    between atoms: C_9  and  C_10
REMARK    6  A    between atoms: C_10  and  C_11
REMARK                            x       y       z     vdW  Elec       q    Type
REMARK                         _______ _______ _______ _____ _____    ______ ____
ROOT
ATOM      1  C   UNL     1       1.598   0.442   1.175  0.00  0.00    +0.000 C 
ATOM      2  C   UNL     1       2.649   0.252   0.072  0.00  0.00    +0.000 C 
ATOM      3  C   UNL     1       2.270   1.137  -1.129  0.00  0.00    +0.000 C 
ATOM      4  C   UNL     1       3.333   1.116  -2.219  0.00  0.00    +0.000 C 
ATOM      5  C   UNL     1       4.069  -0.181  -2.344  0.00  0.00    +0.000 C 
ATOM      6  C   UNL     1       3.922  -1.247  -1.532  0.00  0.00    +0.000 C 
ATOM      7  C   UNL     1       2.908  -1.251  -0.365  0.00  0.00    +0.000 C 
ATOM      8  C   UNL     1       3.489  -2.003   0.858  0.00  0.00    +0.000 C 
ATOM      9  C   UNL     1       4.838  -2.432  -1.733  0.00  0.00    +0.000 C 
ENDROOT
BRANCH   7  10
ATOM     10  C   UNL     1       1.559  -1.922  -0.791  0.00  0.00    +0.000 C 
BRANCH  10  11
ATOM     11  C   UNL     1       1.624  -3.361  -1.321  0.00  0.00    +0.000 C 
BRANCH  11  12
ATOM     12  C   UNL     1       0.262  -3.944  -1.519  0.00  0.00    +0.000 A 
ATOM     13  C   UNL     1      -0.513  -3.887  -2.661  0.00  0.00    +0.000 A 
ATOM     14  O   UNL     1      -1.695  -4.527  -2.475  0.00  0.00    +0.000 OA
ATOM     15  C   UNL     1      -1.689  -5.003  -1.204  0.00  0.00    +0.000 A 
ATOM     16  C   UNL     1      -0.513  -4.674  -0.574  0.00  0.00    +0.000 A 
ENDBRANCH  11  12
ENDBRANCH  10  11
ENDBRANCH   7  10
TORSDOF 3
