REMARK  Name = *****
REMARK  1 active torsions:
REMARK  status: ('A' for Active; 'I' for Inactive)
REMARK    1  A    between atoms: C_1  and  N_2
REMARK                            x       y       z     vdW  Elec       q    Type
REMARK                         _______ _______ _______ _____ _____    ______ ____
ROOT
ATOM      1  C   UNL     1       3.225   1.094   2.421  0.00  0.00    +0.000 C 
ATOM      2  N   UNL     1       3.810  -0.148   2.902  0.00  0.00    +0.000 N 
ATOM      3  C   UNL     1       5.078  -0.042   3.628  0.00  0.00    +0.000 A 
ATOM      4  C   UNL     1       5.822   1.148   3.645  0.00  0.00    +0.000 A 
ATOM      5  C   UNL     1       7.020   1.240   4.365  0.00  0.00    +0.000 A 
ATOM      6  C   UNL     1       7.490   0.154   5.100  0.00  0.00    +0.000 A 
ATOM      7  C   UNL     1       6.760  -1.031   5.130  0.00  0.00    +0.000 A 
ATOM      8  C   UNL     1       5.565  -1.126   4.411  0.00  0.00    +0.000 A 
ATOM      9  C   UNL     1       4.772  -2.304   4.512  0.00  0.00    +0.000 C 
ATOM     10  C   UNL     1       3.831  -2.960   4.175  0.00  0.00    +0.000 C 
ATOM     11  C   UNL     1       2.721  -3.111   3.302  0.00  0.00    +0.000 A 
ATOM     12  C   UNL     1       2.635  -2.225   2.207  0.00  0.00    +0.000 A 
ATOM     13  C   UNL     1       3.688  -1.189   1.950  0.00  0.00    +0.000 C 
ATOM     14  O   UNL     1       4.250  -1.175   0.857  0.00  0.00    +0.000 OA
ATOM     15  C   UNL     1       1.593  -2.361   1.283  0.00  0.00    +0.000 A 
ATOM     16  C   UNL     1       0.623  -3.346   1.480  0.00  0.00    +0.000 A 
ATOM     17  C   UNL     1       0.710  -4.195   2.583  0.00  0.00    +0.000 A 
ATOM     18  C   UNL     1       1.754  -4.093   3.498  0.00  0.00    +0.000 A 
ATOM     19  F   UNL     1      -0.226  -5.136   2.760  0.00  0.00    +0.000 F 
ENDROOT
TORSDOF 0
