REMARK  Name = *****
REMARK  4 active torsions:
REMARK  status: ('A' for Active; 'I' for Inactive)
REMARK    1  A    between atoms: C_4  and  O_7
REMARK    2  A    between atoms: O_7  and  N_8
REMARK    3  A    between atoms: N_8  and  C_9
REMARK    4  A    between atoms: C_9  and  C_10
REMARK                            x       y       z     vdW  Elec       q    Type
REMARK                         _______ _______ _______ _____ _____    ______ ____
ROOT
ATOM      1  C   UNL     1      -4.751  -0.522  -0.509  0.00  0.00    +0.000 C 
ENDROOT
BRANCH   1   2
ATOM      2  C   UNL     1      -5.795  -1.563  -0.543  0.00  0.00    +0.000 A 
ATOM      3  C   UNL     1      -5.524  -2.864  -0.110  0.00  0.00    +0.000 A 
ATOM      4  C   UNL     1      -6.532  -3.825  -0.156  0.00  0.00    +0.000 A 
ATOM      5  C   UNL     1      -7.802  -3.501  -0.628  0.00  0.00    +0.000 A 
ATOM      6  C   UNL     1      -8.060  -2.201  -1.057  0.00  0.00    +0.000 A 
ATOM      7  C   UNL     1      -7.065  -1.225  -1.019  0.00  0.00    +0.000 A 
ATOM      8 CL   UNL     1      -9.626  -1.792  -1.642  0.00  0.00    +0.000 Cl
ATOM      9 CL   UNL     1      -6.205  -5.428   0.376  0.00  0.00    +0.000 Cl
ENDBRANCH   1   2
BRANCH   1  10
ATOM     10  N   UNL     1      -3.555  -0.772  -0.085  0.00  0.00    +0.000 NA
BRANCH  10  11
ATOM     11  O   UNL     1      -2.795   0.404  -0.173  0.00  0.00    +0.000 OA
BRANCH  11  15
ATOM     12  C   UNL     1       1.173   0.027   1.059  0.00  0.00    +0.000 A 
ATOM     13  C   UNL     1       0.341  -1.088   1.147  0.00  0.00    +0.000 A 
ATOM     14  C   UNL     1      -0.994  -1.000   0.744  0.00  0.00    +0.000 A 
ATOM     15  C   UNL     1      -1.500   0.205   0.251  0.00  0.00    +0.000 A 
ATOM     16  C   UNL     1      -0.661   1.320   0.166  0.00  0.00    +0.000 A 
ATOM     17  C   UNL     1       0.673   1.232   0.569  0.00  0.00    +0.000 A 
ENDBRANCH  11  15
ENDBRANCH  10  11
ENDBRANCH   1  10
TORSDOF 4
