REMARK  Name = *****
REMARK  4 active torsions:
REMARK  status: ('A' for Active; 'I' for Inactive)
REMARK    1  A    between atoms: C_4  and  C_7
REMARK    2  A    between atoms: C_7  and  N_8
REMARK    3  A    between atoms: N_8  and  C_9
REMARK    4  A    between atoms: N_8  and  C_11
REMARK                            x       y       z     vdW  Elec       q    Type
REMARK                         _______ _______ _______ _____ _____    ______ ____
ROOT
ATOM      1  N   UNL     1      -3.613  -0.979  -0.443  0.00  0.00    +0.000 N 
ENDROOT
BRANCH   1   2
ATOM      2  C   UNL     1      -5.048  -0.876  -0.287  0.00  0.00    +0.000 A 
ATOM      3  C   UNL     1      -5.909  -1.905  -0.705  0.00  0.00    +0.000 A 
ATOM      4  C   UNL     1      -7.298  -1.802  -0.556  0.00  0.00    +0.000 A 
ATOM      5  C   UNL     1      -7.859  -0.664   0.012  0.00  0.00    +0.000 A 
ATOM      6  C   UNL     1      -7.031   0.373   0.424  0.00  0.00    +0.000 A 
ATOM      7  C   UNL     1      -5.643   0.269   0.271  0.00  0.00    +0.000 A 
ENDBRANCH   1   2
BRANCH   1   8
ATOM      8  C   UNL     1      -2.990  -2.224  -0.590  0.00  0.00    +0.000 C 
ATOM      9  S   UNL     1      -1.376  -2.557  -0.887  0.00  0.00    +0.000 S 
ENDBRANCH   1   8
BRANCH   1  10
ATOM     10  C   UNL     1      -2.821   0.270  -0.458  0.00  0.00    +0.000 C 
BRANCH  10  14
ATOM     11  C   UNL     1      -1.304   1.755   3.318  0.00  0.00    +0.000 A 
ATOM     12  C   UNL     1      -1.964   0.529   3.286  0.00  0.00    +0.000 A 
ATOM     13  C   UNL     1      -2.462   0.030   2.079  0.00  0.00    +0.000 A 
ATOM     14  C   UNL     1      -2.309   0.753   0.887  0.00  0.00    +0.000 A 
ATOM     15  C   UNL     1      -1.636   1.986   0.937  0.00  0.00    +0.000 A 
ATOM     16  C   UNL     1      -1.139   2.483   2.143  0.00  0.00    +0.000 A 
ENDBRANCH  10  14
ENDBRANCH   1  10
TORSDOF 4
