REMARK  Name = *****
REMARK  4 active torsions:
REMARK  status: ('A' for Active; 'I' for Inactive)
REMARK    1  A    between atoms: C_1  and  O_2
REMARK    2  A    between atoms: O_2  and  C_3
REMARK    3  A    between atoms: C_7  and  C_9
REMARK    4  A    between atoms: C_10  and  C_11
REMARK                            x       y       z     vdW  Elec       q    Type
REMARK                         _______ _______ _______ _____ _____    ______ ____
ROOT
ATOM      1  C   UNL     1       3.142  -0.255   1.223  0.00  0.00    +0.000 A 
ATOM      2  C   UNL     1       2.641  -1.264   2.045  0.00  0.00    +0.000 A 
ATOM      3  C   UNL     1       3.428  -1.778   3.078  0.00  0.00    +0.000 A 
ATOM      4  C   UNL     1       4.716  -1.283   3.296  0.00  0.00    +0.000 A 
ATOM      5  C   UNL     1       5.226  -0.259   2.491  0.00  0.00    +0.000 A 
ATOM      6  C   UNL     1       4.432   0.237   1.448  0.00  0.00    +0.000 A 
ENDROOT
BRANCH   1   8
ATOM      7  C   UNL     1       1.169  -0.139  -0.100  0.00  0.00    +0.000 C 
ATOM      8  O   UNL     1       2.484   0.329   0.175  0.00  0.00    +0.000 OA
ENDBRANCH   1   8
BRANCH   5   9
ATOM      9  C   UNL     1       6.588   0.268   2.661  0.00  0.00    +0.000 C 
ATOM     10  C   UNL     1       7.183   0.452   3.852  0.00  0.00    +0.000 C 
BRANCH  10  11
ATOM     11  C   UNL     1       8.572   0.992   4.015  0.00  0.00    +0.000 C 
ATOM     12  S   UNL     1       9.592  -0.248   4.870  0.00  0.00    +0.000 S 
ATOM     13  C   UNL     1      10.274   0.862   6.126  0.00  0.00    +0.000 C 
ATOM     14  C   UNL     1       9.188   1.846   6.510  0.00  0.00    +0.000 C 
ATOM     15  S   UNL     1       8.514   2.531   4.977  0.00  0.00    +0.000 S 
ENDBRANCH  10  11
ENDBRANCH   5   9
TORSDOF 3
