REMARK  Name = *****
REMARK  3 active torsions:
REMARK  status: ('A' for Active; 'I' for Inactive)
REMARK    1  A    between atoms: C_4  and  N_7
REMARK    2  A    between atoms: N_7  and  C_8
REMARK    3  A    between atoms: C_8  and  C_10
REMARK                            x       y       z     vdW  Elec       q    Type
REMARK                         _______ _______ _______ _____ _____    ______ ____
ROOT
ATOM      1  N   UNL     1       2.778  -0.689  -0.101  0.00  0.00    +0.000 N 
ATOM      2  H   UNL     1       3.083  -0.299  -0.952  0.00  0.00    +0.000 HD
ENDROOT
BRANCH   1   6
ATOM      3  C   UNL     1      -1.395   0.301  -0.367  0.00  0.00    +0.000 C 
ATOM      4  C   UNL     1      -1.013  -1.067   0.190  0.00  0.00    +0.000 C 
ATOM      5  C   UNL     1       0.429  -1.433  -0.152  0.00  0.00    +0.000 C 
ATOM      6  C   UNL     1       1.413  -0.350   0.310  0.00  0.00    +0.000 C 
ATOM      7  C   UNL     1       1.023   1.019  -0.264  0.00  0.00    +0.000 C 
ATOM      8  C   UNL     1      -0.418   1.384   0.083  0.00  0.00    +0.000 C 
ENDBRANCH   1   6
BRANCH   1   9
ATOM      9  C   UNL     1       3.692  -1.490   0.562  0.00  0.00    +0.000 C 
ATOM     10  S   UNL     1       3.459  -2.115   2.102  0.00  0.00    +0.000 S 
BRANCH   9  11
ATOM     11  C   UNL     1       4.938  -1.783  -0.157  0.00  0.00    +0.000 A 
ATOM     12  C   UNL     1       6.064  -2.490   0.248  0.00  0.00    +0.000 A 
ATOM     13  C   UNL     1       7.080  -2.558  -0.751  0.00  0.00    +0.000 A 
ATOM     14  C   UNL     1       6.713  -1.904  -1.901  0.00  0.00    +0.000 A 
ATOM     15  S   UNL     1       5.158  -1.214  -1.775  0.00  0.00    +0.000 S 
ENDBRANCH   9  11
ENDBRANCH   1   9
TORSDOF 3
