REMARK  Name = *****
REMARK  3 active torsions:
REMARK  status: ('A' for Active; 'I' for Inactive)
REMARK    1  A    between atoms: C_3  and  N_8
REMARK    2  A    between atoms: N_8  and  N_9
REMARK    3  A    between atoms: N_9  and  C_11
REMARK                            x       y       z     vdW  Elec       q    Type
REMARK                         _______ _______ _______ _____ _____    ______ ____
ROOT
ATOM      1  N   UNL     1      -1.669   2.554   0.080  0.00  0.00    +0.000 N 
ATOM      2  H   UNL     1      -2.653   2.550   0.075  0.00  0.00    +0.000 HD
ENDROOT
BRANCH   1   5
ATOM      3  C   UNL     1      -1.388  -1.142  -0.142  0.00  0.00    +0.000 A 
ATOM      4  C   UNL     1      -1.910   0.156  -0.096  0.00  0.00    +0.000 A 
ATOM      5  C   UNL     1      -1.074   1.282   0.021  0.00  0.00    +0.000 A 
ATOM      6  C   UNL     1       0.303   1.064   0.109  0.00  0.00    +0.000 A 
ATOM      7  C   UNL     1       0.818  -0.230   0.063  0.00  0.00    +0.000 A 
ATOM      8  C   UNL     1      -0.014  -1.334  -0.063  0.00  0.00    +0.000 A 
ATOM      9  F   UNL     1       2.143  -0.415   0.145  0.00  0.00    +0.000 F 
ENDBRANCH   1   5
BRANCH   1  10
ATOM     10  N   UNL     1      -1.078   3.844   0.144  0.00  0.00    +0.000 N 
ATOM     11  O   UNL     1       0.125   4.006   0.138  0.00  0.00    +0.000 OA
BRANCH  10  12
ATOM     12  C   UNL     1      -1.922   5.022   0.168  0.00  0.00    +0.000 A 
ATOM     13  C   UNL     1      -3.111   5.020   0.904  0.00  0.00    +0.000 A 
ATOM     14  C   UNL     1      -3.901   6.163   0.903  0.00  0.00    +0.000 A 
ATOM     15  C   UNL     1      -3.528   7.300   0.193  0.00  0.00    +0.000 A 
ATOM     16  C   UNL     1      -2.335   7.303  -0.530  0.00  0.00    +0.000 A 
ATOM     17  C   UNL     1      -1.528   6.164  -0.542  0.00  0.00    +0.000 A 
ATOM     18  F   UNL     1      -5.044   6.170   1.603  0.00  0.00    +0.000 F 
ENDBRANCH  10  12
ENDBRANCH   1  10
TORSDOF 3
