REMARK  Name = *****
REMARK  4 active torsions:
REMARK  status: ('A' for Active; 'I' for Inactive)
REMARK    1  A    between atoms: C_1  and  C_2
REMARK    2  A    between atoms: C_6  and  C_7
REMARK    3  A    between atoms: C_7  and  C_8
REMARK    4  A    between atoms: C_9  and  C_10
REMARK                            x       y       z     vdW  Elec       q    Type
REMARK                         _______ _______ _______ _____ _____    ______ ____
ROOT
ATOM      1  C   UNL     1       0.954   1.906   2.442  0.00  0.00    +0.000 C 
ATOM      2  C   UNL     1       2.013   2.226   2.911  0.00  0.00    +0.000 C 
ENDROOT
BRANCH   2   3
ATOM      3  C   UNL     1       3.300   2.569   3.429  0.00  0.00    +0.000 A 
ATOM      4  C   UNL     1       4.423   1.840   3.028  0.00  0.00    +0.000 A 
ATOM      5  C   UNL     1       5.685   2.170   3.525  0.00  0.00    +0.000 A 
ATOM      6  C   UNL     1       5.825   3.229   4.422  0.00  0.00    +0.000 A 
ATOM      7  C   UNL     1       4.705   3.958   4.822  0.00  0.00    +0.000 A 
ATOM      8  C   UNL     1       3.442   3.629   4.326  0.00  0.00    +0.000 A 
ENDBRANCH   2   3
BRANCH   1   9
ATOM      9  C   UNL     1      -0.308   1.472   1.825  0.00  0.00    +0.000 C 
BRANCH   9  15
ATOM     10  C   UNL     1       1.466  -0.238  -1.165  0.00  0.00    +0.000 C 
ATOM     11  C   UNL     1       0.751  -0.206   0.187  0.00  0.00    +0.000 C 
ATOM     12  C   UNL     1      -0.273  -1.332   0.314  0.00  0.00    +0.000 C 
ATOM     13  C   UNL     1      -1.521  -0.808  -0.383  0.00  0.00    +0.000 C 
ATOM     14  C   UNL     1      -1.442   0.718  -0.314  0.00  0.00    +0.000 C 
ATOM     15  C   UNL     1      -0.100   1.070   0.352  0.00  0.00    +0.000 C 
ENDBRANCH   9  15
ENDBRANCH   1   9
TORSDOF 3
