REMARK  Name = *****
REMARK  4 active torsions:
REMARK  status: ('A' for Active; 'I' for Inactive)
REMARK    1  A    between atoms: C_1  and  C_2
REMARK    2  A    between atoms: C_5  and  C_8
REMARK    3  A    between atoms: C_9  and  C_10
REMARK    4  A    between atoms: C_13  and  C_16
REMARK                            x       y       z     vdW  Elec       q    Type
REMARK                         _______ _______ _______ _____ _____    ______ ____
ROOT
ATOM      1  C   UNL     1       6.832   0.060  -0.836  0.00  0.00    +0.000 C 
ATOM      2  C   UNL     1       8.004   0.084  -1.100  0.00  0.00    +0.000 C 
ENDROOT
BRANCH   1   7
ATOM      3  C   UNL     1       1.203  -0.058   0.264  0.00  0.00    +0.000 C 
ATOM      4  C   UNL     1       2.680  -0.018   0.007  0.00  0.00    +0.000 A 
ATOM      5  C   UNL     1       3.347   1.201  -0.161  0.00  0.00    +0.000 A 
ATOM      6  C   UNL     1       4.718   1.227  -0.430  0.00  0.00    +0.000 A 
ATOM      7  C   UNL     1       5.433   0.033  -0.542  0.00  0.00    +0.000 A 
ATOM      8  C   UNL     1       4.774  -1.187  -0.382  0.00  0.00    +0.000 A 
ATOM      9  C   UNL     1       3.403  -1.212  -0.112  0.00  0.00    +0.000 A 
ENDBRANCH   1   7
BRANCH   2  10
ATOM     10  C   UNL     1       9.393   0.113  -1.437  0.00  0.00    +0.000 A 
ATOM     11  C   UNL     1      10.050   1.335  -1.595  0.00  0.00    +0.000 A 
ATOM     12  C   UNL     1      11.404   1.364  -1.941  0.00  0.00    +0.000 A 
ATOM     13  C   UNL     1      12.112   0.172  -2.135  0.00  0.00    +0.000 A 
ATOM     14  C   UNL     1      11.448  -1.050  -1.967  0.00  0.00    +0.000 A 
ATOM     15  C   UNL     1      10.095  -1.080  -1.621  0.00  0.00    +0.000 A 
ATOM     16  C   UNL     1      13.565   0.190  -2.506  0.00  0.00    +0.000 C 
ENDBRANCH   2  10
TORSDOF 2
