REMARK  Name = *****
REMARK  3 active torsions:
REMARK  status: ('A' for Active; 'I' for Inactive)
REMARK    1  A    between atoms: C_5  and  C_7
REMARK    2  A    between atoms: C_7  and  C_8
REMARK    3  A    between atoms: C_9  and  C_10
REMARK                            x       y       z     vdW  Elec       q    Type
REMARK                         _______ _______ _______ _____ _____    ______ ____
ROOT
ATOM      1  C   UNL     1      -3.421  -0.832  -1.755  0.00  0.00    +0.000 C 
ATOM      2  C   UNL     1      -4.236  -1.877  -1.968  0.00  0.00    +0.000 C 
ENDROOT
BRANCH   2   3
ATOM      3  C   UNL     1      -3.793  -3.241  -2.254  0.00  0.00    +0.000 A 
ATOM      4  C   UNL     1      -3.794  -4.202  -1.237  0.00  0.00    +0.000 A 
ATOM      5  C   UNL     1      -3.369  -5.505  -1.503  0.00  0.00    +0.000 A 
ATOM      6  C   UNL     1      -2.944  -5.853  -2.785  0.00  0.00    +0.000 A 
ATOM      7  C   UNL     1      -2.941  -4.899  -3.802  0.00  0.00    +0.000 A 
ATOM      8  C   UNL     1      -3.365  -3.595  -3.538  0.00  0.00    +0.000 A 
ENDBRANCH   2   3
BRANCH   1   9
ATOM      9  C   UNL     1      -1.911  -0.834  -1.764  0.00  0.00    +0.000 C 
BRANCH   9  14
ATOM     10  C   UNL     1      -1.113  -0.845   2.059  0.00  0.00    +0.000 C 
ATOM     11  C   UNL     1      -1.777   0.497   2.374  0.00  0.00    +0.000 C 
ATOM     12  C   UNL     1      -1.806   1.426   1.196  0.00  0.00    +0.000 C 
ATOM     13  C   UNL     1      -1.555   1.028  -0.061  0.00  0.00    +0.000 C 
ATOM     14  C   UNL     1      -1.251  -0.408  -0.432  0.00  0.00    +0.000 C 
ATOM     15  C   UNL     1      -1.582  -1.389   0.712  0.00  0.00    +0.000 C 
ENDBRANCH   9  14
ENDBRANCH   1   9
TORSDOF 3
