REMARK  Name = *****
REMARK  5 active torsions:
REMARK  status: ('A' for Active; 'I' for Inactive)
REMARK    1  A    between atoms: C_1  and  C_2
REMARK    2  A    between atoms: C_2  and  C_7
REMARK    3  A    between atoms: C_7  and  O_8
REMARK    4  A    between atoms: O_8  and  C_9
REMARK    5  A    between atoms: C_9  and  C_11
REMARK                            x       y       z     vdW  Elec       q    Type
REMARK                         _______ _______ _______ _____ _____    ______ ____
ROOT
ATOM      1  O   UNL     1       2.933   0.372   2.011  0.00  0.00    +0.000 OA
ENDROOT
BRANCH   1   2
ATOM      2  C   UNL     1       2.799   1.249   3.035  0.00  0.00    +0.000 C 
ATOM      3  O   UNL     1       1.853   1.323   3.803  0.00  0.00    +0.000 OA
BRANCH   2   4
ATOM      4  C   UNL     1       3.986   2.145   3.109  0.00  0.00    +0.000 A 
ATOM      5  C   UNL     1       4.029   3.102   4.132  0.00  0.00    +0.000 A 
ATOM      6  C   UNL     1       5.121   3.966   4.244  0.00  0.00    +0.000 A 
ATOM      7  C   UNL     1       6.174   3.879   3.334  0.00  0.00    +0.000 A 
ATOM      8  C   UNL     1       6.139   2.931   2.312  0.00  0.00    +0.000 A 
ATOM      9  C   UNL     1       5.048   2.065   2.197  0.00  0.00    +0.000 A 
ENDBRANCH   2   4
ENDBRANCH   1   2
BRANCH   1  10
ATOM     10  C   UNL     1       1.855  -0.558   1.805  0.00  0.00    +0.000 C 
BRANCH  10  12
ATOM     11  C   UNL     1       1.919  -0.067  -0.669  0.00  0.00    +0.000 C 
ATOM     12  C   UNL     1       1.017  -0.161   0.576  0.00  0.00    +0.000 C 
ATOM     13  C   UNL     1      -0.133  -1.154   0.349  0.00  0.00    +0.000 C 
ATOM     14  C   UNL     1      -1.175  -0.384  -0.460  0.00  0.00    +0.000 C 
ATOM     15  C   UNL     1      -0.915   1.098  -0.193  0.00  0.00    +0.000 C 
ATOM     16  C   UNL     1       0.250   1.153   0.792  0.00  0.00    +0.000 C 
ENDBRANCH  10  12
ENDBRANCH   1  10
TORSDOF 4
