REMARK  Name = *****
REMARK  3 active torsions:
REMARK  status: ('A' for Active; 'I' for Inactive)
REMARK    1  A    between atoms: C_4  and  C_7
REMARK    2  A    between atoms: C_7  and  C_9
REMARK    3  A    between atoms: C_9  and  C_10
REMARK                            x       y       z     vdW  Elec       q    Type
REMARK                         _______ _______ _______ _____ _____    ______ ____
ROOT
ATOM      1  C   UNL     1       3.511  -1.583   0.369  0.00  0.00    +0.000 C 
ENDROOT
BRANCH   1   2
ATOM      2  C   UNL     1       5.004  -1.348   0.449  0.00  0.00    +0.000 A 
ATOM      3  C   UNL     1       5.560  -0.618   1.518  0.00  0.00    +0.000 A 
ATOM      4  C   UNL     1       6.936  -0.370   1.589  0.00  0.00    +0.000 A 
ATOM      5  C   UNL     1       7.783  -0.835   0.588  0.00  0.00    +0.000 A 
ATOM      6  C   UNL     1       7.253  -1.544  -0.486  0.00  0.00    +0.000 A 
ATOM      7  C   UNL     1       5.877  -1.793  -0.560  0.00  0.00    +0.000 A 
ATOM      8 CL   UNL     1       5.317  -2.670  -1.943  0.00  0.00    +0.000 Cl
ATOM      9 CL   UNL     1       4.581   0.016   2.798  0.00  0.00    +0.000 Cl
ENDBRANCH   1   2
BRANCH   1  10
ATOM     10  C   UNL     1       2.748  -0.379  -0.167  0.00  0.00    +0.000 C 
ATOM     11  O   UNL     1       3.272   0.438  -0.926  0.00  0.00    +0.000 OA
BRANCH  10  15
ATOM     12  C   UNL     1      -1.582   0.163  -0.366  0.00  0.00    +0.000 C 
ATOM     13  C   UNL     1      -1.035  -1.232  -0.078  0.00  0.00    +0.000 C 
ATOM     14  C   UNL     1       0.445  -1.347  -0.435  0.00  0.00    +0.000 C 
ATOM     15  C   UNL     1       1.282  -0.263   0.253  0.00  0.00    +0.000 C 
ATOM     16  C   UNL     1       0.724   1.134  -0.048  0.00  0.00    +0.000 C 
ATOM     17  C   UNL     1      -0.753   1.243   0.322  0.00  0.00    +0.000 C 
ENDBRANCH  10  15
ENDBRANCH   1  10
TORSDOF 3
