REMARK  Name = *****
REMARK  5 active torsions:
REMARK  status: ('A' for Active; 'I' for Inactive)
REMARK    1  A    between atoms: C_1  and  C_2
REMARK    2  A    between atoms: C_5  and  C_8
REMARK    3  A    between atoms: C_8  and  O_10
REMARK    4  A    between atoms: O_10  and  C_11
REMARK    5  A    between atoms: C_11  and  C_12
REMARK                            x       y       z     vdW  Elec       q    Type
REMARK                         _______ _______ _______ _____ _____    ______ ____
ROOT
ATOM      1  C   UNL     1      -1.716  -0.302   2.049  0.00  0.00    +0.000 C 
ATOM      2  O   UNL     1      -1.978   0.691   2.717  0.00  0.00    +0.000 OA
ENDROOT
BRANCH   1   7
ATOM      3  C   UNL     1       2.517   0.452  -0.133  0.00  0.00    +0.000 C 
ATOM      4  C   UNL     1       1.036   0.213  -0.063  0.00  0.00    +0.000 C 
ATOM      5  C   UNL     1       0.146   1.216  -0.167  0.00  0.00    +0.000 C 
ATOM      6  C   UNL     1      -1.342   1.026  -0.060  0.00  0.00    +0.000 C 
ATOM      7  C   UNL     1      -1.749  -0.337   0.523  0.00  0.00    +0.000 C 
ATOM      8  C   UNL     1      -0.890  -1.444  -0.101  0.00  0.00    +0.000 C 
ATOM      9  C   UNL     1       0.609  -1.220   0.128  0.00  0.00    +0.000 C 
ENDBRANCH   1   7
BRANCH   1  10
ATOM     10  O   UNL     1      -1.456  -1.532   2.568  0.00  0.00    +0.000 OA
BRANCH  10  11
ATOM     11  C   UNL     1      -1.484  -1.634   3.996  0.00  0.00    +0.000 C 
BRANCH  11  12
ATOM     12  C   UNL     1      -2.800  -2.229   4.423  0.00  0.00    +0.000 A 
ATOM     13  C   UNL     1      -2.990  -3.618   4.418  0.00  0.00    +0.000 A 
ATOM     14  C   UNL     1      -4.217  -4.166   4.794  0.00  0.00    +0.000 A 
ATOM     15  C   UNL     1      -5.269  -3.331   5.168  0.00  0.00    +0.000 A 
ATOM     16  C   UNL     1      -5.096  -1.948   5.163  0.00  0.00    +0.000 A 
ATOM     17  C   UNL     1      -3.869  -1.398   4.788  0.00  0.00    +0.000 A 
ENDBRANCH  11  12
ENDBRANCH  10  11
ENDBRANCH   1  10
TORSDOF 4
