REMARK  Name = *****
REMARK  4 active torsions:
REMARK  status: ('A' for Active; 'I' for Inactive)
REMARK    1  A    between atoms: C_1  and  C_2
REMARK    2  A    between atoms: N_8  and  C_18
REMARK    3  A    between atoms: C_10  and  C_11
REMARK    4  A    between atoms: C_11  and  C_12
REMARK                            x       y       z     vdW  Elec       q    Type
REMARK                         _______ _______ _______ _____ _____    ______ ____
ROOT
ATOM      1  C   UNL     1       1.333  -0.833  -0.188  0.00  0.00    +0.000 C 
ATOM      2  C   UNL     1       2.791  -0.461  -0.155  0.00  0.00    +0.000 A 
ATOM      3  C   UNL     1       3.271   0.881  -0.097  0.00  0.00    +0.000 A 
ATOM      4  C   UNL     1       4.658   1.090  -0.049  0.00  0.00    +0.000 A 
ATOM      5  C   UNL     1       5.587   0.038  -0.067  0.00  0.00    +0.000 A 
ATOM      6  C   UNL     1       5.104  -1.265  -0.129  0.00  0.00    +0.000 A 
ATOM      7  C   UNL     1       3.737  -1.509  -0.170  0.00  0.00    +0.000 A 
ATOM      8  N   UNL     1       4.867   2.450   0.014  0.00  0.00    +0.000 N 
ATOM      9  C   UNL     1       3.677   3.114   0.023  0.00  0.00    +0.000 A 
ATOM     10  C   UNL     1       2.652   2.188  -0.073  0.00  0.00    +0.000 A 
ATOM     11  C   UNL     1       6.163   3.089   0.069  0.00  0.00    +0.000 C 
ENDROOT
BRANCH  10  12
ATOM     12  C   UNL     1       1.195   2.532  -0.106  0.00  0.00    +0.000 C 
BRANCH  12  13
ATOM     13  C   UNL     1       0.927   3.212  -1.430  0.00  0.00    +0.000 A 
ATOM     14  C   UNL     1       0.995   2.503  -2.640  0.00  0.00    +0.000 A 
ATOM     15  C   UNL     1       0.727   3.137  -3.854  0.00  0.00    +0.000 A 
ATOM     16  C   UNL     1       0.380   4.486  -3.875  0.00  0.00    +0.000 A 
ATOM     17  C   UNL     1       0.304   5.203  -2.683  0.00  0.00    +0.000 A 
ATOM     18  C   UNL     1       0.574   4.570  -1.468  0.00  0.00    +0.000 A 
ENDBRANCH  12  13
ENDBRANCH  10  12
TORSDOF 2
