REMARK  Name = *****
REMARK  3 active torsions:
REMARK  status: ('A' for Active; 'I' for Inactive)
REMARK    1  A    between atoms: C_1  and  C_2
REMARK    2  A    between atoms: C_3  and  C_9
REMARK    3  A    between atoms: C_10  and  C_11
REMARK                            x       y       z     vdW  Elec       q    Type
REMARK                         _______ _______ _______ _____ _____    ______ ____
ROOT
ATOM      1  C   UNL     1       0.791   0.072   0.063  0.00  0.00    +0.000 C 
ATOM      2  C   UNL     1       2.331   0.100  -0.007  0.00  0.00    +0.000 C 
ATOM      3  C   UNL     1       2.858   1.165  -1.008  0.00  0.00    +0.000 C 
ATOM      4  C   UNL     1       2.525   0.796  -2.463  0.00  0.00    +0.000 C 
ATOM      5  C   UNL     1       3.049  -0.592  -2.832  0.00  0.00    +0.000 C 
ATOM      6  C   UNL     1       2.622  -1.668  -1.835  0.00  0.00    +0.000 C 
ATOM      7  C   UNL     1       2.956  -1.251  -0.405  0.00  0.00    +0.000 C 
ATOM      8 BR   UNL     1       2.476  -2.682   0.834  0.00  0.00    +0.000 Br
ENDROOT
BRANCH   3   9
ATOM      9  C   UNL     1       2.376   2.522  -0.688  0.00  0.00    +0.000 C 
ATOM     10  C   UNL     1       1.984   3.627  -0.429  0.00  0.00    +0.000 C 
BRANCH  10  11
ATOM     11  C   UNL     1       1.505   4.939  -0.118  0.00  0.00    +0.000 A 
ATOM     12  C   UNL     1       0.278   5.099   0.530  0.00  0.00    +0.000 A 
ATOM     13  C   UNL     1      -0.190   6.379   0.832  0.00  0.00    +0.000 A 
ATOM     14  C   UNL     1       0.567   7.499   0.488  0.00  0.00    +0.000 A 
ATOM     15  C   UNL     1       1.792   7.340  -0.160  0.00  0.00    +0.000 A 
ATOM     16  C   UNL     1       2.262   6.061  -0.463  0.00  0.00    +0.000 A 
ENDBRANCH  10  11
ENDBRANCH   3   9
TORSDOF 2
