REMARK  Name = *****
REMARK  2 active torsions:
REMARK  status: ('A' for Active; 'I' for Inactive)
REMARK    1  A    between atoms: C_3  and  N_9
REMARK    2  A    between atoms: C_10  and  C_11
REMARK                            x       y       z     vdW  Elec       q    Type
REMARK                         _______ _______ _______ _____ _____    ______ ____
ROOT
ATOM      1  N   UNL     1      -0.809   2.861   0.315  0.00  0.00    +0.000 NA
ATOM      2  C   UNL     1      -1.826   3.555  -0.089  0.00  0.00    +0.000 C 
ENDROOT
BRANCH   1   5
ATOM      3  C   UNL     1      -0.711  -0.731   1.210  0.00  0.00    +0.000 A 
ATOM      4  C   UNL     1      -0.680   0.665   1.298  0.00  0.00    +0.000 A 
ATOM      5  C   UNL     1      -0.883   1.463   0.165  0.00  0.00    +0.000 A 
ATOM      6  C   UNL     1      -1.093   0.830  -1.068  0.00  0.00    +0.000 A 
ATOM      7  C   UNL     1      -1.123  -0.558  -1.153  0.00  0.00    +0.000 A 
ATOM      8  C   UNL     1      -0.936  -1.344  -0.021  0.00  0.00    +0.000 A 
ATOM      9  F   UNL     1      -1.335  -1.154  -2.335  0.00  0.00    +0.000 F 
ATOM     10  F   UNL     1      -1.275   1.562  -2.179  0.00  0.00    +0.000 F 
ENDBRANCH   1   5
BRANCH   2  11
ATOM     11  C   UNL     1      -1.841   5.025   0.004  0.00  0.00    +0.000 A 
ATOM     12  C   UNL     1      -2.983   5.716  -0.403  0.00  0.00    +0.000 A 
ATOM     13  C   UNL     1      -3.036   7.104  -0.332  0.00  0.00    +0.000 A 
ATOM     14  C   UNL     1      -1.931   7.796   0.150  0.00  0.00    +0.000 A 
ATOM     15  C   UNL     1      -0.782   7.124   0.560  0.00  0.00    +0.000 A 
ATOM     16  C   UNL     1      -0.733   5.730   0.488  0.00  0.00    +0.000 A 
ATOM     17  F   UNL     1      -1.972   9.132   0.222  0.00  0.00    +0.000 F 
ATOM     18  F   UNL     1      -4.053   5.054  -0.865  0.00  0.00    +0.000 F 
ENDBRANCH   2  11
TORSDOF 2
