REMARK  Name = *****
REMARK  5 active torsions:
REMARK  status: ('A' for Active; 'I' for Inactive)
REMARK    1  A    between atoms: C_4  and  C_7
REMARK    2  A    between atoms: C_7  and  C_8
REMARK    3  A    between atoms: C_7  and  O_11
REMARK    4  A    between atoms: C_8  and  C_9
REMARK    5  A    between atoms: O_11  and  C_12
REMARK                            x       y       z     vdW  Elec       q    Type
REMARK                         _______ _______ _______ _____ _____    ______ ____
ROOT
ATOM      1  C   UNL     1      -2.864   0.491  -0.189  0.00  0.00    +0.000 C 
ENDROOT
BRANCH   1   5
ATOM      2  C   UNL     1       1.277  -0.555   0.585  0.00  0.00    +0.000 A 
ATOM      3  C   UNL     1       0.745   0.636   1.073  0.00  0.00    +0.000 A 
ATOM      4  C   UNL     1      -0.589   0.961   0.823  0.00  0.00    +0.000 A 
ATOM      5  C   UNL     1      -1.413   0.097   0.081  0.00  0.00    +0.000 A 
ATOM      6  C   UNL     1      -0.861  -1.099  -0.403  0.00  0.00    +0.000 A 
ATOM      7  C   UNL     1       0.474  -1.422  -0.153  0.00  0.00    +0.000 A 
ENDBRANCH   1   5
BRANCH   1   8
ATOM      8  C   UNL     1      -2.952   1.568  -1.286  0.00  0.00    +0.000 C 
BRANCH   8   9
ATOM      9  C   UNL     1      -2.545   1.056  -2.664  0.00  0.00    +0.000 C 
ATOM     10 CL   UNL     1      -2.724   2.354  -3.875  0.00  0.00    +0.000 Cl
ENDBRANCH   8   9
ENDBRANCH   1   8
BRANCH   1  11
ATOM     11  O   UNL     1      -3.617  -0.669  -0.564  0.00  0.00    +0.000 OA
BRANCH  11  12
ATOM     12  C   UNL     1      -4.949  -0.737  -0.274  0.00  0.00    +0.000 A 
ATOM     13  C   UNL     1      -5.735   0.274   0.280  0.00  0.00    +0.000 A 
ATOM     14  C   UNL     1      -7.097   0.057   0.515  0.00  0.00    +0.000 A 
ATOM     15  C   UNL     1      -7.681  -1.168   0.196  0.00  0.00    +0.000 A 
ATOM     16  C   UNL     1      -6.903  -2.179  -0.361  0.00  0.00    +0.000 A 
ATOM     17  C   UNL     1      -5.544  -1.961  -0.595  0.00  0.00    +0.000 A 
ENDBRANCH  11  12
ENDBRANCH   1  11
TORSDOF 5
