REMARK  Name = *****
REMARK  3 active torsions:
REMARK  status: ('A' for Active; 'I' for Inactive)
REMARK    1  A    between atoms: C_1  and  C_2
REMARK    2  A    between atoms: C_1  and  S_8
REMARK    3  A    between atoms: S_8  and  C_9
REMARK                            x       y       z     vdW  Elec       q    Type
REMARK                         _______ _______ _______ _____ _____    ______ ____
ROOT
ATOM      1  C   UNL     1       1.866  -0.004  -0.075  0.00  0.00    +0.000 C 
ENDROOT
BRANCH   1   2
ATOM      2  C   UNL     1       2.153  -1.384  -0.611  0.00  0.00    +0.000 A 
ATOM      3  C   UNL     1       3.095  -2.212   0.017  0.00  0.00    +0.000 A 
ATOM      4  C   UNL     1       3.366  -3.486  -0.485  0.00  0.00    +0.000 A 
ATOM      5  C   UNL     1       2.704  -3.943  -1.623  0.00  0.00    +0.000 A 
ATOM      6  C   UNL     1       1.774  -3.126  -2.263  0.00  0.00    +0.000 A 
ATOM      7  C   UNL     1       1.501  -1.851  -1.762  0.00  0.00    +0.000 A 
ENDBRANCH   1   2
BRANCH   1   8
ATOM      8  S   UNL     1       2.958   1.246  -0.827  0.00  0.00    +0.000 S 
BRANCH   8   9
ATOM      9  C   UNL     1       2.289   2.708  -0.058  0.00  0.00    +0.000 A 
ATOM     10  C   UNL     1       2.438   2.933   1.314  0.00  0.00    +0.000 A 
ATOM     11  C   UNL     1       1.912   4.087   1.900  0.00  0.00    +0.000 A 
ATOM     12  C   UNL     1       1.241   5.023   1.115  0.00  0.00    +0.000 A 
ATOM     13  C   UNL     1       1.100   4.810  -0.256  0.00  0.00    +0.000 A 
ATOM     14  C   UNL     1       1.627   3.657  -0.841  0.00  0.00    +0.000 A 
ENDBRANCH   8   9
ENDBRANCH   1   8
TORSDOF 3
