REMARK  Name = *****
REMARK  5 active torsions:
REMARK  status: ('A' for Active; 'I' for Inactive)
REMARK    1  A    between atoms: C_1  and  C_2
REMARK    2  A    between atoms: C_3  and  C_19
REMARK    3  A    between atoms: C_5  and  O_8
REMARK    4  A    between atoms: O_8  and  C_9
REMARK    5  A    between atoms: C_9  and  C_11
REMARK                            x       y       z     vdW  Elec       q    Type
REMARK                         _______ _______ _______ _____ _____    ______ ____
ROOT
ATOM      1  C   UNL     1      -4.171  -0.829  -0.802  0.00  0.00    +0.000 C 
ATOM      2  O   UNL     1      -4.092   0.017  -1.681  0.00  0.00    +0.000 OA
ENDROOT
BRANCH   1   3
ATOM      3  C   UNL     1      -5.384  -1.657  -0.613  0.00  0.00    +0.000 A 
ATOM      4  C   UNL     1      -5.685  -2.292   0.593  0.00  0.00    +0.000 A 
ATOM      5  C   UNL     1      -6.847  -3.059   0.708  0.00  0.00    +0.000 A 
ATOM      6  C   UNL     1      -7.719  -3.189  -0.374  0.00  0.00    +0.000 A 
ATOM      7  C   UNL     1      -7.431  -2.545  -1.577  0.00  0.00    +0.000 A 
ATOM      8  C   UNL     1      -6.270  -1.780  -1.696  0.00  0.00    +0.000 A 
ATOM      9 CL   UNL     1      -7.229  -3.851   2.190  0.00  0.00    +0.000 Cl
ATOM     10  F   UNL     1      -4.884  -2.157   1.661  0.00  0.00    +0.000 F 
ENDBRANCH   1   3
BRANCH   1  11
ATOM     11  O   UNL     1      -3.182  -1.223   0.077  0.00  0.00    +0.000 OA
BRANCH  11  16
ATOM     12  C   UNL     1       1.884   1.392   0.044  0.00  0.00    +0.000 C 
ATOM     13  C   UNL     1       0.552   0.692   0.038  0.00  0.00    +0.000 A 
ATOM     14  C   UNL     1       0.462  -0.715  -0.029  0.00  0.00    +0.000 A 
ATOM     15  C   UNL     1      -0.803  -1.322  -0.032  0.00  0.00    +0.000 A 
ATOM     16  C   UNL     1      -1.956  -0.541   0.024  0.00  0.00    +0.000 A 
ATOM     17  C   UNL     1      -1.877   0.844   0.123  0.00  0.00    +0.000 A 
ATOM     18  C   UNL     1      -0.624   1.456   0.120  0.00  0.00    +0.000 A 
ATOM     19  C   UNL     1       1.692  -1.577  -0.102  0.00  0.00    +0.000 C 
ENDBRANCH  11  16
ENDBRANCH   1  11
TORSDOF 3
