REMARK  Name = *****
REMARK  6 active torsions:
REMARK  status: ('A' for Active; 'I' for Inactive)
REMARK    1  A    between atoms: C_1  and  C_2
REMARK    2  A    between atoms: C_2  and  C_3
REMARK    3  A    between atoms: C_2  and  P_4
REMARK    4  A    between atoms: P_4  and  C_5
REMARK    5  A    between atoms: P_4  and  C_12
REMARK    6  A    between atoms: C_5  and  C_6
REMARK                            x       y       z     vdW  Elec       q    Type
REMARK                         _______ _______ _______ _____ _____    ______ ____
ROOT
ATOM      1  P   UNL     1       3.193   0.295  -1.580  0.00  0.00    +0.000 P 
ENDROOT
BRANCH   1   2
ATOM      2  C   UNL     1       4.993   0.473  -1.525  0.00  0.00    +0.000 A 
ATOM      3  C   UNL     1       5.720   0.187  -2.692  0.00  0.00    +0.000 A 
ATOM      4  C   UNL     1       7.113   0.300  -2.722  0.00  0.00    +0.000 A 
ATOM      5  C   UNL     1       7.804   0.703  -1.583  0.00  0.00    +0.000 A 
ATOM      6  C   UNL     1       7.101   0.992  -0.417  0.00  0.00    +0.000 A 
ATOM      7  C   UNL     1       5.708   0.875  -0.389  0.00  0.00    +0.000 A 
ENDBRANCH   1   2
BRANCH   1   9
ATOM      8  C   UNL     1       1.097  -0.188   0.190  0.00  0.00    +0.000 C 
ATOM      9  C   UNL     1       2.626  -0.078   0.134  0.00  0.00    +0.000 C 
ATOM     10  C   UNL     1       3.215  -1.405   0.633  0.00  0.00    +0.000 C 
ENDBRANCH   1   9
BRANCH   1  11
ATOM     11  C   UNL     1       2.546   1.947  -1.994  0.00  0.00    +0.000 C 
BRANCH  11  12
ATOM     12  C   UNL     1       3.074   3.001  -1.057  0.00  0.00    +0.000 A 
ATOM     13  C   UNL     1       4.250   3.705  -1.365  0.00  0.00    +0.000 A 
ATOM     14  C   UNL     1       4.730   4.709  -0.522  0.00  0.00    +0.000 A 
ATOM     15  C   UNL     1       4.030   5.041   0.635  0.00  0.00    +0.000 A 
ATOM     16  C   UNL     1       2.846   4.375   0.943  0.00  0.00    +0.000 A 
ATOM     17  C   UNL     1       2.368   3.370   0.099  0.00  0.00    +0.000 A 
ENDBRANCH  11  12
ENDBRANCH   1  11
TORSDOF 4
