REMARK  Name = *****
REMARK  4 active torsions:
REMARK  status: ('A' for Active; 'I' for Inactive)
REMARK    1  A    between atoms: C_1  and  C_2
REMARK    2  A    between atoms: C_6  and  C_8
REMARK    3  A    between atoms: C_6  and  C_9
REMARK    4  A    between atoms: C_10  and  C_11
REMARK                            x       y       z     vdW  Elec       q    Type
REMARK                         _______ _______ _______ _____ _____    ______ ____
ROOT
ATOM      1  C   UNL     1       3.143   0.273   1.228  0.00  0.00    +0.000 C 
ATOM      2  C   UNL     1       2.513   0.171  -0.156  0.00  0.00    +0.000 C 
ATOM      3  C   UNL     1       3.011   1.295  -1.063  0.00  0.00    +0.000 C 
ATOM      4  C   UNL     1       2.487   1.117  -2.481  0.00  0.00    +0.000 C 
ATOM      5  C   UNL     1       2.821  -0.281  -2.991  0.00  0.00    +0.000 C 
ATOM      6  C   UNL     1       2.378  -1.391  -2.014  0.00  0.00    +0.000 C 
ATOM      7  O   UNL     1       2.860  -1.109  -0.689  0.00  0.00    +0.000 OA
ATOM      8  C   UNL     1       0.847  -1.547  -2.000  0.00  0.00    +0.000 C 
ENDROOT
BRANCH   6   9
ATOM      9  C   UNL     1       3.099  -2.673  -2.404  0.00  0.00    +0.000 C 
ATOM     10  C   UNL     1       2.574  -3.829  -2.848  0.00  0.00    +0.000 C 
BRANCH  10  11
ATOM     11  C   UNL     1       3.409  -5.046  -3.191  0.00  0.00    +0.000 C 
ATOM     12  C   UNL     1       3.241  -5.443  -4.667  0.00  0.00    +0.000 C 
ATOM     13  C   UNL     1       1.894  -6.100  -4.970  0.00  0.00    +0.000 C 
ATOM     14  C   UNL     1       1.620  -7.279  -4.041  0.00  0.00    +0.000 C 
ATOM     15  C   UNL     1       1.732  -6.882  -2.573  0.00  0.00    +0.000 C 
ATOM     16  C   UNL     1       3.079  -6.229  -2.265  0.00  0.00    +0.000 C 
ENDBRANCH  10  11
ENDBRANCH   6   9
TORSDOF 2
