REMARK  Name = *****
REMARK  2 active torsions:
REMARK  status: ('A' for Active; 'I' for Inactive)
REMARK    1  A    between atoms: C_4  and  C_7
REMARK    2  A    between atoms: C_8  and  C_9
REMARK                            x       y       z     vdW  Elec       q    Type
REMARK                         _______ _______ _______ _____ _____    ______ ____
ROOT
ATOM      1  C   UNL     1      -2.834   0.494  -0.063  0.00  0.00    +0.000 C 
ATOM      2  C   UNL     1      -3.419   1.663  -0.371  0.00  0.00    +0.000 C 
ATOM      3  F   UNL     1      -3.586  -0.577   0.281  0.00  0.00    +0.000 F 
ENDROOT
BRANCH   1   7
ATOM      4  C   UNL     1       1.395  -0.209   0.116  0.00  0.00    +0.000 A 
ATOM      5  C   UNL     1       0.517  -0.929   0.923  0.00  0.00    +0.000 A 
ATOM      6  C   UNL     1      -0.857  -0.684   0.852  0.00  0.00    +0.000 A 
ATOM      7  C   UNL     1      -1.373   0.289  -0.017  0.00  0.00    +0.000 A 
ATOM      8  C   UNL     1      -0.476   0.994  -0.834  0.00  0.00    +0.000 A 
ATOM      9  C   UNL     1       0.899   0.749  -0.764  0.00  0.00    +0.000 A 
ENDBRANCH   1   7
BRANCH   2  10
ATOM     10  C   UNL     1      -4.832   1.869  -0.404  0.00  0.00    +0.000 A 
ATOM     11  C   UNL     1      -5.899   1.007  -0.199  0.00  0.00    +0.000 A 
ATOM     12  C   UNL     1      -7.173   1.636  -0.331  0.00  0.00    +0.000 A 
ATOM     13  C   UNL     1      -7.056   2.969  -0.637  0.00  0.00    +0.000 A 
ATOM     14  S   UNL     1      -5.427   3.455  -0.764  0.00  0.00    +0.000 S 
ENDBRANCH   2  10
TORSDOF 2
