REMARK  Name = *****
REMARK  3 active torsions:
REMARK  status: ('A' for Active; 'I' for Inactive)
REMARK    1  A    between atoms: C_1  and  C_2
REMARK    2  A    between atoms: C_7  and  C_8
REMARK    3  A    between atoms: N_9  and  C_10
REMARK                            x       y       z     vdW  Elec       q    Type
REMARK                         _______ _______ _______ _____ _____    ______ ____
ROOT
ATOM      1  C   UNL     1       0.843  -2.582   0.126  0.00  0.00    +0.000 C 
ATOM      2  N   UNL     1       0.181  -3.643   0.474  0.00  0.00    +0.000 NA
ENDROOT
BRANCH   1   9
ATOM      3  C   UNL     1       2.416  -0.160  -0.629  0.00  0.00    +0.000 C 
ATOM      4  C   UNL     1       0.967  -0.093  -0.238  0.00  0.00    +0.000 A 
ATOM      5  C   UNL     1       0.323   1.156  -0.228  0.00  0.00    +0.000 A 
ATOM      6  C   UNL     1      -1.022   1.268   0.129  0.00  0.00    +0.000 A 
ATOM      7  C   UNL     1      -1.747   0.134   0.482  0.00  0.00    +0.000 A 
ATOM      8  C   UNL     1      -1.126  -1.114   0.477  0.00  0.00    +0.000 A 
ATOM      9  C   UNL     1       0.224  -1.235   0.119  0.00  0.00    +0.000 A 
ENDBRANCH   1   9
BRANCH   2  10
ATOM     10  C   UNL     1       0.894  -4.849   0.432  0.00  0.00    +0.000 A 
ATOM     11  C   UNL     1       1.653  -5.263   1.530  0.00  0.00    +0.000 A 
ATOM     12  C   UNL     1       2.354  -6.470   1.490  0.00  0.00    +0.000 A 
ATOM     13  C   UNL     1       2.289  -7.275   0.354  0.00  0.00    +0.000 A 
ATOM     14  C   UNL     1       1.520  -6.877  -0.739  0.00  0.00    +0.000 A 
ATOM     15  C   UNL     1       0.821  -5.669  -0.696  0.00  0.00    +0.000 A 
ENDBRANCH   2  10
TORSDOF 2
