REMARK  Name = *****
REMARK  4 active torsions:
REMARK  status: ('A' for Active; 'I' for Inactive)
REMARK    1  A    between atoms: C_1  and  C_2
REMARK    2  A    between atoms: C_5  and  N_8
REMARK    3  A    between atoms: N_8  and  C_9
REMARK    4  A    between atoms: C_9  and  C_10
REMARK                            x       y       z     vdW  Elec       q    Type
REMARK                         _______ _______ _______ _____ _____    ______ ____
ROOT
ATOM      1  N   UNL     1       6.664   0.123  -0.740  0.00  0.00    +0.000 NA
ENDROOT
BRANCH   1   6
ATOM      2  C   UNL     1       1.077   0.011   0.186  0.00  0.00    +0.000 C 
ATOM      3  C   UNL     1       2.562   0.050  -0.031  0.00  0.00    +0.000 A 
ATOM      4  C   UNL     1       3.237   1.274  -0.152  0.00  0.00    +0.000 A 
ATOM      5  C   UNL     1       4.614   1.300  -0.379  0.00  0.00    +0.000 A 
ATOM      6  C   UNL     1       5.304   0.098  -0.487  0.00  0.00    +0.000 A 
ATOM      7  C   UNL     1       4.659  -1.128  -0.370  0.00  0.00    +0.000 A 
ATOM      8  C   UNL     1       3.283  -1.149  -0.143  0.00  0.00    +0.000 A 
ENDBRANCH   1   6
BRANCH   1   9
ATOM      9  C   UNL     1       7.756   0.144  -0.965  0.00  0.00    +0.000 C 
BRANCH   9  10
ATOM     10  C   UNL     1       9.151   0.173  -1.277  0.00  0.00    +0.000 A 
ATOM     11  C   UNL     1       9.807   1.397  -1.432  0.00  0.00    +0.000 A 
ATOM     12  C   UNL     1      11.166   1.425  -1.754  0.00  0.00    +0.000 A 
ATOM     13  C   UNL     1      11.868   0.232  -1.921  0.00  0.00    +0.000 A 
ATOM     14  C   UNL     1      11.215  -0.991  -1.765  0.00  0.00    +0.000 A 
ATOM     15  C   UNL     1       9.856  -1.021  -1.443  0.00  0.00    +0.000 A 
ENDBRANCH   9  10
ENDBRANCH   1   9
TORSDOF 3
