REMARK  Name = *****
REMARK  8 active torsions:
REMARK  status: ('A' for Active; 'I' for Inactive)
REMARK    1  A    between atoms: C_1  and  O_2
REMARK    2  A    between atoms: O_2  and  C_3
REMARK    3  A    between atoms: C_3  and  O_5
REMARK    4  A    between atoms: O_5  and  C_6
REMARK    5  A    between atoms: C_6  and  C_7
REMARK    6  A    between atoms: C_6  and  C_15
REMARK    7  A    between atoms: C_7  and  C_8
REMARK    8  A    between atoms: C_8  and  C_9
REMARK                            x       y       z     vdW  Elec       q    Type
REMARK                         _______ _______ _______ _____ _____    ______ ____
ROOT
ATOM      1  C   UNL     1       5.136   0.738   2.175  0.00  0.00    +0.000 C 
ENDROOT
BRANCH   1   2
ATOM      2  C   UNL     1       4.831   2.266   2.108  0.00  0.00    +0.000 C 
ATOM      3 CL   UNL     1       5.628   3.028   0.676  0.00  0.00    +0.000 Cl
ATOM      4 CL   UNL     1       3.071   2.587   1.915  0.00  0.00    +0.000 Cl
ATOM      5 CL   UNL     1       5.408   3.134   3.569  0.00  0.00    +0.000 Cl
ENDBRANCH   1   2
BRANCH   1   6
ATOM      6  O   UNL     1       6.570   0.512   2.034  0.00  0.00    +0.000 OA
BRANCH   6   7
ATOM      7  C   UNL     1       6.999  -0.004   0.856  0.00  0.00    +0.000 C 
ATOM      8  O   UNL     1       6.288  -0.306  -0.089  0.00  0.00    +0.000 OA
BRANCH   7  10
ATOM      9  C   UNL     1       8.932  -0.635  -0.283  0.00  0.00    +0.000 C 
ATOM     10  O   UNL     1       8.347  -0.119   0.911  0.00  0.00    +0.000 OA
ENDBRANCH   7  10
ENDBRANCH   6   7
ENDBRANCH   1   6
BRANCH   1  11
ATOM     11  C   UNL     1       4.764  -0.010   3.474  0.00  0.00    +0.000 C 
BRANCH  11  12
ATOM     12  C   UNL     1       3.282  -0.023   3.843  0.00  0.00    +0.000 C 
BRANCH  12  13
ATOM     13  C   UNL     1       3.007  -0.985   4.973  0.00  0.00    +0.000 A 
ATOM     14  C   UNL     1       3.163  -0.579   6.305  0.00  0.00    +0.000 A 
ATOM     15  C   UNL     1       2.926  -1.474   7.349  0.00  0.00    +0.000 A 
ATOM     16  C   UNL     1       2.536  -2.783   7.072  0.00  0.00    +0.000 A 
ATOM     17  C   UNL     1       2.384  -3.198   5.751  0.00  0.00    +0.000 A 
ATOM     18  C   UNL     1       2.620  -2.305   4.705  0.00  0.00    +0.000 A 
ENDBRANCH  12  13
ENDBRANCH  11  12
ENDBRANCH   1  11
TORSDOF 7
