REMARK  Name = *****
REMARK  4 active torsions:
REMARK  status: ('A' for Active; 'I' for Inactive)
REMARK    1  A    between atoms: C_4  and  C_7
REMARK    2  A    between atoms: C_7  and  S_8
REMARK    3  A    between atoms: S_8  and  C_9
REMARK    4  A    between atoms: C_12  and  C_15
REMARK                            x       y       z     vdW  Elec       q    Type
REMARK                         _______ _______ _______ _____ _____    ______ ____
ROOT
ATOM      1  S   UNL     1      -3.705  -1.047  -0.960  0.00  0.00    +0.000 S 
ENDROOT
BRANCH   1   2
ATOM      2  C   UNL     1      -5.401  -0.503  -0.875  0.00  0.00    +0.000 A 
ATOM      3  C   UNL     1      -5.830   0.681  -1.485  0.00  0.00    +0.000 A 
ATOM      4  C   UNL     1      -7.170   1.069  -1.409  0.00  0.00    +0.000 A 
ATOM      5  C   UNL     1      -8.089   0.265  -0.731  0.00  0.00    +0.000 A 
ATOM      6  C   UNL     1      -7.676  -0.927  -0.133  0.00  0.00    +0.000 A 
ATOM      7  C   UNL     1      -6.334  -1.309  -0.212  0.00  0.00    +0.000 A 
BRANCH   5   8
ATOM      8  C   UNL     1      -9.508   0.666  -0.647  0.00  0.00    +0.000 C 
ATOM      9  O   UNL     1      -9.920   1.707  -1.142  0.00  0.00    +0.000 OA
ENDBRANCH   5   8
ENDBRANCH   1   2
BRANCH   1  10
ATOM     10  C   UNL     1      -2.856   0.429  -0.305  0.00  0.00    +0.000 C 
BRANCH  10  14
ATOM     11  C   UNL     1       1.334  -0.358   0.359  0.00  0.00    +0.000 A 
ATOM     12  C   UNL     1       0.895   0.074  -0.891  0.00  0.00    +0.000 A 
ATOM     13  C   UNL     1      -0.460   0.330  -1.107  0.00  0.00    +0.000 A 
ATOM     14  C   UNL     1      -1.390   0.161  -0.071  0.00  0.00    +0.000 A 
ATOM     15  C   UNL     1      -0.938  -0.283   1.180  0.00  0.00    +0.000 A 
ATOM     16  C   UNL     1       0.418  -0.539   1.394  0.00  0.00    +0.000 A 
ENDBRANCH  10  14
ENDBRANCH   1  10
TORSDOF 4
