REMARK  Name = *****
REMARK  3 active torsions:
REMARK  status: ('A' for Active; 'I' for Inactive)
REMARK    1  A    between atoms: C_4  and  C_7
REMARK    2  A    between atoms: C_7  and  S_8
REMARK    3  A    between atoms: S_8  and  C_9
REMARK                            x       y       z     vdW  Elec       q    Type
REMARK                         _______ _______ _______ _____ _____    ______ ____
ROOT
ATOM      1  S   UNL     1      -3.778  -1.329  -0.118  0.00  0.00    +0.000 S 
ENDROOT
BRANCH   1   2
ATOM      2  C   UNL     1      -5.441  -0.820  -0.508  0.00  0.00    +0.000 A 
ATOM      3  C   UNL     1      -6.082  -1.386  -1.615  0.00  0.00    +0.000 A 
ATOM      4  C   UNL     1      -7.389  -1.016  -1.942  0.00  0.00    +0.000 A 
ATOM      5  C   UNL     1      -8.060  -0.085  -1.153  0.00  0.00    +0.000 A 
ATOM      6  C   UNL     1      -7.438   0.475  -0.039  0.00  0.00    +0.000 A 
ATOM      7  C   UNL     1      -6.130   0.103   0.286  0.00  0.00    +0.000 A 
ATOM      8 BR   UNL     1      -9.829   0.417  -1.592  0.00  0.00    +0.000 Br
ENDBRANCH   1   2
BRANCH   1   9
ATOM      9  C   UNL     1      -2.934   0.287  -0.176  0.00  0.00    +0.000 C 
BRANCH   9  13
ATOM     10  C   UNL     1       1.341  -0.177   0.174  0.00  0.00    +0.000 A 
ATOM     11  C   UNL     1       0.744  -0.145  -1.085  0.00  0.00    +0.000 A 
ATOM     12  C   UNL     1      -0.639   0.006  -1.199  0.00  0.00    +0.000 A 
ATOM     13  C   UNL     1      -1.439   0.133  -0.053  0.00  0.00    +0.000 A 
ATOM     14  C   UNL     1      -0.826   0.090   1.208  0.00  0.00    +0.000 A 
ATOM     15  C   UNL     1       0.557  -0.061   1.320  0.00  0.00    +0.000 A 
ENDBRANCH   9  13
ENDBRANCH   1   9
TORSDOF 3
