REMARK  Name = *****
REMARK  4 active torsions:
REMARK  status: ('A' for Active; 'I' for Inactive)
REMARK    1  A    between atoms: C_1  and  S_2
REMARK    2  A    between atoms: S_2  and  C_3
REMARK    3  A    between atoms: C_8  and  C_9
REMARK    4  A    between atoms: C_10  and  C_11
REMARK                            x       y       z     vdW  Elec       q    Type
REMARK                         _______ _______ _______ _____ _____    ______ ____
ROOT
ATOM      1  C   UNL     1       3.343  -0.670  -1.546  0.00  0.00    +0.000 A 
ATOM      2  C   UNL     1       3.792   0.025  -2.679  0.00  0.00    +0.000 A 
ATOM      3  C   UNL     1       4.179  -0.663  -3.831  0.00  0.00    +0.000 A 
ATOM      4  C   UNL     1       4.115  -2.053  -3.865  0.00  0.00    +0.000 A 
ATOM      5  C   UNL     1       3.660  -2.756  -2.749  0.00  0.00    +0.000 A 
ATOM      6  C   UNL     1       3.269  -2.074  -1.589  0.00  0.00    +0.000 A 
ENDROOT
BRANCH   1   8
ATOM      7  C   UNL     1       4.328   0.043   0.910  0.00  0.00    +0.000 C 
ATOM      8  S   UNL     1       2.862   0.307  -0.122  0.00  0.00    +0.000 S 
ENDBRANCH   1   8
BRANCH   6   9
ATOM      9  C   UNL     1       2.797  -2.850  -0.478  0.00  0.00    +0.000 C 
ATOM     10  C   UNL     1       2.408  -3.491   0.460  0.00  0.00    +0.000 C 
BRANCH  10  11
ATOM     11  C   UNL     1       1.952  -4.239   1.584  0.00  0.00    +0.000 A 
ATOM     12  C   UNL     1       1.451  -5.522   1.529  0.00  0.00    +0.000 A 
ATOM     13  C   UNL     1       1.075  -6.009   2.816  0.00  0.00    +0.000 A 
ATOM     14  C   UNL     1       1.303  -5.078   3.805  0.00  0.00    +0.000 A 
ATOM     15  S   UNL     1       1.967  -3.629   3.181  0.00  0.00    +0.000 S 
ENDBRANCH  10  11
ENDBRANCH   6   9
TORSDOF 3
