REMARK  Name = *****
REMARK  3 active torsions:
REMARK  status: ('A' for Active; 'I' for Inactive)
REMARK    1  A    between atoms: C_4  and  N_7
REMARK    2  A    between atoms: C_8  and  S_10
REMARK    3  A    between atoms: S_10  and  C_11
REMARK                            x       y       z     vdW  Elec       q    Type
REMARK                         _______ _______ _______ _____ _____    ______ ____
ROOT
ATOM      1  N   UNL     1       2.818  -0.575  -0.280  0.00  0.00    +0.000 N 
ATOM      2  C   UNL     1       3.234  -0.508  -1.580  0.00  0.00    +0.000 C 
ATOM      3  O   UNL     1       2.600  -0.077  -2.530  0.00  0.00    +0.000 OA
ATOM      4  H   UNL     1       3.483  -0.828   0.401  0.00  0.00    +0.000 HD
ENDROOT
BRANCH   1   8
ATOM      5  C   UNL     1      -1.399   0.347  -0.168  0.00  0.00    +0.000 C 
ATOM      6  C   UNL     1      -0.945  -1.075   0.149  0.00  0.00    +0.000 C 
ATOM      7  C   UNL     1       0.468  -1.341  -0.362  0.00  0.00    +0.000 C 
ATOM      8  C   UNL     1       1.462  -0.300   0.168  0.00  0.00    +0.000 C 
ATOM      9  C   UNL     1       1.003   1.131  -0.144  0.00  0.00    +0.000 C 
ATOM     10  C   UNL     1      -0.415   1.385   0.366  0.00  0.00    +0.000 C 
ENDBRANCH   1   8
BRANCH   2  11
ATOM     11  S   UNL     1       4.854  -1.156  -1.731  0.00  0.00    +0.000 S 
BRANCH  11  12
ATOM     12  C   UNL     1       4.443  -2.606  -2.636  0.00  0.00    +0.000 A 
ATOM     13  C   UNL     1       3.809  -2.670  -3.860  0.00  0.00    +0.000 A 
ATOM     14  C   UNL     1       3.623  -4.011  -4.305  0.00  0.00    +0.000 A 
ATOM     15  C   UNL     1       4.138  -4.925  -3.413  0.00  0.00    +0.000 A 
ATOM     16  S   UNL     1       4.840  -4.164  -2.051  0.00  0.00    +0.000 S 
ENDBRANCH  11  12
ENDBRANCH   2  11
TORSDOF 3
