REMARK  Name = *****
REMARK  3 active torsions:
REMARK  status: ('A' for Active; 'I' for Inactive)
REMARK    1  A    between atoms: N_2  and  C_3
REMARK    2  A    between atoms: C_6  and  C_9
REMARK    3  A    between atoms: C_10  and  C_11
REMARK                            x       y       z     vdW  Elec       q    Type
REMARK                         _______ _______ _______ _____ _____    ______ ____
ROOT
ATOM      1  C   UNL     1       3.748  -0.027   0.039  0.00  0.00    +0.000 C 
ATOM      2  C   UNL     1       4.513  -1.131   0.058  0.00  0.00    +0.000 C 
ENDROOT
BRANCH   2   3
ATOM      3  C   UNL     1       5.983  -1.105   0.079  0.00  0.00    +0.000 A 
ATOM      4  C   UNL     1       6.703  -0.173   0.842  0.00  0.00    +0.000 A 
ATOM      5  C   UNL     1       8.099  -0.201   0.860  0.00  0.00    +0.000 A 
ATOM      6  C   UNL     1       8.776  -1.166   0.126  0.00  0.00    +0.000 A 
ATOM      7  C   UNL     1       8.083  -2.109  -0.623  0.00  0.00    +0.000 A 
ATOM      8  C   UNL     1       6.686  -2.082  -0.642  0.00  0.00    +0.000 A 
ATOM      9  F   UNL     1      10.115  -1.193   0.146  0.00  0.00    +0.000 F 
ENDBRANCH   2   3
BRANCH   1  13
ATOM     10  C   UNL     1      -0.509   0.008  -0.071  0.00  0.00    +0.000 A 
ATOM     11  C   UNL     1       0.133  -0.955   0.703  0.00  0.00    +0.000 A 
ATOM     12  C   UNL     1       1.529  -0.979   0.740  0.00  0.00    +0.000 A 
ATOM     13  C   UNL     1       2.279  -0.052  -0.001  0.00  0.00    +0.000 A 
ATOM     14  C   UNL     1       1.607   0.919  -0.760  0.00  0.00    +0.000 A 
ATOM     15  C   UNL     1       0.211   0.949  -0.803  0.00  0.00    +0.000 A 
BRANCH  10  17
ATOM     16  C   UNL     1      -3.067   0.059  -0.141  0.00  0.00    +0.000 C 
ATOM     17  N   UNL     1      -1.896   0.036  -0.109  0.00  0.00    +0.000 NA
ENDBRANCH  10  17
ENDBRANCH   1  13
TORSDOF 3
