REMARK  Name = *****
REMARK  3 active torsions:
REMARK  status: ('A' for Active; 'I' for Inactive)
REMARK    1  A    between atoms: C_7  and  O_18
REMARK    2  A    between atoms: N_8  and  C_11
REMARK    3  A    between atoms: O_18  and  O_19
REMARK                            x       y       z     vdW  Elec       q    Type
REMARK                         _______ _______ _______ _____ _____    ______ ____
ROOT
ATOM      1  C   UNL     1      -2.174  -0.651   0.588  0.00  0.00    +0.000 C 
ATOM      2  C   UNL     1      -2.345   0.547  -0.348  0.00  0.00    +0.000 C 
ATOM      3  C   UNL     1      -1.169   1.523  -0.235  0.00  0.00    +0.000 C 
ATOM      4  C   UNL     1       0.143   0.811  -0.195  0.00  0.00    +0.000 C 
ATOM      5  C   UNL     1       0.278  -0.500   0.040  0.00  0.00    +0.000 C 
ATOM      6  C   UNL     1      -0.874  -1.416   0.308  0.00  0.00    +0.000 C 
ATOM      7  C   UNL     1       1.686  -1.006   0.041  0.00  0.00    +0.000 C 
ATOM      8  N   UNL     1       2.507   0.153  -0.297  0.00  0.00    +0.000 N 
ATOM      9  S   UNL     1       1.705   1.608  -0.480  0.00  0.00    +0.000 S 
ATOM     10  O   UNL     1       1.929   2.514   0.691  0.00  0.00    +0.000 OA
ENDROOT
BRANCH   8  11
ATOM     11  C   UNL     1       3.899   0.069  -0.170  0.00  0.00    +0.000 A 
ATOM     12  C   UNL     1       4.562   0.758   0.861  0.00  0.00    +0.000 A 
ATOM     13  C   UNL     1       5.946   0.660   1.036  0.00  0.00    +0.000 A 
ATOM     14  C   UNL     1       6.702  -0.130   0.178  0.00  0.00    +0.000 A 
ATOM     15  C   UNL     1       6.076  -0.816  -0.860  0.00  0.00    +0.000 A 
ATOM     16  C   UNL     1       4.690  -0.717  -1.035  0.00  0.00    +0.000 A 
ATOM     17 CL   UNL     1       4.007  -1.548  -2.392  0.00  0.00    +0.000 Cl
ENDBRANCH   8  11
BRANCH   7  18
ATOM     18  O   UNL     1       1.957  -1.499   1.364  0.00  0.00    +0.000 OA
BRANCH  18  19
ATOM     19  O   UNL     1       2.945  -2.570   1.233  0.00  0.00    +0.000 OA
ATOM     20  H   UNL     1       3.152  -2.927   2.111  0.00  0.00    +0.000 HD
ENDBRANCH  18  19
ENDBRANCH   7  18
TORSDOF 3
