REMARK  Name = *****
REMARK  4 active torsions:
REMARK  status: ('A' for Active; 'I' for Inactive)
REMARK    1  A    between atoms: C_1  and  C_2
REMARK    2  A    between atoms: C_3  and  C_7
REMARK    3  A    between atoms: C_10  and  C_12
REMARK    4  A    between atoms: C_13  and  C_17
REMARK                            x       y       z     vdW  Elec       q    Type
REMARK                         _______ _______ _______ _____ _____    ______ ____
ROOT
ATOM      1  C   UNL     1       0.432  -2.500   0.106  0.00  0.00    +0.000 A 
ATOM      2  N   UNL     1       0.063  -3.352  -0.832  0.00  0.00    +0.000 NA
ATOM      3  N   UNL     1       0.600  -4.577  -0.499  0.00  0.00    +0.000 NA
ATOM      4  C   UNL     1       1.263  -4.415   0.631  0.00  0.00    +0.000 A 
ATOM      5  O   UNL     1       1.197  -3.114   1.069  0.00  0.00    +0.000 OA
ENDROOT
BRANCH   1   8
ATOM      6  C   UNL     1      -1.643  -1.048  -1.782  0.00  0.00    +0.000 C 
ATOM      7  C   UNL     1      -0.818  -0.429  -0.698  0.00  0.00    +0.000 A 
ATOM      8  C   UNL     1       0.083  -1.103   0.121  0.00  0.00    +0.000 A 
ATOM      9  S   UNL     1       0.820  -0.045   1.257  0.00  0.00    +0.000 S 
ATOM     10  C   UNL     1      -0.030   1.307   0.663  0.00  0.00    +0.000 A 
ATOM     11  C   UNL     1      -0.869   0.969  -0.373  0.00  0.00    +0.000 A 
ENDBRANCH   1   8
BRANCH   4  12
ATOM     12  C   UNL     1       1.964  -5.466   1.323  0.00  0.00    +0.000 A 
ATOM     13  C   UNL     1       2.233  -6.759   0.884  0.00  0.00    +0.000 A 
ATOM     14  C   UNL     1       2.944  -7.508   1.882  0.00  0.00    +0.000 A 
ATOM     15  C   UNL     1       3.193  -6.778   3.020  0.00  0.00    +0.000 A 
ATOM     16  S   UNL     1       2.584  -5.191   2.901  0.00  0.00    +0.000 S 
ATOM     17  C   UNL     1       1.850  -7.326  -0.447  0.00  0.00    +0.000 C 
ENDBRANCH   4  12
TORSDOF 2
