REMARK  Name = *****
REMARK  3 active torsions:
REMARK  status: ('A' for Active; 'I' for Inactive)
REMARK    1  A    between atoms: C_1  and  C_2
REMARK    2  A    between atoms: C_2  and  C_9
REMARK    3  A    between atoms: C_3  and  C_4
REMARK                            x       y       z     vdW  Elec       q    Type
REMARK                         _______ _______ _______ _____ _____    ______ ____
ROOT
ATOM      1  C   UNL     1       0.986   0.208   0.704  0.00  0.00    +0.000 C 
ATOM      2  C   UNL     1       2.382   0.041   0.169  0.00  0.00    +0.000 C 
ATOM      3  C   UNL     1       2.937  -1.111  -0.261  0.00  0.00    +0.000 C 
ENDROOT
BRANCH   2   4
ATOM      4  C   UNL     1       3.186   1.282   0.106  0.00  0.00    +0.000 A 
ATOM      5  C   UNL     1       3.683   1.755  -1.116  0.00  0.00    +0.000 A 
ATOM      6  C   UNL     1       4.434   2.932  -1.169  0.00  0.00    +0.000 A 
ATOM      7  C   UNL     1       4.693   3.647  -0.002  0.00  0.00    +0.000 A 
ATOM      8  C   UNL     1       4.201   3.188   1.219  0.00  0.00    +0.000 A 
ATOM      9  C   UNL     1       3.449   2.012   1.273  0.00  0.00    +0.000 A 
ENDBRANCH   2   4
BRANCH   3  10
ATOM     10  C   UNL     1       2.357  -2.421  -0.257  0.00  0.00    +0.000 A 
ATOM     11  C   UNL     1       2.551  -3.304  -1.299  0.00  0.00    +0.000 A 
ATOM     12  S   UNL     1       1.771  -4.805  -1.034  0.00  0.00    +0.000 S 
ATOM     13  C   UNL     1       1.198  -4.298   0.495  0.00  0.00    +0.000 A 
ATOM     14  C   UNL     1       1.589  -3.010   0.793  0.00  0.00    +0.000 A 
ENDBRANCH   3  10
TORSDOF 2
