REMARK  Name = *****
REMARK  5 active torsions:
REMARK  status: ('A' for Active; 'I' for Inactive)
REMARK    1  A    between atoms: C_1  and  C_2
REMARK    2  A    between atoms: C_2  and  C_12
REMARK    3  A    between atoms: N_3  and  O_4
REMARK    4  A    between atoms: O_4  and  C_5
REMARK    5  A    between atoms: C_5  and  C_6
REMARK                            x       y       z     vdW  Elec       q    Type
REMARK                         _______ _______ _______ _____ _____    ______ ____
ROOT
ATOM      1  C   UNL     1       1.169  -0.081  -0.016  0.00  0.00    +0.000 C 
ATOM      2  C   UNL     1       2.667   0.079   0.104  0.00  0.00    +0.000 C 
ATOM      3  N   UNL     1       3.221  -0.394   1.182  0.00  0.00    +0.000 NA
ENDROOT
BRANCH   2   4
ATOM      4  C   UNL     1       3.436   0.733  -1.051  0.00  0.00    +0.000 C 
ATOM      5  C   UNL     1       2.673   1.899  -1.693  0.00  0.00    +0.000 C 
ATOM      6  C   UNL     1       3.461   2.505  -2.853  0.00  0.00    +0.000 C 
ATOM      7  C   UNL     1       3.827   1.449  -3.892  0.00  0.00    +0.000 C 
ATOM      8  C   UNL     1       4.571   0.273  -3.265  0.00  0.00    +0.000 C 
ATOM      9  C   UNL     1       3.794  -0.330  -2.096  0.00  0.00    +0.000 C 
ENDBRANCH   2   4
BRANCH   3  10
ATOM     10  O   UNL     1       4.614  -0.235   1.163  0.00  0.00    +0.000 OA
BRANCH  10  11
ATOM     11  C   UNL     1       5.162  -0.797   2.354  0.00  0.00    +0.000 C 
BRANCH  11  12
ATOM     12  C   UNL     1       6.657  -0.618   2.323  0.00  0.00    +0.000 A 
ATOM     13  C   UNL     1       7.251   0.516   2.895  0.00  0.00    +0.000 A 
ATOM     14  C   UNL     1       8.635   0.690   2.849  0.00  0.00    +0.000 A 
ATOM     15  C   UNL     1       9.437  -0.263   2.224  0.00  0.00    +0.000 A 
ATOM     16  C   UNL     1       8.857  -1.388   1.640  0.00  0.00    +0.000 A 
ATOM     17  C   UNL     1       7.473  -1.563   1.685  0.00  0.00    +0.000 A 
ENDBRANCH  11  12
ENDBRANCH  10  11
ENDBRANCH   3  10
TORSDOF 4
