REMARK  Name = *****
REMARK  4 active torsions:
REMARK  status: ('A' for Active; 'I' for Inactive)
REMARK    1  A    between atoms: C_1  and  C_2
REMARK    2  A    between atoms: C_4  and  C_8
REMARK    3  A    between atoms: C_8  and  S_10
REMARK    4  A    between atoms: S_10  and  C_11
REMARK                            x       y       z     vdW  Elec       q    Type
REMARK                         _______ _______ _______ _____ _____    ______ ____
ROOT
ATOM      1  C   UNL     1      -1.617   2.723  -0.053  0.00  0.00    +0.000 C 
ATOM      2  O   UNL     1      -2.831   2.799  -0.208  0.00  0.00    +0.000 OA
ENDROOT
BRANCH   1   6
ATOM      3  C   UNL     1       2.503  -0.252   0.043  0.00  0.00    +0.000 C 
ATOM      4  C   UNL     1       1.012  -0.077   0.017  0.00  0.00    +0.000 A 
ATOM      5  C   UNL     1       0.449   1.210   0.007  0.00  0.00    +0.000 A 
ATOM      6  C   UNL     1      -0.943   1.386  -0.051  0.00  0.00    +0.000 A 
ATOM      7  C   UNL     1      -1.764   0.249  -0.116  0.00  0.00    +0.000 A 
ATOM      8  C   UNL     1      -1.210  -1.032  -0.122  0.00  0.00    +0.000 A 
ATOM      9  C   UNL     1       0.173  -1.193  -0.060  0.00  0.00    +0.000 A 
ENDBRANCH   1   6
BRANCH   1  10
ATOM     10  S   UNL     1      -0.620   4.160   0.171  0.00  0.00    +0.000 S 
BRANCH  10  11
ATOM     11  C   UNL     1      -1.814   5.380   0.679  0.00  0.00    +0.000 A 
ATOM     12  C   UNL     1      -2.545   5.232   1.863  0.00  0.00    +0.000 A 
ATOM     13  C   UNL     1      -3.451   6.217   2.261  0.00  0.00    +0.000 A 
ATOM     14  C   UNL     1      -3.624   7.361   1.484  0.00  0.00    +0.000 A 
ATOM     15  C   UNL     1      -2.892   7.522   0.310  0.00  0.00    +0.000 A 
ATOM     16  C   UNL     1      -1.986   6.536  -0.090  0.00  0.00    +0.000 A 
ENDBRANCH  10  11
ENDBRANCH   1  10
TORSDOF 3
