REMARK  Name = *****
REMARK  5 active torsions:
REMARK  status: ('A' for Active; 'I' for Inactive)
REMARK    1  A    between atoms: C_1  and  C_2
REMARK    2  A    between atoms: C_5  and  O_8
REMARK    3  A    between atoms: O_8  and  C_9
REMARK    4  A    between atoms: C_9  and  C_10
REMARK    5  A    between atoms: C_9  and  C_16
REMARK                            x       y       z     vdW  Elec       q    Type
REMARK                         _______ _______ _______ _____ _____    ______ ____
ROOT
ATOM      1  C   UNL     1      -3.368   1.443  -0.026  0.00  0.00    +0.000 C 
ENDROOT
BRANCH   1   2
ATOM      2  C   UNL     1      -2.842   2.822  -0.401  0.00  0.00    +0.000 A 
ATOM      3  C   UNL     1      -1.940   2.984  -1.465  0.00  0.00    +0.000 A 
ATOM      4  C   UNL     1      -1.478   4.253  -1.816  0.00  0.00    +0.000 A 
ATOM      5  C   UNL     1      -1.914   5.374  -1.113  0.00  0.00    +0.000 A 
ATOM      6  C   UNL     1      -2.814   5.229  -0.060  0.00  0.00    +0.000 A 
ATOM      7  C   UNL     1      -3.278   3.961   0.295  0.00  0.00    +0.000 A 
ENDBRANCH   1   2
BRANCH   1   8
ATOM      8  C   UNL     1      -4.473   1.008  -1.012  0.00  0.00    +0.000 C 
ATOM      9  O   UNL     1      -4.295   0.200  -1.922  0.00  0.00    +0.000 OA
ATOM     10 CL   UNL     1      -6.011   1.771  -0.659  0.00  0.00    +0.000 Cl
ENDBRANCH   1   8
BRANCH   1  11
ATOM     11  O   UNL     1      -2.315   0.469  -0.079  0.00  0.00    +0.000 OA
BRANCH  11  16
ATOM     12  C   UNL     1       0.588  -1.094   4.538  0.00  0.00    +0.000 C 
ATOM     13  C   UNL     1      -0.165  -0.641   3.322  0.00  0.00    +0.000 A 
ATOM     14  C   UNL     1      -0.759   0.625   3.284  0.00  0.00    +0.000 A 
ATOM     15  C   UNL     1      -1.487   1.038   2.162  0.00  0.00    +0.000 A 
ATOM     16  C   UNL     1      -1.646   0.180   1.076  0.00  0.00    +0.000 A 
ATOM     17  C   UNL     1      -1.051  -1.082   1.109  0.00  0.00    +0.000 A 
ATOM     18  C   UNL     1      -0.325  -1.497   2.228  0.00  0.00    +0.000 A 
ENDBRANCH  11  16
ENDBRANCH   1  11
TORSDOF 4
