REMARK  Name = *****
REMARK  1 active torsions:
REMARK  status: ('A' for Active; 'I' for Inactive)
REMARK    1  A    between atoms: C_4  and  C_6
REMARK                            x       y       z     vdW  Elec       q    Type
REMARK                         _______ _______ _______ _____ _____    ______ ____
ROOT
ATOM      1  C   UNL     1      -1.779   2.015   0.057  0.00  0.00    +0.000 C 
ATOM      2  C   UNL     1      -1.860   3.057  -0.793  0.00  0.00    +0.000 C 
ATOM      3  C   UNL     1      -2.953   3.912  -0.364  0.00  0.00    +0.000 A 
ATOM      4  C   UNL     1      -3.424   5.089  -0.916  0.00  0.00    +0.000 A 
ATOM      5  C   UNL     1      -4.506   5.722  -0.296  0.00  0.00    +0.000 A 
ATOM      6  C   UNL     1      -5.094   5.173   0.857  0.00  0.00    +0.000 A 
ATOM      7  C   UNL     1      -4.610   3.984   1.407  0.00  0.00    +0.000 A 
ATOM      8  C   UNL     1      -3.539   3.367   0.784  0.00  0.00    +0.000 A 
ATOM      9  C   UNL     1      -2.828   2.101   1.155  0.00  0.00    +0.000 C 
ENDROOT
BRANCH   1  13
ATOM     10  C   UNL     1       0.703  -0.706   0.757  0.00  0.00    +0.000 C 
ATOM     11  C   UNL     1       0.727  -0.649  -0.767  0.00  0.00    +0.000 C 
ATOM     12  C   UNL     1      -0.130   0.535  -1.067  0.00  0.00    +0.000 C 
ATOM     13  C   UNL     1      -0.830   0.936   0.002  0.00  0.00    +0.000 C 
ATOM     14  C   UNL     1      -0.548   0.059   1.187  0.00  0.00    +0.000 C 
ENDBRANCH   1  13
TORSDOF 1
