REMARK  Name = *****
REMARK  5 active torsions:
REMARK  status: ('A' for Active; 'I' for Inactive)
REMARK    1  A    between atoms: C_1  and  C_2
REMARK    2  A    between atoms: C_5  and  C_8
REMARK    3  A    between atoms: C_9  and  C_10
REMARK    4  A    between atoms: C_12  and  O_16
REMARK    5  A    between atoms: O_16  and  C_17
REMARK                            x       y       z     vdW  Elec       q    Type
REMARK                         _______ _______ _______ _____ _____    ______ ____
ROOT
ATOM      1  C   UNL     1       6.744   0.085  -0.727  0.00  0.00    +0.000 C 
ATOM      2  C   UNL     1       7.921   0.111  -0.967  0.00  0.00    +0.000 C 
ENDROOT
BRANCH   1   7
ATOM      3  C   UNL     1       1.119  -0.050   0.391  0.00  0.00    +0.000 C 
ATOM      4  C   UNL     1       2.595  -0.012   0.127  0.00  0.00    +0.000 A 
ATOM      5  C   UNL     1       3.250   1.210  -0.074  0.00  0.00    +0.000 A 
ATOM      6  C   UNL     1       4.619   1.242  -0.352  0.00  0.00    +0.000 A 
ATOM      7  C   UNL     1       5.343   0.052  -0.441  0.00  0.00    +0.000 A 
ATOM      8  C   UNL     1       4.695  -1.170  -0.257  0.00  0.00    +0.000 A 
ATOM      9  C   UNL     1       3.326  -1.202   0.021  0.00  0.00    +0.000 A 
ENDBRANCH   1   7
BRANCH   2  10
ATOM     10  C   UNL     1       9.323   0.143  -1.252  0.00  0.00    +0.000 A 
ATOM     11  C   UNL     1       9.971   1.371  -1.435  0.00  0.00    +0.000 A 
ATOM     12  C   UNL     1      11.338   1.405  -1.714  0.00  0.00    +0.000 A 
ATOM     13  C   UNL     1      12.048   0.205  -1.809  0.00  0.00    +0.000 A 
ATOM     14  C   UNL     1      11.405  -1.020  -1.627  0.00  0.00    +0.000 A 
ATOM     15  C   UNL     1      10.040  -1.051  -1.348  0.00  0.00    +0.000 A 
BRANCH  12  16
ATOM     16  O   UNL     1      12.091   2.530  -1.914  0.00  0.00    +0.000 OA
ATOM     17  C   UNL     1      11.417   3.779  -1.829  0.00  0.00    +0.000 C 
ENDBRANCH  12  16
ENDBRANCH   2  10
TORSDOF 3
