REMARK  Name = *****
REMARK  3 active torsions:
REMARK  status: ('A' for Active; 'I' for Inactive)
REMARK    1  A    between atoms: C_4  and  C_7
REMARK    2  A    between atoms: C_7  and  S_9
REMARK    3  A    between atoms: S_9  and  C_10
REMARK                            x       y       z     vdW  Elec       q    Type
REMARK                         _______ _______ _______ _____ _____    ______ ____
ROOT
ATOM      1  C   UNL     1      -2.841   0.009   0.066  0.00  0.00    +0.000 C 
ATOM      2  O   UNL     1      -3.392   0.934   0.651  0.00  0.00    +0.000 OA
ENDROOT
BRANCH   1   6
ATOM      3  C   UNL     1       1.458  -0.033  -0.120  0.00  0.00    +0.000 A 
ATOM      4  C   UNL     1       0.751  -1.134  -0.598  0.00  0.00    +0.000 A 
ATOM      5  C   UNL     1      -0.647  -1.149  -0.552  0.00  0.00    +0.000 A 
ATOM      6  C   UNL     1      -1.350  -0.055  -0.026  0.00  0.00    +0.000 A 
ATOM      7  C   UNL     1      -0.624   1.046   0.457  0.00  0.00    +0.000 A 
ATOM      8  C   UNL     1       0.772   1.058   0.408  0.00  0.00    +0.000 A 
ENDBRANCH   1   6
BRANCH   1   9
ATOM      9  S   UNL     1      -3.786  -1.251  -0.725  0.00  0.00    +0.000 S 
BRANCH   9  10
ATOM     10  C   UNL     1      -5.177  -1.317   0.299  0.00  0.00    +0.000 A 
ATOM     11  C   UNL     1      -6.167  -0.416   0.234  0.00  0.00    +0.000 A 
ATOM     12  S   UNL     1      -7.518  -0.623   1.299  0.00  0.00    +0.000 S 
ATOM     13  C   UNL     1      -6.927  -2.088   2.079  0.00  0.00    +0.000 A 
ATOM     14  S   UNL     1      -7.752  -2.893   3.283  0.00  0.00    +0.000 S 
ATOM     15  S   UNL     1      -5.373  -2.616   1.440  0.00  0.00    +0.000 S 
ENDBRANCH   9  10
ENDBRANCH   1   9
TORSDOF 3
