REMARK  Name = *****
REMARK  6 active torsions:
REMARK  status: ('A' for Active; 'I' for Inactive)
REMARK    1  A    between atoms: C_1  and  C_2
REMARK    2  A    between atoms: C_4  and  C_18
REMARK    3  A    between atoms: C_5  and  C_9
REMARK    4  A    between atoms: C_6  and  C_8
REMARK    5  A    between atoms: C_9  and  S_10
REMARK    6  A    between atoms: S_10  and  C_12
REMARK                            x       y       z     vdW  Elec       q    Type
REMARK                         _______ _______ _______ _____ _____    ______ ____
ROOT
ATOM      1  C   UNL     1       2.246   1.812  -0.272  0.00  0.00    +0.000 C 
ATOM      2  C   UNL     1       1.069   0.887  -0.170  0.00  0.00    +0.000 A 
ATOM      3  C   UNL     1       1.250  -0.497  -0.175  0.00  0.00    +0.000 A 
ATOM      4  C   UNL     1       0.162  -1.376  -0.042  0.00  0.00    +0.000 A 
ATOM      5  C   UNL     1      -1.150  -0.856   0.105  0.00  0.00    +0.000 A 
ATOM      6  C   UNL     1      -1.332   0.549   0.128  0.00  0.00    +0.000 A 
ATOM      7  C   UNL     1      -0.220   1.398  -0.006  0.00  0.00    +0.000 A 
ATOM      8  C   UNL     1      -2.690   1.183   0.284  0.00  0.00    +0.000 C 
ATOM      9  C   UNL     1       0.441  -2.856  -0.079  0.00  0.00    +0.000 C 
ENDROOT
BRANCH   5  10
ATOM     10  C   UNL     1      -2.334  -1.792   0.260  0.00  0.00    +0.000 C 
BRANCH  10  11
ATOM     11  S   UNL     1      -2.576  -2.323   1.994  0.00  0.00    +0.000 S 
ATOM     12  O   UNL     1      -3.330  -1.242   2.714  0.00  0.00    +0.000 OA
BRANCH  11  13
ATOM     13  C   UNL     1      -3.797  -3.614   1.649  0.00  0.00    +0.000 A 
ATOM     14  C   UNL     1      -3.366  -4.872   1.213  0.00  0.00    +0.000 A 
ATOM     15  C   UNL     1      -4.297  -5.876   0.939  0.00  0.00    +0.000 A 
ATOM     16  C   UNL     1      -5.659  -5.628   1.104  0.00  0.00    +0.000 A 
ATOM     17  C   UNL     1      -6.093  -4.380   1.548  0.00  0.00    +0.000 A 
ATOM     18  C   UNL     1      -5.164  -3.375   1.822  0.00  0.00    +0.000 A 
ENDBRANCH  11  13
ENDBRANCH  10  11
ENDBRANCH   5  10
TORSDOF 3
