REMARK  Name = *****
REMARK  3 active torsions:
REMARK  status: ('A' for Active; 'I' for Inactive)
REMARK    1  A    between atoms: C_2  and  C_9
REMARK    2  A    between atoms: C_10  and  C_11
REMARK    3  A    between atoms: C_14  and  C_16
REMARK                            x       y       z     vdW  Elec       q    Type
REMARK                         _______ _______ _______ _____ _____    ______ ____
ROOT
ATOM      1  C   UNL     1      -2.980  -0.091  -0.012  0.00  0.00    +0.000 C 
ATOM      2  C   UNL     1      -4.180  -0.135  -0.019  0.00  0.00    +0.000 C 
ENDROOT
BRANCH   1   4
ATOM      3  C   UNL     1      -0.905   1.205  -0.003  0.00  0.00    +0.000 A 
ATOM      4  C   UNL     1      -1.551  -0.031  -0.004  0.00  0.00    +0.000 A 
ATOM      5  C   UNL     1      -0.801  -1.211   0.002  0.00  0.00    +0.000 A 
ATOM      6  C   UNL     1       0.593  -1.144   0.010  0.00  0.00    +0.000 A 
ATOM      7  C   UNL     1       1.245   0.086   0.011  0.00  0.00    +0.000 A 
ATOM      8  C   UNL     1       0.485   1.250   0.004  0.00  0.00    +0.000 A 
ATOM      9  F   UNL     1       1.104   2.437   0.005  0.00  0.00    +0.000 F 
ATOM     10 BR   UNL     1       1.607  -2.740   0.018  0.00  0.00    +0.000 Br
ENDBRANCH   1   4
BRANCH   2  11
ATOM     11  C   UNL     1      -5.604  -0.181  -0.029  0.00  0.00    +0.000 A 
ATOM     12  C   UNL     1      -6.359  -1.330  -0.067  0.00  0.00    +0.000 A 
ATOM     13  S   UNL     1      -8.023  -0.917  -0.061  0.00  0.00    +0.000 S 
ATOM     14  C   UNL     1      -7.597   0.753  -0.023  0.00  0.00    +0.000 A 
ATOM     15  N   UNL     1      -6.302   1.005   0.005  0.00  0.00    +0.000 NA
BRANCH  14  16
ATOM     16  C   UNL     1      -8.667   1.795   0.006  0.00  0.00    +0.000 C 
ATOM     17  F   UNL     1      -9.592   1.601  -0.978  0.00  0.00    +0.000 F 
ENDBRANCH  14  16
ENDBRANCH   2  11
TORSDOF 3
