REMARK  Name = *****
REMARK  2 active torsions:
REMARK  status: ('A' for Active; 'I' for Inactive)
REMARK    1  A    between atoms: C_4  and  C_7
REMARK    2  A    between atoms: C_8  and  C_9
REMARK                            x       y       z     vdW  Elec       q    Type
REMARK                         _______ _______ _______ _____ _____    ______ ____
ROOT
ATOM      1  C   UNL     1      -2.810   0.434  -0.298  0.00  0.00    +0.000 C 
ATOM      2  C   UNL     1      -3.725  -0.541  -0.426  0.00  0.00    +0.000 C 
ENDROOT
BRANCH   2   3
ATOM      3  C   UNL     1      -5.164  -0.296  -0.597  0.00  0.00    +0.000 A 
ATOM      4  C   UNL     1      -5.654   0.752  -1.391  0.00  0.00    +0.000 A 
ATOM      5  C   UNL     1      -7.030   0.934  -1.554  0.00  0.00    +0.000 A 
ATOM      6  C   UNL     1      -7.915   0.062  -0.933  0.00  0.00    +0.000 A 
ATOM      7  C   UNL     1      -7.452  -0.991  -0.155  0.00  0.00    +0.000 A 
ATOM      8  C   UNL     1      -6.077  -1.174   0.008  0.00  0.00    +0.000 A 
ATOM      9  F   UNL     1      -9.234   0.236  -1.091  0.00  0.00    +0.000 F 
ENDBRANCH   2   3
BRANCH   1  13
ATOM     10  C   UNL     1       1.389  -0.175   0.250  0.00  0.00    +0.000 A 
ATOM     11  C   UNL     1       0.678  -1.023  -0.596  0.00  0.00    +0.000 A 
ATOM     12  C   UNL     1      -0.696  -0.840  -0.779  0.00  0.00    +0.000 A 
ATOM     13  C   UNL     1      -1.373   0.186  -0.108  0.00  0.00    +0.000 A 
ATOM     14  C   UNL     1      -0.643   1.043   0.727  0.00  0.00    +0.000 A 
ATOM     15  C   UNL     1       0.730   0.859   0.909  0.00  0.00    +0.000 A 
ENDBRANCH   1  13
TORSDOF 2
