REMARK  Name = *****
REMARK  6 active torsions:
REMARK  status: ('A' for Active; 'I' for Inactive)
REMARK    1  A    between atoms: C_1  and  C_2
REMARK    2  A    between atoms: C_2  and  C_3
REMARK    3  A    between atoms: C_6  and  C_9
REMARK    4  A    between atoms: C_9  and  C_10
REMARK    5  A    between atoms: C_10  and  C_12
REMARK    6  A    between atoms: C_15  and  C_18
REMARK                            x       y       z     vdW  Elec       q    Type
REMARK                         _______ _______ _______ _____ _____    ______ ____
ROOT
ATOM      1  C   UNL     1       3.690   4.784   3.064  0.00  0.00    +0.000 C 
ENDROOT
BRANCH   1   5
ATOM      2  C   UNL     1       2.906   1.259   0.672  0.00  0.00    +0.000 A 
ATOM      3  C   UNL     1       4.014   2.071   0.401  0.00  0.00    +0.000 A 
ATOM      4  C   UNL     1       4.265   3.209   1.171  0.00  0.00    +0.000 A 
ATOM      5  C   UNL     1       3.417   3.552   2.232  0.00  0.00    +0.000 A 
ATOM      6  C   UNL     1       2.306   2.742   2.500  0.00  0.00    +0.000 A 
ATOM      7  C   UNL     1       2.057   1.603   1.730  0.00  0.00    +0.000 A 
BRANCH   2   9
ATOM      8  C   UNL     1       3.365  -1.192   0.408  0.00  0.00    +0.000 C 
ATOM      9  C   UNL     1       2.643   0.025  -0.151  0.00  0.00    +0.000 C 
ENDBRANCH   2   9
ENDBRANCH   1   5
BRANCH   1  10
ATOM     10  C   UNL     1       3.156   6.077   2.468  0.00  0.00    +0.000 C 
ATOM     11  O   UNL     1       2.491   6.121   1.434  0.00  0.00    +0.000 OA
BRANCH  10  12
ATOM     12  C   UNL     1       3.454   7.360   3.182  0.00  0.00    +0.000 A 
ATOM     13  C   UNL     1       4.139   7.402   4.402  0.00  0.00    +0.000 A 
ATOM     14  C   UNL     1       4.394   8.629   5.026  0.00  0.00    +0.000 A 
ATOM     15  C   UNL     1       3.959   9.827   4.448  0.00  0.00    +0.000 A 
ATOM     16  C   UNL     1       3.287   9.785   3.222  0.00  0.00    +0.000 A 
ATOM     17  C   UNL     1       3.031   8.561   2.598  0.00  0.00    +0.000 A 
ATOM     18  C   UNL     1       4.265  11.142   5.102  0.00  0.00    +0.000 C 
ENDBRANCH  10  12
ENDBRANCH   1  10
TORSDOF 4
