REMARK  Name = *****
REMARK  6 active torsions:
REMARK  status: ('A' for Active; 'I' for Inactive)
REMARK    1  A    between atoms: C_1  and  C_2
REMARK    2  A    between atoms: C_5  and  C_8
REMARK    3  A    between atoms: C_8  and  C_9
REMARK    4  A    between atoms: C_9  and  C_10
REMARK    5  A    between atoms: C_15  and  O_16
REMARK    6  A    between atoms: O_16  and  C_17
REMARK                            x       y       z     vdW  Elec       q    Type
REMARK                         _______ _______ _______ _____ _____    ______ ____
ROOT
ATOM      1  C   UNL     1      -3.555   1.196  -0.007  0.00  0.00    +0.000 C 
ENDROOT
BRANCH   1   2
ATOM      2  C   UNL     1      -2.739   2.397  -0.440  0.00  0.00    +0.000 A 
ATOM      3  C   UNL     1      -1.673   2.278  -1.346  0.00  0.00    +0.000 A 
ATOM      4  C   UNL     1      -0.938   3.398  -1.744  0.00  0.00    +0.000 A 
ATOM      5  C   UNL     1      -1.259   4.659  -1.250  0.00  0.00    +0.000 A 
ATOM      6  C   UNL     1      -2.327   4.804  -0.369  0.00  0.00    +0.000 A 
ATOM      7  C   UNL     1      -3.076   3.685   0.008  0.00  0.00    +0.000 A 
BRANCH   7   8
ATOM      8  O   UNL     1      -4.118   3.839   0.889  0.00  0.00    +0.000 OA
ATOM      9  C   UNL     1      -5.221   4.486   0.255  0.00  0.00    +0.000 C 
ENDBRANCH   7   8
ENDBRANCH   1   2
BRANCH   1  10
ATOM     10  C   UNL     1      -2.820  -0.150   0.122  0.00  0.00    +0.000 C 
BRANCH  10  15
ATOM     11  C   UNL     1       1.686  -0.573   3.810  0.00  0.00    +0.000 C 
ATOM     12  C   UNL     1       0.540  -0.434   2.854  0.00  0.00    +0.000 A 
ATOM     13  C   UNL     1      -0.530   0.417   3.148  0.00  0.00    +0.000 A 
ATOM     14  C   UNL     1      -1.615   0.526   2.273  0.00  0.00    +0.000 A 
ATOM     15  C   UNL     1      -1.652  -0.212   1.083  0.00  0.00    +0.000 A 
ATOM     16  C   UNL     1      -0.591  -1.088   0.810  0.00  0.00    +0.000 A 
ATOM     17  C   UNL     1       0.493  -1.198   1.685  0.00  0.00    +0.000 A 
ENDBRANCH  10  15
ENDBRANCH   1  10
TORSDOF 4
