REMARK  Name = *****
REMARK  6 active torsions:
REMARK  status: ('A' for Active; 'I' for Inactive)
REMARK    1  A    between atoms: C_1  and  C_2
REMARK    2  A    between atoms: C_4  and  C_8
REMARK    3  A    between atoms: C_8  and  C_9
REMARK    4  A    between atoms: C_9  and  C_10
REMARK    5  A    between atoms: C_15  and  C_16
REMARK    6  A    between atoms: C_16  and  C_18
REMARK                            x       y       z     vdW  Elec       q    Type
REMARK                         _______ _______ _______ _____ _____    ______ ____
ROOT
ATOM      1  C   UNL     1      -0.782   3.544   0.098  0.00  0.00    +0.000 C 
ENDROOT
BRANCH   1   2
ATOM      2  C   UNL     1       0.612   3.349   0.664  0.00  0.00    +0.000 A 
ATOM      3  C   UNL     1       0.880   2.328   1.591  0.00  0.00    +0.000 A 
ATOM      4  C   UNL     1       2.171   2.117   2.085  0.00  0.00    +0.000 A 
ATOM      5  C   UNL     1       3.224   2.926   1.669  0.00  0.00    +0.000 A 
ATOM      6  C   UNL     1       2.982   3.964   0.773  0.00  0.00    +0.000 A 
ATOM      7  C   UNL     1       1.683   4.189   0.295  0.00  0.00    +0.000 A 
BRANCH   7   8
ATOM      8  C   UNL     1       1.515   5.350  -0.609  0.00  0.00    +0.000 C 
ATOM      9  O   UNL     1       2.145   5.397  -1.662  0.00  0.00    +0.000 OA
ATOM     10  C   UNL     1       0.604   6.462  -0.162  0.00  0.00    +0.000 C 
ENDBRANCH   7   8
ENDBRANCH   1   2
BRANCH   1  11
ATOM     11  C   UNL     1      -1.655   2.289  -0.097  0.00  0.00    +0.000 C 
BRANCH  11  15
ATOM     12  C   UNL     1       1.129   0.708  -4.037  0.00  0.00    +0.000 C 
ATOM     13  C   UNL     1       0.191   0.413  -2.903  0.00  0.00    +0.000 A 
ATOM     14  C   UNL     1      -0.273   1.453  -2.083  0.00  0.00    +0.000 A 
ATOM     15  C   UNL     1      -1.108   1.194  -0.986  0.00  0.00    +0.000 A 
ATOM     16  C   UNL     1      -1.493  -0.133  -0.738  0.00  0.00    +0.000 A 
ATOM     17  C   UNL     1      -1.027  -1.174  -1.542  0.00  0.00    +0.000 A 
ATOM     18  C   UNL     1      -0.181  -0.903  -2.615  0.00  0.00    +0.000 A 
ENDBRANCH  11  15
ENDBRANCH   1  11
TORSDOF 4
