REMARK  Name = *****
REMARK  3 active torsions:
REMARK  status: ('A' for Active; 'I' for Inactive)
REMARK    1  A    between atoms: C_4  and  S_6
REMARK    2  A    between atoms: S_6  and  S_7
REMARK    3  A    between atoms: S_7  and  C_8
REMARK                            x       y       z     vdW  Elec       q    Type
REMARK                         _______ _______ _______ _____ _____    ______ ____
ROOT
ATOM      1  S   UNL     1       0.108  -3.115   2.146  0.00  0.00    +0.000 S 
ENDROOT
BRANCH   1   5
ATOM      2  C   UNL     1       1.312  -0.282  -0.463  0.00  0.00    +0.000 A 
ATOM      3  C   UNL     1       0.227  -0.640  -1.232  0.00  0.00    +0.000 A 
ATOM      4  S   UNL     1      -0.685  -1.894  -0.509  0.00  0.00    +0.000 S 
ATOM      5  C   UNL     1       0.377  -1.981   0.830  0.00  0.00    +0.000 A 
ATOM      6  C   UNL     1       1.394  -1.053   0.734  0.00  0.00    +0.000 A 
ENDBRANCH   1   5
BRANCH   1   7
ATOM      7  S   UNL     1       1.813  -4.256   1.968  0.00  0.00    +0.000 S 
BRANCH   7   8
ATOM      8  C   UNL     1       1.249  -5.402   0.762  0.00  0.00    +0.000 A 
ATOM      9  C   UNL     1       1.405  -5.285  -0.604  0.00  0.00    +0.000 A 
ATOM     10  C   UNL     1       0.842  -6.390  -1.308  0.00  0.00    +0.000 A 
ATOM     11  C   UNL     1       0.289  -7.317  -0.453  0.00  0.00    +0.000 A 
ATOM     12  S   UNL     1       0.453  -6.856   1.186  0.00  0.00    +0.000 S 
ENDBRANCH   7   8
ENDBRANCH   1   7
TORSDOF 3
