REMARK  Name = *****
REMARK  6 active torsions:
REMARK  status: ('A' for Active; 'I' for Inactive)
REMARK    1  A    between atoms: C_1  and  C_2
REMARK    2  A    between atoms: C_4  and  C_8
REMARK    3  A    between atoms: C_8  and  O_10
REMARK    4  A    between atoms: O_10  and  C_11
REMARK    5  A    between atoms: C_13  and  C_18
REMARK    6  A    between atoms: C_14  and  C_17
REMARK                            x       y       z     vdW  Elec       q    Type
REMARK                         _______ _______ _______ _____ _____    ______ ____
ROOT
ATOM      1  C   UNL     1      -2.167   2.884   1.228  0.00  0.00    +0.000 C 
ATOM      2  O   UNL     1      -1.782   3.451   2.239  0.00  0.00    +0.000 OA
ENDROOT
BRANCH   1   6
ATOM      3  C   UNL     1      -3.079  -1.331  -1.417  0.00  0.00    +0.000 C 
ATOM      4  C   UNL     1      -2.532  -0.642  -0.201  0.00  0.00    +0.000 A 
ATOM      5  C   UNL     1      -2.600   0.755  -0.089  0.00  0.00    +0.000 A 
ATOM      6  C   UNL     1      -2.120   1.404   1.059  0.00  0.00    +0.000 A 
ATOM      7  C   UNL     1      -1.580   0.641   2.103  0.00  0.00    +0.000 A 
ATOM      8  C   UNL     1      -1.523  -0.749   2.003  0.00  0.00    +0.000 A 
ATOM      9  C   UNL     1      -2.002  -1.387   0.859  0.00  0.00    +0.000 A 
ENDBRANCH   1   6
BRANCH   1  10
ATOM     10  O   UNL     1      -2.694   3.466   0.090  0.00  0.00    +0.000 OA
BRANCH  10  11
ATOM     11  C   UNL     1      -2.811   4.857   0.158  0.00  0.00    +0.000 A 
ATOM     12  C   UNL     1      -3.818   5.442   0.924  0.00  0.00    +0.000 A 
ATOM     13  C   UNL     1      -3.967   6.837   0.938  0.00  0.00    +0.000 A 
ATOM     14  C   UNL     1      -3.098   7.633   0.160  0.00  0.00    +0.000 A 
ATOM     15  C   UNL     1      -2.106   7.014  -0.622  0.00  0.00    +0.000 A 
ATOM     16  C   UNL     1      -1.965   5.628  -0.630  0.00  0.00    +0.000 A 
ATOM     17  C   UNL     1      -3.217   9.133   0.144  0.00  0.00    +0.000 C 
ATOM     18  C   UNL     1      -5.044   7.452   1.789  0.00  0.00    +0.000 C 
ENDBRANCH  10  11
ENDBRANCH   1  10
TORSDOF 3
