REMARK  Name = *****
REMARK  5 active torsions:
REMARK  status: ('A' for Active; 'I' for Inactive)
REMARK    1  A    between atoms: C_1  and  O_2
REMARK    2  A    between atoms: O_2  and  C_3
REMARK    3  A    between atoms: C_6  and  C_9
REMARK    4  A    between atoms: C_9  and  C_10
REMARK    5  A    between atoms: C_10  and  C_11
REMARK                            x       y       z     vdW  Elec       q    Type
REMARK                         _______ _______ _______ _____ _____    ______ ____
ROOT
ATOM      1  C   UNL     1       5.063   4.349  -2.113  0.00  0.00    +0.000 C 
ATOM      2  F   UNL     1       5.084   4.377  -3.486  0.00  0.00    +0.000 F 
ATOM      3  F   UNL     1       4.433   5.519  -1.764  0.00  0.00    +0.000 F 
ENDROOT
BRANCH   1   7
ATOM      4  C   UNL     1       2.867   0.925  -0.596  0.00  0.00    +0.000 A 
ATOM      5  C   UNL     1       3.034   2.061   0.196  0.00  0.00    +0.000 A 
ATOM      6  C   UNL     1       3.734   3.168  -0.299  0.00  0.00    +0.000 A 
ATOM      7  C   UNL     1       4.279   3.153  -1.592  0.00  0.00    +0.000 A 
ATOM      8  C   UNL     1       4.099   2.012  -2.384  0.00  0.00    +0.000 A 
ATOM      9  C   UNL     1       3.400   0.910  -1.886  0.00  0.00    +0.000 A 
BRANCH   4  11
ATOM     10  C   UNL     1       1.650  -0.254   1.071  0.00  0.00    +0.000 C 
ATOM     11  O   UNL     1       2.212  -0.219  -0.234  0.00  0.00    +0.000 OA
ENDBRANCH   4  11
ENDBRANCH   1   7
BRANCH   1  12
ATOM     12  C   UNL     1       6.529   4.402  -1.578  0.00  0.00    +0.000 C 
ATOM     13  F   UNL     1       7.108   5.568  -2.017  0.00  0.00    +0.000 F 
ATOM     14  F   UNL     1       6.502   4.537  -0.211  0.00  0.00    +0.000 F 
BRANCH  12  15
ATOM     15  C   UNL     1       7.365   3.204  -2.003  0.00  0.00    +0.000 A 
ATOM     16  C   UNL     1       7.913   3.141  -3.294  0.00  0.00    +0.000 A 
ATOM     17  C   UNL     1       8.658   2.032  -3.694  0.00  0.00    +0.000 A 
ATOM     18  C   UNL     1       8.867   0.975  -2.810  0.00  0.00    +0.000 A 
ATOM     19  C   UNL     1       8.334   1.027  -1.523  0.00  0.00    +0.000 A 
ATOM     20  C   UNL     1       7.589   2.136  -1.119  0.00  0.00    +0.000 A 
ENDBRANCH  12  15
ENDBRANCH   1  12
TORSDOF 4
