REMARK  Name = *****
REMARK  2 active torsions:
REMARK  status: ('A' for Active; 'I' for Inactive)
REMARK    1  A    between atoms: C_4  and  C_7
REMARK    2  A    between atoms: C_8  and  C_9
REMARK                            x       y       z     vdW  Elec       q    Type
REMARK                         _______ _______ _______ _____ _____    ______ ____
ROOT
ATOM      1  C   UNL     1      -2.788   0.409  -0.357  0.00  0.00    +0.000 C 
ATOM      2  C   UNL     1      -3.734  -0.544  -0.390  0.00  0.00    +0.000 C 
ATOM      3  F   UNL     1      -3.386  -1.833  -0.168  0.00  0.00    +0.000 F 
ENDROOT
BRANCH   2   4
ATOM      4  C   UNL     1      -5.173  -0.289  -0.589  0.00  0.00    +0.000 A 
ATOM      5  C   UNL     1      -5.662   0.811  -1.312  0.00  0.00    +0.000 A 
ATOM      6  C   UNL     1      -7.037   1.000  -1.486  0.00  0.00    +0.000 A 
ATOM      7  C   UNL     1      -7.937   0.084  -0.946  0.00  0.00    +0.000 A 
ATOM      8  C   UNL     1      -7.473  -1.021  -0.239  0.00  0.00    +0.000 A 
ATOM      9  C   UNL     1      -6.098  -1.207  -0.067  0.00  0.00    +0.000 A 
ATOM     10 CL   UNL     1      -9.628   0.316  -1.160  0.00  0.00    +0.000 Cl
ENDBRANCH   2   4
BRANCH   1  14
ATOM     11  C   UNL     1       1.406  -0.172   0.270  0.00  0.00    +0.000 A 
ATOM     12  C   UNL     1       0.692  -1.095  -0.491  0.00  0.00    +0.000 A 
ATOM     13  C   UNL     1      -0.679  -0.922  -0.697  0.00  0.00    +0.000 A 
ATOM     14  C   UNL     1      -1.354   0.168  -0.133  0.00  0.00    +0.000 A 
ATOM     15  C   UNL     1      -0.621   1.098   0.617  0.00  0.00    +0.000 A 
ATOM     16  C   UNL     1       0.750   0.926   0.823  0.00  0.00    +0.000 A 
ENDBRANCH   1  14
TORSDOF 2
