REMARK  Name = *****
REMARK  4 active torsions:
REMARK  status: ('A' for Active; 'I' for Inactive)
REMARK    1  A    between atoms: C_1  and  C_2
REMARK    2  A    between atoms: C_5  and  O_8
REMARK    3  A    between atoms: O_8  and  C_9
REMARK    4  A    between atoms: C_9  and  C_11
REMARK                            x       y       z     vdW  Elec       q    Type
REMARK                         _______ _______ _______ _____ _____    ______ ____
ROOT
ATOM      1  O   UNL     1      -3.087   0.676   0.599  0.00  0.00    +0.000 OA
ENDROOT
BRANCH   1   6
ATOM      2  C   UNL     1       2.490  -0.231  -0.065  0.00  0.00    +0.000 C 
ATOM      3  C   UNL     1       1.017   0.018   0.077  0.00  0.00    +0.000 A 
ATOM      4  C   UNL     1       0.549   1.267   0.513  0.00  0.00    +0.000 A 
ATOM      5  C   UNL     1      -0.818   1.493   0.673  0.00  0.00    +0.000 A 
ATOM      6  C   UNL     1      -1.708   0.463   0.389  0.00  0.00    +0.000 A 
ATOM      7  C   UNL     1      -1.270  -0.796  -0.010  0.00  0.00    +0.000 A 
ATOM      8  C   UNL     1       0.099  -1.015  -0.168  0.00  0.00    +0.000 A 
ENDBRANCH   1   6
BRANCH   1   9
ATOM      9  C   UNL     1      -3.962   1.110  -0.401  0.00  0.00    +0.000 C 
ATOM     10  S   UNL     1      -3.500   1.464  -1.964  0.00  0.00    +0.000 S 
BRANCH   9  11
ATOM     11  C   UNL     1      -5.320   1.229   0.185  0.00  0.00    +0.000 A 
ATOM     12  C   UNL     1      -5.748   0.313   1.158  0.00  0.00    +0.000 A 
ATOM     13  C   UNL     1      -7.026   0.417   1.712  0.00  0.00    +0.000 A 
ATOM     14  C   UNL     1      -7.885   1.434   1.299  0.00  0.00    +0.000 A 
ATOM     15  C   UNL     1      -7.470   2.348   0.332  0.00  0.00    +0.000 A 
ATOM     16  C   UNL     1      -6.192   2.248  -0.225  0.00  0.00    +0.000 A 
ENDBRANCH   9  11
ENDBRANCH   1   9
TORSDOF 3
