REMARK  Name = *****
REMARK  5 active torsions:
REMARK  status: ('A' for Active; 'I' for Inactive)
REMARK    1  A    between atoms: C_1  and  C_2
REMARK    2  A    between atoms: C_5  and  C_8
REMARK    3  A    between atoms: C_8  and  O_9
REMARK    4  A    between atoms: O_9  and  C_10
REMARK    5  A    between atoms: C_10  and  C_12
REMARK                            x       y       z     vdW  Elec       q    Type
REMARK                         _______ _______ _______ _____ _____    ______ ____
ROOT
ATOM      1  C   UNL     1      -3.340   0.078  -0.070  0.00  0.00    +0.000 C 
ENDROOT
BRANCH   1   6
ATOM      2  C   UNL     1       2.480  -0.082   0.019  0.00  0.00    +0.000 C 
ATOM      3  C   UNL     1       0.981  -0.032   0.030  0.00  0.00    +0.000 A 
ATOM      4  C   UNL     1       0.309   1.134  -0.352  0.00  0.00    +0.000 A 
ATOM      5  C   UNL     1      -1.087   1.173  -0.376  0.00  0.00    +0.000 A 
ATOM      6  C   UNL     1      -1.835   0.044  -0.021  0.00  0.00    +0.000 A 
ATOM      7  C   UNL     1      -1.161  -1.132   0.335  0.00  0.00    +0.000 A 
ATOM      8  C   UNL     1       0.235  -1.169   0.359  0.00  0.00    +0.000 A 
ENDBRANCH   1   6
BRANCH   1   9
ATOM      9  O   UNL     1      -3.790  -0.527  -1.286  0.00  0.00    +0.000 OA
BRANCH   9  10
ATOM     10  C   UNL     1      -4.053   0.333  -2.312  0.00  0.00    +0.000 C 
ATOM     11  O   UNL     1      -3.970   1.553  -2.229  0.00  0.00    +0.000 OA
BRANCH  10  12
ATOM     12  C   UNL     1      -4.448  -0.425  -3.487  0.00  0.00    +0.000 A 
ATOM     13  C   UNL     1      -4.546  -1.795  -3.662  0.00  0.00    +0.000 A 
ATOM     14  C   UNL     1      -4.972  -2.152  -4.975  0.00  0.00    +0.000 A 
ATOM     15  C   UNL     1      -5.185  -1.045  -5.764  0.00  0.00    +0.000 A 
ATOM     16  S   UNL     1      -4.873   0.411  -4.924  0.00  0.00    +0.000 S 
ENDBRANCH  10  12
ENDBRANCH   9  10
ENDBRANCH   1   9
TORSDOF 4
