REMARK  Name = *****
REMARK  4 active torsions:
REMARK  status: ('A' for Active; 'I' for Inactive)
REMARK    1  A    between atoms: C_3  and  C_9
REMARK    2  A    between atoms: C_5  and  C_7
REMARK    3  A    between atoms: C_9  and  S_10
REMARK    4  A    between atoms: S_10  and  C_11
REMARK                            x       y       z     vdW  Elec       q    Type
REMARK                         _______ _______ _______ _____ _____    ______ ____
ROOT
ATOM      1  C   UNL     1       2.124  -2.701  -0.007  0.00  0.00    +0.000 C 
ENDROOT
BRANCH   1   4
ATOM      2  C   UNL     1       0.302   0.414   1.229  0.00  0.00    +0.000 A 
ATOM      3  C   UNL     1       0.927  -0.835   1.208  0.00  0.00    +0.000 A 
ATOM      4  C   UNL     1       1.464  -1.344   0.017  0.00  0.00    +0.000 A 
ATOM      5  C   UNL     1       1.350  -0.585  -1.159  0.00  0.00    +0.000 A 
ATOM      6  C   UNL     1       0.722   0.667  -1.140  0.00  0.00    +0.000 A 
ATOM      7  C   UNL     1       0.201   1.165   0.058  0.00  0.00    +0.000 A 
BRANCH   6   8
ATOM      8  C   UNL     1       0.613   1.435  -2.345  0.00  0.00    +0.000 C 
ATOM      9  N   UNL     1       0.530   2.058  -3.321  0.00  0.00    +0.000 NA
ENDBRANCH   6   8
ENDBRANCH   1   4
BRANCH   1  10
ATOM     10  S   UNL     1       0.935  -4.004  -0.470  0.00  0.00    +0.000 S 
BRANCH  10  11
ATOM     11  C   UNL     1       1.935  -5.451  -0.182  0.00  0.00    +0.000 A 
ATOM     12  C   UNL     1       1.473  -6.428   0.706  0.00  0.00    +0.000 A 
ATOM     13  C   UNL     1       2.228  -7.580   0.947  0.00  0.00    +0.000 A 
ATOM     14  C   UNL     1       3.443  -7.759   0.289  0.00  0.00    +0.000 A 
ATOM     15  C   UNL     1       3.905  -6.800  -0.609  0.00  0.00    +0.000 A 
ATOM     16  C   UNL     1       3.149  -5.649  -0.848  0.00  0.00    +0.000 A 
ATOM     17 CL   UNL     1       4.374  -9.175   0.584  0.00  0.00    +0.000 Cl
ENDBRANCH  10  11
ENDBRANCH   1  10
TORSDOF 4
