REMARK  Name = *****
REMARK  3 active torsions:
REMARK  status: ('A' for Active; 'I' for Inactive)
REMARK    1  A    between atoms: C_1  and  C_2
REMARK    2  A    between atoms: C_5  and  C_8
REMARK    3  A    between atoms: C_10  and  C_11
REMARK                            x       y       z     vdW  Elec       q    Type
REMARK                         _______ _______ _______ _____ _____    ______ ____
ROOT
ATOM      1  C   UNL     1      -3.226   0.053   0.148  0.00  0.00    +0.000 C 
ATOM      2  C   UNL     1      -4.044   0.591  -0.986  0.00  0.00    +0.000 C 
ATOM      3  C   UNL     1      -4.022   1.339   0.328  0.00  0.00    +0.000 C 
ENDROOT
BRANCH   1   8
ATOM      4  C   UNL     1       2.613  -0.209  -0.060  0.00  0.00    +0.000 C 
ATOM      5  C   UNL     1       1.117  -0.114  -0.021  0.00  0.00    +0.000 A 
ATOM      6  C   UNL     1       0.467   0.380   1.112  0.00  0.00    +0.000 A 
ATOM      7  C   UNL     1      -0.929   0.436   1.159  0.00  0.00    +0.000 A 
ATOM      8  C   UNL     1      -1.719   0.007   0.081  0.00  0.00    +0.000 A 
ATOM      9  C   UNL     1      -1.049  -0.514  -1.037  0.00  0.00    +0.000 A 
ATOM     10  C   UNL     1       0.347  -0.576  -1.091  0.00  0.00    +0.000 A 
ENDBRANCH   1   8
BRANCH   3  11
ATOM     11  C   UNL     1      -3.392   2.735   0.359  0.00  0.00    +0.000 A 
ATOM     12  C   UNL     1      -2.345   3.190  -0.413  0.00  0.00    +0.000 A 
ATOM     13  C   UNL     1      -2.016   4.548  -0.123  0.00  0.00    +0.000 A 
ATOM     14  C   UNL     1      -2.830   5.080   0.851  0.00  0.00    +0.000 A 
ATOM     15  S   UNL     1      -3.982   3.947   1.410  0.00  0.00    +0.000 S 
ENDBRANCH   3  11
TORSDOF 2
