REMARK  Name = *****
REMARK  6 active torsions:
REMARK  status: ('A' for Active; 'I' for Inactive)
REMARK    1  A    between atoms: C_1  and  C_2
REMARK    2  A    between atoms: C_3  and  C_17
REMARK    3  A    between atoms: C_5  and  O_8
REMARK    4  A    between atoms: O_8  and  C_9
REMARK    5  A    between atoms: C_9  and  C_11
REMARK    6  A    between atoms: C_11  and  C_12
REMARK                            x       y       z     vdW  Elec       q    Type
REMARK                         _______ _______ _______ _____ _____    ______ ____
ROOT
ATOM      1  O   UNL     1      -3.202  -1.103  -0.201  0.00  0.00    +0.000 OA
ENDROOT
BRANCH   1   6
ATOM      2  C   UNL     1       1.991   1.240  -0.188  0.00  0.00    +0.000 C 
ATOM      3  C   UNL     1       0.624   0.611  -0.178  0.00  0.00    +0.000 A 
ATOM      4  C   UNL     1       0.444  -0.750   0.152  0.00  0.00    +0.000 A 
ATOM      5  C   UNL     1      -0.851  -1.291   0.152  0.00  0.00    +0.000 A 
ATOM      6  C   UNL     1      -1.945  -0.486  -0.161  0.00  0.00    +0.000 A 
ATOM      7  C   UNL     1      -1.777   0.848  -0.513  0.00  0.00    +0.000 A 
ATOM      8  C   UNL     1      -0.494   1.395  -0.512  0.00  0.00    +0.000 A 
ATOM      9  C   UNL     1       1.610  -1.632   0.505  0.00  0.00    +0.000 C 
ENDBRANCH   1   6
BRANCH   1  10
ATOM     10  C   UNL     1      -4.186  -0.562   0.623  0.00  0.00    +0.000 C 
ATOM     11  O   UNL     1      -4.067   0.398   1.375  0.00  0.00    +0.000 OA
BRANCH  10  12
ATOM     12  C   UNL     1      -5.457  -1.363   0.466  0.00  0.00    +0.000 C 
BRANCH  12  13
ATOM     13  C   UNL     1      -5.524  -2.418   1.524  0.00  0.00    +0.000 A 
ATOM     14  C   UNL     1      -5.925  -2.284   2.839  0.00  0.00    +0.000 A 
ATOM     15  C   UNL     1      -5.857  -3.515   3.554  0.00  0.00    +0.000 A 
ATOM     16  C   UNL     1      -5.409  -4.547   2.761  0.00  0.00    +0.000 A 
ATOM     17  S   UNL     1      -5.073  -4.031   1.166  0.00  0.00    +0.000 S 
ENDBRANCH  12  13
ENDBRANCH  10  12
ENDBRANCH   1  10
TORSDOF 4
