REMARK  Name = *****
REMARK  4 active torsions:
REMARK  status: ('A' for Active; 'I' for Inactive)
REMARK    1  A    between atoms: C_1  and  C_2
REMARK    2  A    between atoms: C_2  and  C_10
REMARK    3  A    between atoms: N_3  and  C_4
REMARK    4  A    between atoms: C_10  and  C_11
REMARK                            x       y       z     vdW  Elec       q    Type
REMARK                         _______ _______ _______ _____ _____    ______ ____
ROOT
ATOM      1  C   UNL     1       0.998  -0.537   0.614  0.00  0.00    +0.000 C 
ATOM      2  C   UNL     1       2.304   0.029   0.099  0.00  0.00    +0.000 C 
ATOM      3  N   UNL     1       2.830  -0.244  -1.060  0.00  0.00    +0.000 NA
ENDROOT
BRANCH   3   4
ATOM      4  C   UNL     1       2.173  -1.122  -1.930  0.00  0.00    +0.000 A 
ATOM      5  C   UNL     1       1.372  -0.620  -2.959  0.00  0.00    +0.000 A 
ATOM      6  C   UNL     1       0.731  -1.489  -3.844  0.00  0.00    +0.000 A 
ATOM      7  C   UNL     1       0.899  -2.867  -3.712  0.00  0.00    +0.000 A 
ATOM      8  C   UNL     1       1.714  -3.375  -2.700  0.00  0.00    +0.000 A 
ATOM      9  C   UNL     1       2.354  -2.503  -1.817  0.00  0.00    +0.000 A 
ENDBRANCH   3   4
BRANCH   2  10
ATOM     10  C   UNL     1       3.083   0.942   1.032  0.00  0.00    +0.000 C 
BRANCH  10  11
ATOM     11  C   UNL     1       3.669   0.192   2.203  0.00  0.00    +0.000 A 
ATOM     12  C   UNL     1       4.682  -0.755   1.998  0.00  0.00    +0.000 A 
ATOM     13  C   UNL     1       5.222  -1.459   3.075  0.00  0.00    +0.000 A 
ATOM     14  C   UNL     1       4.756  -1.222   4.367  0.00  0.00    +0.000 A 
ATOM     15  C   UNL     1       3.751  -0.280   4.582  0.00  0.00    +0.000 A 
ATOM     16  C   UNL     1       3.209   0.424   3.506  0.00  0.00    +0.000 A 
ENDBRANCH  10  11
ENDBRANCH   2  10
TORSDOF 3
