REMARK  Name = *****
REMARK  2 active torsions:
REMARK  status: ('A' for Active; 'I' for Inactive)
REMARK    1  A    between atoms: C_4  and  C_7
REMARK    2  A    between atoms: C_8  and  C_9
REMARK                            x       y       z     vdW  Elec       q    Type
REMARK                         _______ _______ _______ _____ _____    ______ ____
ROOT
ATOM      1  C   UNL     1       2.885   0.160  -0.269  0.00  0.00    +0.000 C 
ATOM      2  C   UNL     1       4.080   0.204  -0.375  0.00  0.00    +0.000 C 
ENDROOT
BRANCH   1   6
ATOM      3  C   UNL     1      -1.319  -0.021   0.098  0.00  0.00    +0.000 A 
ATOM      4  C   UNL     1      -0.678   1.217   0.036  0.00  0.00    +0.000 A 
ATOM      5  C   UNL     1       0.712   1.278  -0.085  0.00  0.00    +0.000 A 
ATOM      6  C   UNL     1       1.461   0.100  -0.144  0.00  0.00    +0.000 A 
ATOM      7  C   UNL     1       0.817  -1.138  -0.082  0.00  0.00    +0.000 A 
ATOM      8  C   UNL     1      -0.573  -1.197   0.039  0.00  0.00    +0.000 A 
ENDBRANCH   1   6
BRANCH   2   9
ATOM      9  C   UNL     1       5.499   0.252  -0.502  0.00  0.00    +0.000 A 
ATOM     10  C   UNL     1       6.246   1.409  -0.579  0.00  0.00    +0.000 A 
ATOM     11  C   UNL     1       7.629   1.126  -0.701  0.00  0.00    +0.000 A 
ATOM     12  C   UNL     1       7.911  -0.217  -0.714  0.00  0.00    +0.000 A 
ATOM     13  S   UNL     1       6.480  -1.149  -0.577  0.00  0.00    +0.000 S 
ATOM     14 BR   UNL     1       8.920   2.494  -0.829  0.00  0.00    +0.000 Br
ENDBRANCH   2   9
TORSDOF 2
