REMARK  Name = *****
REMARK  6 active torsions:
REMARK  status: ('A' for Active; 'I' for Inactive)
REMARK    1  A    between atoms: C_1  and  C_2
REMARK    2  A    between atoms: C_2  and  S_3
REMARK    3  A    between atoms: S_3  and  N_4
REMARK    4  A    between atoms: S_3  and  C_13
REMARK    5  A    between atoms: N_4  and  C_5
REMARK    6  A    between atoms: C_8  and  C_11
REMARK                            x       y       z     vdW  Elec       q    Type
REMARK                         _______ _______ _______ _____ _____    ______ ____
ROOT
ATOM      1  S   UNL     1       3.192   0.769  -1.643  0.00  0.00    +0.000 S 
ATOM      2  O   UNL     1       2.840   2.165  -1.832  0.00  0.00    +0.000 OA
ENDROOT
BRANCH   1   3
ATOM      3  C   UNL     1       4.979   0.782  -1.582  0.00  0.00    +0.000 A 
ATOM      4  C   UNL     1       5.677   0.688  -2.792  0.00  0.00    +0.000 A 
ATOM      5  C   UNL     1       7.071   0.676  -2.789  0.00  0.00    +0.000 A 
ATOM      6  C   UNL     1       7.765   0.765  -1.583  0.00  0.00    +0.000 A 
ATOM      7  C   UNL     1       7.067   0.873  -0.378  0.00  0.00    +0.000 A 
ATOM      8  C   UNL     1       5.671   0.884  -0.372  0.00  0.00    +0.000 A 
ENDBRANCH   1   3
BRANCH   1  10
ATOM      9  C   UNL     1       1.105   0.191   0.043  0.00  0.00    +0.000 C 
ATOM     10  C   UNL     1       2.615   0.342  -0.006  0.00  0.00    +0.000 C 
ENDBRANCH   1  10
BRANCH   1  11
ATOM     11  N   UNL     1       2.768  -0.353  -2.609  0.00  0.00    +0.000 NA
BRANCH  11  12
ATOM     12  C   UNL     1       3.062  -1.749  -2.592  0.00  0.00    +0.000 A 
ATOM     13  C   UNL     1       2.391  -2.518  -3.546  0.00  0.00    +0.000 A 
ATOM     14  C   UNL     1       2.588  -3.899  -3.630  0.00  0.00    +0.000 A 
ATOM     15  C   UNL     1       3.463  -4.539  -2.749  0.00  0.00    +0.000 A 
ATOM     16  C   UNL     1       4.154  -3.770  -1.807  0.00  0.00    +0.000 A 
ATOM     17  C   UNL     1       3.950  -2.386  -1.727  0.00  0.00    +0.000 A 
ATOM     18  C   UNL     1       3.710  -6.015  -2.859  0.00  0.00    +0.000 C 
ENDBRANCH  11  12
ENDBRANCH   1  11
TORSDOF 4
