REMARK  Name = *****
REMARK  4 active torsions:
REMARK  status: ('A' for Active; 'I' for Inactive)
REMARK    1  A    between atoms: C_1  and  C_2
REMARK    2  A    between atoms: C_5  and  C_8
REMARK    3  A    between atoms: C_8  and  O_10
REMARK    4  A    between atoms: O_10  and  C_11
REMARK                            x       y       z     vdW  Elec       q    Type
REMARK                         _______ _______ _______ _____ _____    ______ ____
ROOT
ATOM      1  C   UNL     1      -3.326   0.011   0.344  0.00  0.00    +0.000 C 
ATOM      2  O   UNL     1      -3.920  -0.978   0.744  0.00  0.00    +0.000 OA
ENDROOT
BRANCH   1   7
ATOM      3  C   UNL     1       2.459   0.190  -0.041  0.00  0.00    +0.000 C 
ATOM      4  C   UNL     1       0.961   0.145   0.027  0.00  0.00    +0.000 A 
ATOM      5  C   UNL     1       0.201   1.250  -0.376  0.00  0.00    +0.000 A 
ATOM      6  C   UNL     1      -1.194   1.225  -0.283  0.00  0.00    +0.000 A 
ATOM      7  C   UNL     1      -1.845   0.093   0.224  0.00  0.00    +0.000 A 
ATOM      8  C   UNL     1      -1.086  -1.007   0.640  0.00  0.00    +0.000 A 
ATOM      9  C   UNL     1       0.308  -0.978   0.547  0.00  0.00    +0.000 A 
ENDBRANCH   1   7
BRANCH   1  10
ATOM     10  O   UNL     1      -3.902   1.172  -0.045  0.00  0.00    +0.000 OA
BRANCH  10  11
ATOM     11  C   UNL     1      -5.336   1.192   0.014  0.00  0.00    +0.000 C 
ATOM     12  C   UNL     1      -5.970   0.446  -1.173  0.00  0.00    +0.000 C 
ATOM     13  S   UNL     1      -5.470   1.059  -2.826  0.00  0.00    +0.000 S 
ATOM     14  C   UNL     1      -6.012   2.790  -2.670  0.00  0.00    +0.000 C 
ATOM     15  C   UNL     1      -5.360   3.524  -1.505  0.00  0.00    +0.000 C 
ATOM     16  S   UNL     1      -5.924   2.927   0.120  0.00  0.00    +0.000 S 
ENDBRANCH  10  11
ENDBRANCH   1  10
TORSDOF 3
