REMARK  Name = *****
REMARK  5 active torsions:
REMARK  status: ('A' for Active; 'I' for Inactive)
REMARK    1  A    between atoms: C_4  and  C_7
REMARK    2  A    between atoms: C_7  and  C_8
REMARK    3  A    between atoms: C_8  and  C_9
REMARK    4  A    between atoms: C_10  and  S_16
REMARK    5  A    between atoms: C_11  and  S_15
REMARK                            x       y       z     vdW  Elec       q    Type
REMARK                         _______ _______ _______ _____ _____    ______ ____
ROOT
ATOM      1  C   UNL     1      -5.090  -0.590  -0.401  0.00  0.00    +0.000 A 
ATOM      2  C   UNL     1      -5.918  -1.743  -0.500  0.00  0.00    +0.000 A 
ATOM      3  C   UNL     1      -7.322  -1.599  -0.617  0.00  0.00    +0.000 A 
ATOM      4  C   UNL     1      -7.890  -0.320  -0.642  0.00  0.00    +0.000 A 
ATOM      5  C   UNL     1      -7.085   0.809  -0.549  0.00  0.00    +0.000 A 
ATOM      6  C   UNL     1      -5.703   0.676  -0.429  0.00  0.00    +0.000 A 
ENDROOT
BRANCH   3   7
ATOM      7  S   UNL     1      -8.468  -2.975  -0.748  0.00  0.00    +0.000 S 
ATOM      8  H   UNL     1      -7.777  -4.146  -0.710  0.00  0.00    +0.000 HD
ENDBRANCH   3   7
BRANCH   2   9
ATOM      9  S   UNL     1      -5.182  -3.392  -0.485  0.00  0.00    +0.000 S 
ATOM     10  H   UNL     1      -3.832  -3.286  -0.365  0.00  0.00    +0.000 HD
ENDBRANCH   2   9
BRANCH   1  11
ATOM     11  C   UNL     1      -3.578  -0.726  -0.264  0.00  0.00    +0.000 C 
BRANCH  11  12
ATOM     12  C   UNL     1      -2.757   0.565  -0.121  0.00  0.00    +0.000 C 
BRANCH  12  16
ATOM     13  C   UNL     1       1.451  -0.313   0.238  0.00  0.00    +0.000 A 
ATOM     14  C   UNL     1       0.892  -0.081  -1.017  0.00  0.00    +0.000 A 
ATOM     15  C   UNL     1      -0.468   0.208  -1.134  0.00  0.00    +0.000 A 
ATOM     16  C   UNL     1      -1.281   0.273   0.006  0.00  0.00    +0.000 A 
ATOM     17  C   UNL     1      -0.710   0.032   1.263  0.00  0.00    +0.000 A 
ATOM     18  C   UNL     1       0.650  -0.258   1.378  0.00  0.00    +0.000 A 
ENDBRANCH  12  16
ENDBRANCH  11  12
ENDBRANCH   1  11
TORSDOF 5
