REMARK  Name = *****
REMARK  3 active torsions:
REMARK  status: ('A' for Active; 'I' for Inactive)
REMARK    1  A    between atoms: C_6  and  C_7
REMARK    2  A    between atoms: C_7  and  S_8
REMARK    3  A    between atoms: S_8  and  C_10
REMARK                            x       y       z     vdW  Elec       q    Type
REMARK                         _______ _______ _______ _____ _____    ______ ____
ROOT
ATOM      1  C   UNL     1      -0.663   1.558   1.810  0.00  0.00    +0.000 C 
ENDROOT
BRANCH   1   7
ATOM      2  C   UNL     1       0.882   1.088  -0.200  0.00  0.00    +0.000 C 
ATOM      3  C   UNL     1       1.455  -0.256   0.245  0.00  0.00    +0.000 C 
ATOM      4  C   UNL     1       0.554  -1.425  -0.167  0.00  0.00    +0.000 C 
ATOM      5  C   UNL     1      -0.894  -1.219   0.305  0.00  0.00    +0.000 C 
ATOM      6  C   UNL     1      -1.443   0.141  -0.143  0.00  0.00    +0.000 C 
ATOM      7  C   UNL     1      -0.556   1.323   0.291  0.00  0.00    +0.000 C 
ATOM      8 CL   UNL     1      -1.976  -2.502  -0.333  0.00  0.00    +0.000 Cl
ATOM      9 CL   UNL     1       1.252  -2.935   0.505  0.00  0.00    +0.000 Cl
ENDBRANCH   1   7
BRANCH   1  10
ATOM     10  S   UNL     1       0.095   3.149   2.303  0.00  0.00    +0.000 S 
ATOM     11  O   UNL     1      -0.703   4.240   1.650  0.00  0.00    +0.000 OA
BRANCH  10  12
ATOM     12  C   UNL     1      -0.425   3.115   4.035  0.00  0.00    +0.000 A 
ATOM     13  C   UNL     1       0.225   2.265   4.938  0.00  0.00    +0.000 A 
ATOM     14  C   UNL     1      -0.169   2.230   6.277  0.00  0.00    +0.000 A 
ATOM     15  C   UNL     1      -1.207   3.048   6.721  0.00  0.00    +0.000 A 
ATOM     16  C   UNL     1      -1.850   3.904   5.829  0.00  0.00    +0.000 A 
ATOM     17  C   UNL     1      -1.459   3.940   4.490  0.00  0.00    +0.000 A 
ENDBRANCH  10  12
ENDBRANCH   1  10
TORSDOF 3
