REMARK  Name = *****
REMARK  6 active torsions:
REMARK  status: ('A' for Active; 'I' for Inactive)
REMARK    1  A    between atoms: C_1  and  C_2
REMARK    2  A    between atoms: C_4  and  C_18
REMARK    3  A    between atoms: C_5  and  C_9
REMARK    4  A    between atoms: C_7  and  C_8
REMARK    5  A    between atoms: C_9  and  C_10
REMARK    6  A    between atoms: C_10  and  C_12
REMARK                            x       y       z     vdW  Elec       q    Type
REMARK                         _______ _______ _______ _____ _____    ______ ____
ROOT
ATOM      1  C   UNL     1       3.079   0.552  -0.029  0.00  0.00    +0.000 C 
ATOM      2  C   UNL     1       1.642   0.110  -0.005  0.00  0.00    +0.000 A 
ATOM      3  C   UNL     1       0.624   1.077  -0.009  0.00  0.00    +0.000 A 
ATOM      4  C   UNL     1      -0.734   0.721   0.000  0.00  0.00    +0.000 A 
ATOM      5  C   UNL     1      -1.085  -0.642   0.033  0.00  0.00    +0.000 A 
ATOM      6  C   UNL     1      -0.064  -1.609   0.021  0.00  0.00    +0.000 A 
ATOM      7  C   UNL     1       1.293  -1.251   0.003  0.00  0.00    +0.000 A 
ATOM      8  C   UNL     1       2.340  -2.331  -0.015  0.00  0.00    +0.000 C 
ATOM      9  C   UNL     1      -1.772   1.809  -0.013  0.00  0.00    +0.000 C 
ENDROOT
BRANCH   5  10
ATOM     10  C   UNL     1      -2.527  -1.107   0.061  0.00  0.00    +0.000 C 
BRANCH  10  11
ATOM     11  C   UNL     1      -3.187  -1.202  -1.306  0.00  0.00    +0.000 C 
ATOM     12  O   UNL     1      -2.583  -1.022  -2.363  0.00  0.00    +0.000 OA
BRANCH  11  13
ATOM     13  C   UNL     1      -4.644  -1.542  -1.366  0.00  0.00    +0.000 A 
ATOM     14  C   UNL     1      -5.393  -1.855  -0.224  0.00  0.00    +0.000 A 
ATOM     15  C   UNL     1      -6.752  -2.165  -0.337  0.00  0.00    +0.000 A 
ATOM     16  C   UNL     1      -7.370  -2.165  -1.587  0.00  0.00    +0.000 A 
ATOM     17  C   UNL     1      -6.633  -1.857  -2.728  0.00  0.00    +0.000 A 
ATOM     18  C   UNL     1      -5.276  -1.547  -2.618  0.00  0.00    +0.000 A 
ENDBRANCH  11  13
ENDBRANCH  10  11
ENDBRANCH   5  10
TORSDOF 3
