REMARK  Name = *****
REMARK  1 active torsions:
REMARK  status: ('A' for Active; 'I' for Inactive)
REMARK    1  A    between atoms: P_9  and  C_11
REMARK                            x       y       z     vdW  Elec       q    Type
REMARK                         _______ _______ _______ _____ _____    ______ ____
ROOT
ATOM      1  C   UNL     1      -1.270  -1.440  -0.395  0.00  0.00    +0.000 C 
ATOM      2  C   UNL     1       0.010  -0.671  -0.117  0.00  0.00    +0.000 A 
ATOM      3  C   UNL     1       1.231  -1.365  -0.167  0.00  0.00    +0.000 A 
ATOM      4  C   UNL     1       2.438  -0.697   0.036  0.00  0.00    +0.000 A 
ATOM      5  C   UNL     1       2.438   0.670   0.290  0.00  0.00    +0.000 A 
ATOM      6  C   UNL     1       1.233   1.372   0.341  0.00  0.00    +0.000 A 
ATOM      7  C   UNL     1       0.003   0.722   0.125  0.00  0.00    +0.000 A 
ATOM      8  C   UNL     1      -1.262   1.538   0.282  0.00  0.00    +0.000 C 
ATOM      9  P   UNL     1      -2.476   0.794  -0.875  0.00  0.00    +0.000 P 
ATOM     10  O   UNL     1      -2.477  -0.693  -0.225  0.00  0.00    +0.000 OA
ENDROOT
BRANCH   9  11
ATOM     11  C   UNL     1      -4.031   1.471  -0.198  0.00  0.00    +0.000 A 
ATOM     12  C   UNL     1      -4.280   2.851  -0.288  0.00  0.00    +0.000 A 
ATOM     13  C   UNL     1      -5.463   3.401   0.214  0.00  0.00    +0.000 A 
ATOM     14  C   UNL     1      -6.418   2.579   0.806  0.00  0.00    +0.000 A 
ATOM     15  C   UNL     1      -6.192   1.208   0.893  0.00  0.00    +0.000 A 
ATOM     16  C   UNL     1      -5.009   0.658   0.392  0.00  0.00    +0.000 A 
ENDBRANCH   9  11
TORSDOF 1
