REMARK  Name = *****
REMARK  5 active torsions:
REMARK  status: ('A' for Active; 'I' for Inactive)
REMARK    1  A    between atoms: C_1  and  O_2
REMARK    2  A    between atoms: O_2  and  C_3
REMARK    3  A    between atoms: C_6  and  C_9
REMARK    4  A    between atoms: C_10  and  C_11
REMARK    5  A    between atoms: C_14  and  C_16
REMARK                            x       y       z     vdW  Elec       q    Type
REMARK                         _______ _______ _______ _____ _____    ______ ____
ROOT
ATOM      1  C   UNL     1       5.292   1.165   4.713  0.00  0.00    +0.000 C 
ATOM      2  C   UNL     1       5.422   0.328   5.754  0.00  0.00    +0.000 C 
ENDROOT
BRANCH   1   6
ATOM      3  C   UNL     1       3.160   0.286   1.095  0.00  0.00    +0.000 A 
ATOM      4  C   UNL     1       2.660  -0.159   2.318  0.00  0.00    +0.000 A 
ATOM      5  C   UNL     1       3.351   0.115   3.505  0.00  0.00    +0.000 A 
ATOM      6  C   UNL     1       4.556   0.829   3.486  0.00  0.00    +0.000 A 
ATOM      7  C   UNL     1       5.043   1.287   2.257  0.00  0.00    +0.000 A 
ATOM      8  C   UNL     1       4.352   1.012   1.073  0.00  0.00    +0.000 A 
BRANCH   3  10
ATOM      9  C   UNL     1       1.372  -0.648  -0.162  0.00  0.00    +0.000 C 
ATOM     10  O   UNL     1       2.588   0.089  -0.130  0.00  0.00    +0.000 OA
ENDBRANCH   3  10
ENDBRANCH   1   6
BRANCH   2  11
ATOM     11  C   UNL     1       6.147   0.691   6.920  0.00  0.00    +0.000 A 
ATOM     12  N   UNL     1       6.318  -0.065   7.994  0.00  0.00    +0.000 NA
ATOM     13  N   UNL     1       7.071   0.642   8.903  0.00  0.00    +0.000 NA
ATOM     14  C   UNL     1       7.332   1.808   8.348  0.00  0.00    +0.000 A 
ATOM     15  O   UNL     1       6.781   1.910   7.092  0.00  0.00    +0.000 OA
BRANCH  14  16
ATOM     16  C   UNL     1       8.108   2.976   8.862  0.00  0.00    +0.000 C 
ATOM     17 CL   UNL     1       8.714   2.689  10.524  0.00  0.00    +0.000 Cl
ATOM     18 CL   UNL     1       9.518   3.293   7.798  0.00  0.00    +0.000 Cl
ATOM     19 CL   UNL     1       7.071   4.441   8.892  0.00  0.00    +0.000 Cl
ENDBRANCH  14  16
ENDBRANCH   2  11
TORSDOF 4
