REMARK  Name = *****
REMARK  5 active torsions:
REMARK  status: ('A' for Active; 'I' for Inactive)
REMARK    1  A    between atoms: C_1  and  C_2
REMARK    2  A    between atoms: C_5  and  C_8
REMARK    3  A    between atoms: N_9  and  C_11
REMARK    4  A    between atoms: C_11  and  C_12
REMARK    5  A    between atoms: C_11  and  C_13
REMARK                            x       y       z     vdW  Elec       q    Type
REMARK                         _______ _______ _______ _____ _____    ______ ____
ROOT
ATOM      1  C   UNL     1      -3.306  -0.032  -0.360  0.00  0.00    +0.000 C 
ATOM      2  N   UNL     1      -3.820   0.064  -1.727  0.00  0.00    +0.000 NA
ATOM      3  O   UNL     1      -3.996   1.152  -0.791  0.00  0.00    +0.000 OA
ENDROOT
BRANCH   1   8
ATOM      4  C   UNL     1       2.481   0.283   0.402  0.00  0.00    +0.000 C 
ATOM      5  C   UNL     1       0.995   0.187   0.228  0.00  0.00    +0.000 A 
ATOM      6  C   UNL     1       0.149   1.130   0.815  0.00  0.00    +0.000 A 
ATOM      7  C   UNL     1      -1.235   1.059   0.621  0.00  0.00    +0.000 A 
ATOM      8  C   UNL     1      -1.814   0.057  -0.175  0.00  0.00    +0.000 A 
ATOM      9  C   UNL     1      -0.946  -0.874  -0.768  0.00  0.00    +0.000 A 
ATOM     10  C   UNL     1       0.438  -0.810  -0.578  0.00  0.00    +0.000 A 
ENDBRANCH   1   8
BRANCH   2  11
ATOM     11  C   UNL     1      -5.169  -0.501  -1.910  0.00  0.00    +0.000 C 
ATOM     12  C   UNL     1      -5.020  -1.906  -2.504  0.00  0.00    +0.000 C 
BRANCH  11  13
ATOM     13  C   UNL     1      -6.035   0.351  -2.833  0.00  0.00    +0.000 A 
ATOM     14  C   UNL     1      -7.380   0.589  -2.508  0.00  0.00    +0.000 A 
ATOM     15  C   UNL     1      -8.194   1.346  -3.353  0.00  0.00    +0.000 A 
ATOM     16  C   UNL     1      -7.677   1.873  -4.535  0.00  0.00    +0.000 A 
ATOM     17  C   UNL     1      -6.345   1.643  -4.873  0.00  0.00    +0.000 A 
ATOM     18  C   UNL     1      -5.530   0.885  -4.030  0.00  0.00    +0.000 A 
ENDBRANCH  11  13
ENDBRANCH   2  11
TORSDOF 3
