REMARK  Name = *****
REMARK  3 active torsions:
REMARK  status: ('A' for Active; 'I' for Inactive)
REMARK    1  A    between atoms: C_5  and  C_8
REMARK    2  A    between atoms: C_8  and  C_10
REMARK    3  A    between atoms: C_10  and  C_11
REMARK                            x       y       z     vdW  Elec       q    Type
REMARK                         _______ _______ _______ _____ _____    ______ ____
ROOT
ATOM      1  C   UNL     1      -1.545  -1.202  -1.997  0.00  0.00    +0.000 C 
ATOM      2  O   UNL     1      -1.144  -0.446  -2.886  0.00  0.00    +0.000 OA
ENDROOT
BRANCH   1   7
ATOM      3  C   UNL     1       1.598  -0.044   0.491  0.00  0.00    +0.000 C 
ATOM      4  C   UNL     1       0.728   1.198   0.653  0.00  0.00    +0.000 C 
ATOM      5  C   UNL     1      -0.223   1.467  -0.508  0.00  0.00    +0.000 C 
ATOM      6  C   UNL     1      -1.566   0.748  -0.362  0.00  0.00    +0.000 C 
ATOM      7  C   UNL     1      -1.565  -0.781  -0.518  0.00  0.00    +0.000 C 
ATOM      8  C   UNL     1      -0.502  -1.519   0.307  0.00  0.00    +0.000 C 
ATOM      9  C   UNL     1       0.938  -1.269  -0.135  0.00  0.00    +0.000 C 
ENDBRANCH   1   7
BRANCH   1  10
ATOM     10  C   UNL     1      -2.014  -2.605  -2.346  0.00  0.00    +0.000 C 
BRANCH  10  11
ATOM     11  C   UNL     1      -3.482  -2.819  -2.079  0.00  0.00    +0.000 A 
ATOM     12  C   UNL     1      -4.443  -2.099  -2.802  0.00  0.00    +0.000 A 
ATOM     13  C   UNL     1      -5.803  -2.285  -2.552  0.00  0.00    +0.000 A 
ATOM     14  C   UNL     1      -6.215  -3.194  -1.580  0.00  0.00    +0.000 A 
ATOM     15  C   UNL     1      -5.268  -3.918  -0.858  0.00  0.00    +0.000 A 
ATOM     16  C   UNL     1      -3.907  -3.734  -1.106  0.00  0.00    +0.000 A 
ENDBRANCH  10  11
ENDBRANCH   1  10
TORSDOF 3
