REMARK  Name = *****
REMARK  5 active torsions:
REMARK  status: ('A' for Active; 'I' for Inactive)
REMARK    1  A    between atoms: C_1  and  C_2
REMARK    2  A    between atoms: C_2  and  O_4
REMARK    3  A    between atoms: O_4  and  C_5
REMARK    4  A    between atoms: C_9  and  C_11
REMARK    5  A    between atoms: C_12  and  C_13
REMARK                            x       y       z     vdW  Elec       q    Type
REMARK                         _______ _______ _______ _____ _____    ______ ____
ROOT
ATOM      1  C   UNL     1       4.583   0.511  -1.179  0.00  0.00    +0.000 A 
ATOM      2  C   UNL     1       5.273  -0.660  -0.877  0.00  0.00    +0.000 A 
ATOM      3  C   UNL     1       6.666  -0.652  -0.902  0.00  0.00    +0.000 A 
ATOM      4  C   UNL     1       7.354   0.515  -1.250  0.00  0.00    +0.000 A 
ATOM      5  C   UNL     1       6.658   1.684  -1.593  0.00  0.00    +0.000 A 
ATOM      6  C   UNL     1       5.259   1.675  -1.548  0.00  0.00    +0.000 A 
ENDROOT
BRANCH   5   7
ATOM      7  C   UNL     1       7.350   2.933  -1.943  0.00  0.00    +0.000 C 
ATOM      8  C   UNL     1       8.465   2.983  -2.690  0.00  0.00    +0.000 C 
BRANCH   8   9
ATOM      9  C   UNL     1       9.149   4.232  -3.055  0.00  0.00    +0.000 A 
ATOM     10  C   UNL     1       9.284   5.301  -2.160  0.00  0.00    +0.000 A 
ATOM     11  C   UNL     1       9.971   6.460  -2.534  0.00  0.00    +0.000 A 
ATOM     12  C   UNL     1      10.538   6.556  -3.803  0.00  0.00    +0.000 A 
ATOM     13  C   UNL     1      10.425   5.494  -4.696  0.00  0.00    +0.000 A 
ATOM     14  C   UNL     1       9.739   4.335  -4.322  0.00  0.00    +0.000 A 
ENDBRANCH   8   9
ENDBRANCH   5   7
BRANCH   1  15
ATOM     15  O   UNL     1       3.183   0.538  -1.217  0.00  0.00    +0.000 OA
BRANCH  15  17
ATOM     16  C   UNL     1       1.061   0.338  -0.230  0.00  0.00    +0.000 C 
ATOM     17  C   UNL     1       2.543   0.283  -0.008  0.00  0.00    +0.000 C 
ATOM     18  O   UNL     1       3.069   0.063   1.074  0.00  0.00    +0.000 OA
ENDBRANCH  15  17
ENDBRANCH   1  15
TORSDOF 4
