REMARK  Name = *****
REMARK  2 active torsions:
REMARK  status: ('A' for Active; 'I' for Inactive)
REMARK    1  A    between atoms: C_4  and  C_7
REMARK    2  A    between atoms: C_8  and  C_9
REMARK                            x       y       z     vdW  Elec       q    Type
REMARK                         _______ _______ _______ _____ _____    ______ ____
ROOT
ATOM      1  C   UNL     1      -2.834   0.458  -0.123  0.00  0.00    +0.000 C 
ATOM      2  C   UNL     1      -3.424   1.617  -0.465  0.00  0.00    +0.000 C 
ATOM      3  F   UNL     1      -3.592  -0.608   0.227  0.00  0.00    +0.000 F 
ENDROOT
BRANCH   1   7
ATOM      4  C   UNL     1       1.390  -0.223   0.166  0.00  0.00    +0.000 A 
ATOM      5  C   UNL     1       0.499  -0.914   0.983  0.00  0.00    +0.000 A 
ATOM      6  C   UNL     1      -0.874  -0.677   0.876  0.00  0.00    +0.000 A 
ATOM      7  C   UNL     1      -1.375   0.259  -0.040  0.00  0.00    +0.000 A 
ATOM      8  C   UNL     1      -0.465   0.935  -0.868  0.00  0.00    +0.000 A 
ATOM      9  C   UNL     1       0.909   0.698  -0.761  0.00  0.00    +0.000 A 
ENDBRANCH   1   7
BRANCH   2  10
ATOM     10  C   UNL     1      -4.829   1.902  -0.557  0.00  0.00    +0.000 A 
ATOM     11  C   UNL     1      -5.853   0.990  -0.399  0.00  0.00    +0.000 A 
ATOM     12  S   UNL     1      -7.402   1.699  -0.585  0.00  0.00    +0.000 S 
ATOM     13  C   UNL     1      -6.720   3.237  -0.885  0.00  0.00    +0.000 A 
ATOM     14  C   UNL     1      -5.343   3.207  -0.843  0.00  0.00    +0.000 A 
ENDBRANCH   2  10
TORSDOF 2
