REMARK  Name = *****
REMARK  3 active torsions:
REMARK  status: ('A' for Active; 'I' for Inactive)
REMARK    1  A    between atoms: C_1  and  C_2
REMARK    2  A    between atoms: C_3  and  C_7
REMARK    3  A    between atoms: C_8  and  C_9
REMARK                            x       y       z     vdW  Elec       q    Type
REMARK                         _______ _______ _______ _____ _____    ______ ____
ROOT
ATOM      1  C   UNL     1      -0.356  -2.548  -0.045  0.00  0.00    +0.000 C 
ATOM      2  C   UNL     1      -1.536  -3.162   0.139  0.00  0.00    +0.000 C 
ENDROOT
BRANCH   2   3
ATOM      3  C   UNL     1      -1.707  -4.622   0.128  0.00  0.00    +0.000 A 
ATOM      4  C   UNL     1      -0.768  -5.493   0.698  0.00  0.00    +0.000 A 
ATOM      5  C   UNL     1      -0.984  -6.875   0.693  0.00  0.00    +0.000 A 
ATOM      6  C   UNL     1      -2.147  -7.392   0.129  0.00  0.00    +0.000 A 
ATOM      7  C   UNL     1      -3.098  -6.540  -0.426  0.00  0.00    +0.000 A 
ATOM      8  C   UNL     1      -2.881  -5.159  -0.421  0.00  0.00    +0.000 A 
ATOM      9 CL   UNL     1      -2.413  -9.092   0.124  0.00  0.00    +0.000 Cl
ENDBRANCH   2   3
BRANCH   1  12
ATOM     10  C   UNL     1      -2.348  -0.202  -1.180  0.00  0.00    +0.000 C 
ATOM     11  C   UNL     1      -1.044  -0.091  -0.470  0.00  0.00    +0.000 A 
ATOM     12  C   UNL     1      -0.230  -1.129  -0.019  0.00  0.00    +0.000 A 
ATOM     13  S   UNL     1       1.210  -0.443   0.659  0.00  0.00    +0.000 S 
ATOM     14  C   UNL     1       0.610   1.124   0.350  0.00  0.00    +0.000 A 
ATOM     15  N   UNL     1      -0.561   1.190  -0.239  0.00  0.00    +0.000 NA
ENDBRANCH   1  12
TORSDOF 2
