REMARK  Name = *****
REMARK  4 active torsions:
REMARK  status: ('A' for Active; 'I' for Inactive)
REMARK    1  A    between atoms: N_4  and  C_7
REMARK    2  A    between atoms: C_7  and  C_9
REMARK    3  A    between atoms: C_9  and  C_10
REMARK    4  A    between atoms: C_10  and  C_11
REMARK                            x       y       z     vdW  Elec       q    Type
REMARK                         _______ _______ _______ _____ _____    ______ ____
ROOT
ATOM      1  C   UNL     1       1.998   0.156   1.469  0.00  0.00    +0.000 C 
ATOM      2  S   UNL     1       2.310   1.590   2.305  0.00  0.00    +0.000 S 
ENDROOT
BRANCH   1   6
ATOM      3  C   UNL     1       0.677   0.422  -2.410  0.00  0.00    +0.000 C 
ATOM      4  C   UNL     1       1.423  -0.789  -1.845  0.00  0.00    +0.000 C 
ATOM      5  C   UNL     1       0.930  -1.133  -0.439  0.00  0.00    +0.000 C 
ATOM      6  N   UNL     1       1.048   0.043   0.436  0.00  0.00    +0.000 N 
ATOM      7  C   UNL     1       0.236   1.175  -0.046  0.00  0.00    +0.000 C 
ATOM      8  C   UNL     1       0.706   1.601  -1.437  0.00  0.00    +0.000 C 
ENDBRANCH   1   6
BRANCH   1   9
ATOM      9  C   UNL     1       2.771  -1.131   1.813  0.00  0.00    +0.000 C 
BRANCH   9  10
ATOM     10  C   UNL     1       3.741  -1.117   3.000  0.00  0.00    +0.000 C 
BRANCH  10  11
ATOM     11  C   UNL     1       4.379  -2.473   3.200  0.00  0.00    +0.000 A 
ATOM     12  C   UNL     1       5.574  -2.799   2.545  0.00  0.00    +0.000 A 
ATOM     13  C   UNL     1       6.151  -4.059   2.714  0.00  0.00    +0.000 A 
ATOM     14  C   UNL     1       5.537  -5.003   3.535  0.00  0.00    +0.000 A 
ATOM     15  C   UNL     1       4.346  -4.690   4.187  0.00  0.00    +0.000 A 
ATOM     16  C   UNL     1       3.768  -3.431   4.019  0.00  0.00    +0.000 A 
ENDBRANCH  10  11
ENDBRANCH   9  10
ENDBRANCH   1   9
TORSDOF 4
