REMARK  Name = *****
REMARK  4 active torsions:
REMARK  status: ('A' for Active; 'I' for Inactive)
REMARK    1  A    between atoms: C_1  and  C_2
REMARK    2  A    between atoms: N_8  and  C_18
REMARK    3  A    between atoms: C_10  and  C_11
REMARK    4  A    between atoms: C_11  and  C_12
REMARK                            x       y       z     vdW  Elec       q    Type
REMARK                         _______ _______ _______ _____ _____    ______ ____
ROOT
ATOM      1  C   UNL     1       0.925   0.215   0.207  0.00  0.00    +0.000 C 
ATOM      2  C   UNL     1       2.422   0.176   0.120  0.00  0.00    +0.000 A 
ATOM      3  C   UNL     1       3.103  -1.051   0.073  0.00  0.00    +0.000 A 
ATOM      4  C   UNL     1       4.511  -1.082  -0.032  0.00  0.00    +0.000 A 
ATOM      5  C   UNL     1       5.202   0.131  -0.087  0.00  0.00    +0.000 A 
ATOM      6  C   UNL     1       4.541   1.369  -0.044  0.00  0.00    +0.000 A 
ATOM      7  C   UNL     1       3.147   1.369   0.056  0.00  0.00    +0.000 A 
ATOM      8  N   UNL     1       6.541  -0.175  -0.184  0.00  0.00    +0.000 N 
ATOM      9  C   UNL     1       6.721  -1.532  -0.174  0.00  0.00    +0.000 A 
ATOM     10  C   UNL     1       5.480  -2.139  -0.101  0.00  0.00    +0.000 A 
ATOM     11  C   UNL     1       7.611   0.793  -0.273  0.00  0.00    +0.000 C 
ENDROOT
BRANCH  10  12
ATOM     12  C   UNL     1       5.212  -3.609  -0.056  0.00  0.00    +0.000 C 
BRANCH  12  13
ATOM     13  C   UNL     1       5.174  -4.087  -1.488  0.00  0.00    +0.000 A 
ATOM     14  C   UNL     1       6.343  -4.535  -2.124  0.00  0.00    +0.000 A 
ATOM     15  C   UNL     1       6.308  -4.981  -3.446  0.00  0.00    +0.000 A 
ATOM     16  C   UNL     1       5.105  -4.985  -4.150  0.00  0.00    +0.000 A 
ATOM     17  C   UNL     1       3.938  -4.541  -3.533  0.00  0.00    +0.000 A 
ATOM     18  C   UNL     1       3.971  -4.094  -2.211  0.00  0.00    +0.000 A 
ENDBRANCH  12  13
ENDBRANCH  10  12
TORSDOF 2
