REMARK  Name = *****
REMARK  2 active torsions:
REMARK  status: ('A' for Active; 'I' for Inactive)
REMARK    1  A    between atoms: C_4  and  C_7
REMARK    2  A    between atoms: N_8  and  C_9
REMARK                            x       y       z     vdW  Elec       q    Type
REMARK                         _______ _______ _______ _____ _____    ______ ____
ROOT
ATOM      1  C   UNL     1      -2.902   0.267  -0.186  0.00  0.00    +0.000 C 
ATOM      2  N   UNL     1      -3.647  -0.618  -0.770  0.00  0.00    +0.000 NA
ENDROOT
BRANCH   1   6
ATOM      3  C   UNL     1       1.328  -0.148   0.147  0.00  0.00    +0.000 A 
ATOM      4  C   UNL     1       0.586  -1.143  -0.491  0.00  0.00    +0.000 A 
ATOM      5  C   UNL     1      -0.799  -1.017  -0.605  0.00  0.00    +0.000 A 
ATOM      6  C   UNL     1      -1.438   0.109  -0.079  0.00  0.00    +0.000 A 
ATOM      7  C   UNL     1      -0.697   1.107   0.561  0.00  0.00    +0.000 A 
ATOM      8  C   UNL     1       0.688   0.975   0.672  0.00  0.00    +0.000 A 
ENDBRANCH   1   6
BRANCH   2   9
ATOM      9  C   UNL     1      -5.020  -0.335  -0.797  0.00  0.00    +0.000 A 
ATOM     10  C   UNL     1      -5.571   0.391  -1.856  0.00  0.00    +0.000 A 
ATOM     11  C   UNL     1      -6.940   0.664  -1.889  0.00  0.00    +0.000 A 
ATOM     12  C   UNL     1      -7.767   0.203  -0.865  0.00  0.00    +0.000 A 
ATOM     13  C   UNL     1      -7.226  -0.536   0.188  0.00  0.00    +0.000 A 
ATOM     14  C   UNL     1      -5.857  -0.807   0.217  0.00  0.00    +0.000 A 
ENDBRANCH   2   9
TORSDOF 2
