REMARK  Name = *****
REMARK  5 active torsions:
REMARK  status: ('A' for Active; 'I' for Inactive)
REMARK    1  A    between atoms: C_1  and  C_2
REMARK    2  A    between atoms: C_4  and  C_16
REMARK    3  A    between atoms: C_6  and  O_8
REMARK    4  A    between atoms: O_8  and  C_9
REMARK    5  A    between atoms: C_9  and  C_11
REMARK                            x       y       z     vdW  Elec       q    Type
REMARK                         _______ _______ _______ _____ _____    ______ ____
ROOT
ATOM      1  C   UNL     1       1.038   0.038   0.260  0.00  0.00    +0.000 C 
ATOM      2  C   UNL     1       2.547  -0.108   0.044  0.00  0.00    +0.000 C 
ATOM      3  C   UNL     1       3.087   0.945  -0.936  0.00  0.00    +0.000 C 
ATOM      4  C   UNL     1       2.700   0.668  -2.397  0.00  0.00    +0.000 C 
ATOM      5  C   UNL     1       3.105  -0.751  -2.810  0.00  0.00    +0.000 C 
ATOM      6  C   UNL     1       2.521  -1.809  -1.869  0.00  0.00    +0.000 C 
ATOM      7  C   UNL     1       2.920  -1.522  -0.418  0.00  0.00    +0.000 C 
ATOM      8  C   UNL     1       3.340   1.701  -3.325  0.00  0.00    +0.000 C 
ENDROOT
BRANCH   6   9
ATOM      9  O   UNL     1       3.051  -3.105  -2.206  0.00  0.00    +0.000 OA
BRANCH   9  10
ATOM     10  C   UNL     1       2.425  -3.769  -3.224  0.00  0.00    +0.000 C 
ATOM     11  O   UNL     1       1.466  -3.325  -3.844  0.00  0.00    +0.000 OA
BRANCH  10  12
ATOM     12  C   UNL     1       3.073  -5.051  -3.435  0.00  0.00    +0.000 A 
ATOM     13  C   UNL     1       4.150  -5.615  -2.774  0.00  0.00    +0.000 A 
ATOM     14  C   UNL     1       4.491  -6.904  -3.279  0.00  0.00    +0.000 A 
ATOM     15  C   UNL     1       3.666  -7.285  -4.312  0.00  0.00    +0.000 A 
ATOM     16  S   UNL     1       2.490  -6.096  -4.665  0.00  0.00    +0.000 S 
ENDBRANCH  10  12
ENDBRANCH   9  10
ENDBRANCH   6   9
TORSDOF 3
