REMARK  Name = *****
REMARK  4 active torsions:
REMARK  status: ('A' for Active; 'I' for Inactive)
REMARK    1  A    between atoms: C_4  and  N_7
REMARK    2  A    between atoms: N_7  and  C_8
REMARK    3  A    between atoms: C_8  and  S_9
REMARK    4  A    between atoms: S_9  and  C_10
REMARK                            x       y       z     vdW  Elec       q    Type
REMARK                         _______ _______ _______ _____ _____    ______ ____
ROOT
ATOM      1  C   UNL     1       3.381  -1.431  -0.382  0.00  0.00    +0.000 C 
ENDROOT
BRANCH   1   2
ATOM      2  N   UNL     1       2.710  -0.357  -0.595  0.00  0.00    +0.000 NA
BRANCH   2   6
ATOM      3  C   UNL     1      -1.422   0.547   0.009  0.00  0.00    +0.000 C 
ATOM      4  C   UNL     1      -1.033  -0.920  -0.144  0.00  0.00    +0.000 C 
ATOM      5  C   UNL     1       0.366  -1.072  -0.733  0.00  0.00    +0.000 C 
ATOM      6  C   UNL     1       1.411  -0.307   0.089  0.00  0.00    +0.000 C 
ATOM      7  C   UNL     1       1.015   1.167   0.233  0.00  0.00    +0.000 C 
ATOM      8  C   UNL     1      -0.386   1.321   0.819  0.00  0.00    +0.000 C 
ENDBRANCH   2   6
ENDBRANCH   1   2
BRANCH   1   9
ATOM      9  S   UNL     1       4.939  -1.626  -1.155  0.00  0.00    +0.000 S 
BRANCH   9  10
ATOM     10  C   UNL     1       4.764  -3.297  -1.746  0.00  0.00    +0.000 A 
ATOM     11  C   UNL     1       3.802  -3.612  -2.711  0.00  0.00    +0.000 A 
ATOM     12  C   UNL     1       3.667  -4.924  -3.169  0.00  0.00    +0.000 A 
ATOM     13  C   UNL     1       4.498  -5.925  -2.669  0.00  0.00    +0.000 A 
ATOM     14  C   UNL     1       5.466  -5.615  -1.714  0.00  0.00    +0.000 A 
ATOM     15  C   UNL     1       5.602  -4.303  -1.255  0.00  0.00    +0.000 A 
ENDBRANCH   9  10
ENDBRANCH   1   9
TORSDOF 4
