REMARK  Name = *****
REMARK  4 active torsions:
REMARK  status: ('A' for Active; 'I' for Inactive)
REMARK    1  A    between atoms: C_1  and  C_2
REMARK    2  A    between atoms: C_2  and  C_8
REMARK    3  A    between atoms: C_8  and  C_9
REMARK    4  A    between atoms: C_9  and  C_10
REMARK                            x       y       z     vdW  Elec       q    Type
REMARK                         _______ _______ _______ _____ _____    ______ ____
ROOT
ATOM      1  C   UNL     1       1.106   0.100   0.012  0.00  0.00    +0.000 C 
ATOM      2  C   UNL     1       2.643   0.058   0.052  0.00  0.00    +0.000 C 
ATOM      3  C   UNL     1       3.100  -1.234   0.753  0.00  0.00    +0.000 C 
ATOM      4  S   UNL     1       4.515  -0.761   1.792  0.00  0.00    +0.000 S 
ATOM      5  C   UNL     1       4.129   0.938   1.750  0.00  0.00    +0.000 C 
ATOM      6  S   UNL     1       4.858   2.139   2.621  0.00  0.00    +0.000 S 
ATOM      7  N   UNL     1       3.114   1.170   0.865  0.00  0.00    +0.000 N 
ATOM      8  H   UNL     1       2.713   2.064   0.780  0.00  0.00    +0.000 HD
ENDROOT
BRANCH   2   9
ATOM      9  C   UNL     1       3.162   0.178  -1.405  0.00  0.00    +0.000 C 
BRANCH   9  10
ATOM     10  C   UNL     1       4.684   0.133  -1.589  0.00  0.00    +0.000 C 
BRANCH  10  11
ATOM     11  C   UNL     1       5.060   0.295  -3.043  0.00  0.00    +0.000 A 
ATOM     12  C   UNL     1       5.265   1.571  -3.585  0.00  0.00    +0.000 A 
ATOM     13  C   UNL     1       5.593   1.722  -4.934  0.00  0.00    +0.000 A 
ATOM     14  C   UNL     1       5.715   0.601  -5.752  0.00  0.00    +0.000 A 
ATOM     15  C   UNL     1       5.509  -0.672  -5.224  0.00  0.00    +0.000 A 
ATOM     16  C   UNL     1       5.181  -0.825  -3.876  0.00  0.00    +0.000 A 
ENDBRANCH  10  11
ENDBRANCH   9  10
ENDBRANCH   2   9
TORSDOF 3
