REMARK  Name = *****
REMARK  5 active torsions:
REMARK  status: ('A' for Active; 'I' for Inactive)
REMARK    1  A    between atoms: C_1  and  C_2
REMARK    2  A    between atoms: C_5  and  S_8
REMARK    3  A    between atoms: S_8  and  C_9
REMARK    4  A    between atoms: C_9  and  C_10
REMARK    5  A    between atoms: C_11  and  C_16
REMARK                            x       y       z     vdW  Elec       q    Type
REMARK                         _______ _______ _______ _____ _____    ______ ____
ROOT
ATOM      1  S   UNL     1      -3.719  -0.077   0.152  0.00  0.00    +0.000 S 
ENDROOT
BRANCH   1   6
ATOM      2  C   UNL     1       2.390   0.006  -0.042  0.00  0.00    +0.000 C 
ATOM      3  C   UNL     1       0.891   0.028  -0.005  0.00  0.00    +0.000 A 
ATOM      4  C   UNL     1       0.187   1.234   0.042  0.00  0.00    +0.000 A 
ATOM      5  C   UNL     1      -1.213   1.243   0.087  0.00  0.00    +0.000 A 
ATOM      6  C   UNL     1      -1.936   0.046   0.081  0.00  0.00    +0.000 A 
ATOM      7  C   UNL     1      -1.224  -1.160   0.035  0.00  0.00    +0.000 A 
ATOM      8  C   UNL     1       0.174  -1.171  -0.008  0.00  0.00    +0.000 A 
ENDBRANCH   1   6
BRANCH   1   9
ATOM      9  C   UNL     1      -4.273   1.642  -0.070  0.00  0.00    +0.000 C 
BRANCH   9  10
ATOM     10  C   UNL     1      -5.763   1.679  -0.115  0.00  0.00    +0.000 A 
ATOM     11  C   UNL     1      -6.590   1.740  -1.138  0.00  0.00    +0.000 A 
ATOM     12  O   UNL     1      -7.907   1.790  -0.722  0.00  0.00    +0.000 OA
ATOM     13  C   UNL     1      -7.766   1.762   0.656  0.00  0.00    +0.000 A 
ATOM     14  O   UNL     1      -8.718   1.801   1.425  0.00  0.00    +0.000 OA
ATOM     15  O   UNL     1      -6.450   1.705   1.087  0.00  0.00    +0.000 OA
ATOM     16  C   UNL     1      -6.331   1.745  -2.599  0.00  0.00    +0.000 C 
ENDBRANCH   9  10
ENDBRANCH   1   9
TORSDOF 3
