REMARK  Name = *****
REMARK  4 active torsions:
REMARK  status: ('A' for Active; 'I' for Inactive)
REMARK    1  A    between atoms: C_4  and  C_6
REMARK    2  A    between atoms: C_6  and  C_7
REMARK    3  A    between atoms: C_7  and  O_9
REMARK    4  A    between atoms: O_9  and  C_10
REMARK                            x       y       z     vdW  Elec       q    Type
REMARK                         _______ _______ _______ _____ _____    ______ ____
ROOT
ATOM      1  O   UNL     1       0.801  -3.739   1.203  0.00  0.00    +0.000 OA
ENDROOT
BRANCH   1   2
ATOM      2  C   UNL     1       1.907  -4.534   1.513  0.00  0.00    +0.000 A 
ATOM      3  C   UNL     1       2.142  -5.732   0.829  0.00  0.00    +0.000 A 
ATOM      4  C   UNL     1       3.237  -6.521   1.184  0.00  0.00    +0.000 A 
ATOM      5  C   UNL     1       4.080  -6.117   2.224  0.00  0.00    +0.000 A 
ATOM      6  C   UNL     1       3.821  -4.928   2.911  0.00  0.00    +0.000 A 
ATOM      7  C   UNL     1       2.731  -4.132   2.566  0.00  0.00    +0.000 A 
ATOM      8 CL   UNL     1       4.856  -4.446   4.198  0.00  0.00    +0.000 Cl
ATOM      9 CL   UNL     1       1.101  -6.268  -0.435  0.00  0.00    +0.000 Cl
ENDBRANCH   1   2
BRANCH   1  10
ATOM     10  C   UNL     1       1.074  -2.827   0.188  0.00  0.00    +0.000 C 
ATOM     11  O   UNL     1       2.164  -2.637  -0.341  0.00  0.00    +0.000 OA
BRANCH  10  12
ATOM     12  C   UNL     1      -0.187  -2.082  -0.177  0.00  0.00    +0.000 C 
BRANCH  12  16
ATOM     13  C   UNL     1      -1.795  -3.991  -3.020  0.00  0.00    +0.000 A 
ATOM     14  C   UNL     1      -2.733  -4.374  -2.089  0.00  0.00    +0.000 A 
ATOM     15  S   UNL     1      -2.416  -3.708  -0.547  0.00  0.00    +0.000 S 
ATOM     16  C   UNL     1      -1.011  -2.907  -1.112  0.00  0.00    +0.000 A 
ATOM     17  C   UNL     1      -0.801  -3.140  -2.457  0.00  0.00    +0.000 A 
ENDBRANCH  12  16
ENDBRANCH  10  12
ENDBRANCH   1  10
TORSDOF 4
