REMARK  Name = *****
REMARK  4 active torsions:
REMARK  status: ('A' for Active; 'I' for Inactive)
REMARK    1  A    between atoms: C_6  and  C_7
REMARK    2  A    between atoms: C_7  and  O_8
REMARK    3  A    between atoms: O_8  and  C_9
REMARK    4  A    between atoms: C_12  and  C_15
REMARK                            x       y       z     vdW  Elec       q    Type
REMARK                         _______ _______ _______ _____ _____    ______ ____
ROOT
ATOM      1  O   UNL     1       4.417   1.366   0.206  0.00  0.00    +0.000 OA
ENDROOT
BRANCH   1   2
ATOM      2  C   UNL     1       5.772   1.542   0.197  0.00  0.00    +0.000 A 
ATOM      3  C   UNL     1       6.732   0.539   0.086  0.00  0.00    +0.000 A 
ATOM      4  C   UNL     1       8.094   0.868   0.091  0.00  0.00    +0.000 A 
ATOM      5  C   UNL     1       8.512   2.202   0.207  0.00  0.00    +0.000 A 
ATOM      6  C   UNL     1       7.544   3.206   0.319  0.00  0.00    +0.000 A 
ATOM      7  C   UNL     1       6.185   2.872   0.313  0.00  0.00    +0.000 A 
BRANCH   5   8
ATOM      8  C   UNL     1       9.982   2.506   0.207  0.00  0.00    +0.000 C 
ATOM      9  O   UNL     1      10.753   1.552   0.109  0.00  0.00    +0.000 OA
ATOM     10 CL   UNL     1      10.532   4.163   0.342  0.00  0.00    +0.000 Cl
ENDBRANCH   5   8
ENDBRANCH   1   2
BRANCH   1  11
ATOM     11  C   UNL     1       3.931   0.030   0.079  0.00  0.00    +0.000 C 
BRANCH  11  17
ATOM     12  C   UNL     1       1.681  -0.625   1.042  0.00  0.00    +0.000 A 
ATOM     13  C   UNL     1       0.284  -0.595   1.022  0.00  0.00    +0.000 A 
ATOM     14  C   UNL     1      -0.381   0.128   0.033  0.00  0.00    +0.000 A 
ATOM     15  C   UNL     1       0.339   0.820  -0.937  0.00  0.00    +0.000 A 
ATOM     16  C   UNL     1       1.735   0.790  -0.918  0.00  0.00    +0.000 A 
ATOM     17  C   UNL     1       2.420   0.068   0.073  0.00  0.00    +0.000 A 
ATOM     18 CL   UNL     1      -2.101   0.163   0.011  0.00  0.00    +0.000 Cl
ENDBRANCH  11  17
ENDBRANCH   1  11
TORSDOF 4
