REMARK  Name = *****
REMARK  4 active torsions:
REMARK  status: ('A' for Active; 'I' for Inactive)
REMARK    1  A    between atoms: C_4  and  C_7
REMARK    2  A    between atoms: C_7  and  S_8
REMARK    3  A    between atoms: S_8  and  C_9
REMARK    4  A    between atoms: C_14  and  S_15
REMARK                            x       y       z     vdW  Elec       q    Type
REMARK                         _______ _______ _______ _____ _____    ______ ____
ROOT
ATOM      1  S   UNL     1      -3.771  -1.149  -0.864  0.00  0.00    +0.000 S 
ENDROOT
BRANCH   1   2
ATOM      2  C   UNL     1      -5.476  -0.598  -0.810  0.00  0.00    +0.000 A 
ATOM      3  C   UNL     1      -6.264  -1.043   0.262  0.00  0.00    +0.000 A 
ATOM      4  C   UNL     1      -7.598  -0.650   0.376  0.00  0.00    +0.000 A 
ATOM      5  C   UNL     1      -8.159   0.189  -0.582  0.00  0.00    +0.000 A 
ATOM      6  C   UNL     1      -7.388   0.630  -1.660  0.00  0.00    +0.000 A 
ATOM      7  C   UNL     1      -6.048   0.238  -1.789  0.00  0.00    +0.000 A 
BRANCH   7   8
ATOM      8  S   UNL     1      -5.150   0.851  -3.212  0.00  0.00    +0.000 S 
ATOM      9  H   UNL     1      -3.875   0.378  -3.181  0.00  0.00    +0.000 HD
ENDBRANCH   7   8
ENDBRANCH   1   2
BRANCH   1  10
ATOM     10  C   UNL     1      -3.012   0.242   0.037  0.00  0.00    +0.000 C 
BRANCH  10  14
ATOM     11  C   UNL     1       1.280  -0.166   0.181  0.00  0.00    +0.000 A 
ATOM     12  C   UNL     1       0.680   0.525  -0.870  0.00  0.00    +0.000 A 
ATOM     13  C   UNL     1      -0.709   0.659  -0.916  0.00  0.00    +0.000 A 
ATOM     14  C   UNL     1      -1.511   0.107   0.093  0.00  0.00    +0.000 A 
ATOM     15  C   UNL     1      -0.896  -0.594   1.141  0.00  0.00    +0.000 A 
ATOM     16  C   UNL     1       0.492  -0.726   1.185  0.00  0.00    +0.000 A 
ENDBRANCH  10  14
ENDBRANCH   1  10
TORSDOF 4
