REMARK  Name = *****
REMARK  4 active torsions:
REMARK  status: ('A' for Active; 'I' for Inactive)
REMARK    1  A    between atoms: C_4  and  S_7
REMARK    2  A    between atoms: S_7  and  C_8
REMARK    3  A    between atoms: C_8  and  C_10
REMARK    4  A    between atoms: C_10  and  C_11
REMARK                            x       y       z     vdW  Elec       q    Type
REMARK                         _______ _______ _______ _____ _____    ______ ____
ROOT
ATOM      1  C   UNL     1      -3.880  -0.940  -0.786  0.00  0.00    +0.000 C 
ATOM      2  O   UNL     1      -3.191  -1.698  -1.462  0.00  0.00    +0.000 OA
ENDROOT
BRANCH   1   3
ATOM      3  S   UNL     1      -3.189   0.488  -0.009  0.00  0.00    +0.000 S 
BRANCH   3   7
ATOM      4  C   UNL     1      -0.568  -1.504   3.177  0.00  0.00    +0.000 A 
ATOM      5  C   UNL     1      -0.230  -1.623   1.830  0.00  0.00    +0.000 A 
ATOM      6  C   UNL     1      -1.026  -1.020   0.854  0.00  0.00    +0.000 A 
ATOM      7  C   UNL     1      -2.167  -0.299   1.220  0.00  0.00    +0.000 A 
ATOM      8  C   UNL     1      -2.495  -0.176   2.574  0.00  0.00    +0.000 A 
ATOM      9  C   UNL     1      -1.700  -0.781   3.549  0.00  0.00    +0.000 A 
ENDBRANCH   3   7
ENDBRANCH   1   3
BRANCH   1  10
ATOM     10  C   UNL     1      -5.365  -1.131  -0.576  0.00  0.00    +0.000 C 
BRANCH  10  11
ATOM     11  C   UNL     1      -5.621  -1.802   0.739  0.00  0.00    +0.000 A 
ATOM     12  C   UNL     1      -5.245  -3.068   1.143  0.00  0.00    +0.000 A 
ATOM     13  C   UNL     1      -5.663  -3.358   2.474  0.00  0.00    +0.000 A 
ATOM     14  C   UNL     1      -6.354  -2.309   3.037  0.00  0.00    +0.000 A 
ATOM     15  S   UNL     1      -6.495  -0.985   1.966  0.00  0.00    +0.000 S 
ENDBRANCH  10  11
ENDBRANCH   1  10
TORSDOF 4
