REMARK  Name = *****
REMARK  4 active torsions:
REMARK  status: ('A' for Active; 'I' for Inactive)
REMARK    1  A    between atoms: C_1  and  C_2
REMARK    2  A    between atoms: C_5  and  N_8
REMARK    3  A    between atoms: N_8  and  N_10
REMARK    4  A    between atoms: N_10  and  C_11
REMARK                            x       y       z     vdW  Elec       q    Type
REMARK                         _______ _______ _______ _____ _____    ______ ____
ROOT
ATOM      1  N   UNL     1      -3.210  -0.100   0.214  0.00  0.00    +0.000 N 
ATOM      2  O   UNL     1      -3.673  -1.138   0.643  0.00  0.00    +0.000 OA
ENDROOT
BRANCH   1   7
ATOM      3  C   UNL     1       2.507   0.365  -0.128  0.00  0.00    +0.000 C 
ATOM      4  C   UNL     1       1.012   0.254  -0.065  0.00  0.00    +0.000 A 
ATOM      5  C   UNL     1       0.380  -0.962  -0.360  0.00  0.00    +0.000 A 
ATOM      6  C   UNL     1      -1.008  -1.078  -0.266  0.00  0.00    +0.000 A 
ATOM      7  C   UNL     1      -1.769   0.025   0.128  0.00  0.00    +0.000 A 
ATOM      8  C   UNL     1      -1.150   1.237   0.450  0.00  0.00    +0.000 A 
ATOM      9  C   UNL     1       0.239   1.346   0.355  0.00  0.00    +0.000 A 
ENDBRANCH   1   7
BRANCH   1  10
ATOM     10  N   UNL     1      -4.033   0.960  -0.251  0.00  0.00    +0.000 N 
ATOM     11  H   UNL     1      -3.542   1.735  -0.609  0.00  0.00    +0.000 HD
BRANCH  10  12
ATOM     12  C   UNL     1      -5.431   1.086  -0.284  0.00  0.00    +0.000 A 
ATOM     13  C   UNL     1      -6.306   0.159   0.289  0.00  0.00    +0.000 A 
ATOM     14  C   UNL     1      -7.692   0.344   0.237  0.00  0.00    +0.000 A 
ATOM     15  C   UNL     1      -8.227   1.467  -0.387  0.00  0.00    +0.000 A 
ATOM     16  C   UNL     1      -7.374   2.406  -0.957  0.00  0.00    +0.000 A 
ATOM     17  C   UNL     1      -5.990   2.216  -0.903  0.00  0.00    +0.000 A 
ENDBRANCH  10  12
ENDBRANCH   1  10
TORSDOF 3
