REMARK  Name = *****
REMARK  7 active torsions:
REMARK  status: ('A' for Active; 'I' for Inactive)
REMARK    1  A    between atoms: C_1  and  C_2
REMARK    2  A    between atoms: C_2  and  O_3
REMARK    3  A    between atoms: O_3  and  C_4
REMARK    4  A    between atoms: C_6  and  S_11
REMARK    5  A    between atoms: C_8  and  C_10
REMARK    6  A    between atoms: S_11  and  C_12
REMARK    7  A    between atoms: C_12  and  C_13
REMARK                            x       y       z     vdW  Elec       q    Type
REMARK                         _______ _______ _______ _____ _____    ______ ____
ROOT
ATOM      1  C   UNL     1       4.526   1.381   0.816  0.00  0.00    +0.000 A 
ATOM      2  N   UNL     1       5.054   1.877   1.944  0.00  0.00    +0.000 NA
ATOM      3  C   UNL     1       6.364   2.153   1.905  0.00  0.00    +0.000 A 
ATOM      4  N   UNL     1       7.159   1.960   0.838  0.00  0.00    +0.000 NA
ATOM      5  C   UNL     1       6.586   1.455  -0.273  0.00  0.00    +0.000 A 
ATOM      6  C   UNL     1       5.245   1.148  -0.332  0.00  0.00    +0.000 A 
ATOM      7  C   UNL     1       7.467   1.231  -1.464  0.00  0.00    +0.000 C 
ENDROOT
BRANCH   1   8
ATOM      8  O   UNL     1       3.179   1.076   0.758  0.00  0.00    +0.000 OA
BRANCH   8  10
ATOM      9  C   UNL     1       1.039   0.914   1.793  0.00  0.00    +0.000 C 
ATOM     10  C   UNL     1       2.498   1.282   1.997  0.00  0.00    +0.000 C 
ENDBRANCH   8  10
ENDBRANCH   1   8
BRANCH   3  11
ATOM     11  S   UNL     1       7.079   2.795   3.396  0.00  0.00    +0.000 S 
BRANCH  11  12
ATOM     12  C   UNL     1       8.525   3.638   2.693  0.00  0.00    +0.000 C 
BRANCH  12  13
ATOM     13  C   UNL     1       9.309   4.372   3.754  0.00  0.00    +0.000 A 
ATOM     14  C   UNL     1      10.370   3.739   4.420  0.00  0.00    +0.000 A 
ATOM     15  C   UNL     1      11.092   4.414   5.406  0.00  0.00    +0.000 A 
ATOM     16  C   UNL     1      10.758   5.725   5.741  0.00  0.00    +0.000 A 
ATOM     17  C   UNL     1       9.700   6.361   5.094  0.00  0.00    +0.000 A 
ATOM     18  C   UNL     1       8.977   5.688   4.107  0.00  0.00    +0.000 A 
ENDBRANCH  12  13
ENDBRANCH  11  12
ENDBRANCH   3  11
TORSDOF 5
