REMARK  Name = *****
REMARK  4 active torsions:
REMARK  status: ('A' for Active; 'I' for Inactive)
REMARK    1  A    between atoms: C_4  and  O_7
REMARK    2  A    between atoms: O_7  and  C_8
REMARK    3  A    between atoms: C_8  and  C_9
REMARK    4  A    between atoms: C_12  and  C_15
REMARK                            x       y       z     vdW  Elec       q    Type
REMARK                         _______ _______ _______ _____ _____    ______ ____
ROOT
ATOM      1  C   UNL     1      -5.024  -0.150  -0.445  0.00  0.00    +0.000 A 
ATOM      2  C   UNL     1      -5.523   0.240  -1.695  0.00  0.00    +0.000 A 
ATOM      3  C   UNL     1      -6.820   0.747  -1.815  0.00  0.00    +0.000 A 
ATOM      4  C   UNL     1      -7.639   0.884  -0.685  0.00  0.00    +0.000 A 
ATOM      5  C   UNL     1      -7.130   0.511   0.568  0.00  0.00    +0.000 A 
ATOM      6  C   UNL     1      -5.834   0.004   0.688  0.00  0.00    +0.000 A 
ENDROOT
BRANCH   4   7
ATOM      7  C   UNL     1      -9.042   1.425  -0.797  0.00  0.00    +0.000 C 
ATOM      8  F   UNL     1      -9.401   1.757  -2.069  0.00  0.00    +0.000 F 
ATOM      9  F   UNL     1      -9.979   0.533  -0.369  0.00  0.00    +0.000 F 
ATOM     10  F   UNL     1      -9.231   2.550  -0.052  0.00  0.00    +0.000 F 
ENDBRANCH   4   7
BRANCH   1  11
ATOM     11  C   UNL     1      -3.620  -0.690  -0.316  0.00  0.00    +0.000 C 
BRANCH  11  12
ATOM     12  O   UNL     1      -2.739   0.408  -0.101  0.00  0.00    +0.000 OA
BRANCH  12  16
ATOM     13  C   UNL     1       1.363  -0.184   0.315  0.00  0.00    +0.000 A 
ATOM     14  C   UNL     1       0.553  -1.299   0.112  0.00  0.00    +0.000 A 
ATOM     15  C   UNL     1      -0.830  -1.150  -0.032  0.00  0.00    +0.000 A 
ATOM     16  C   UNL     1      -1.408   0.120   0.025  0.00  0.00    +0.000 A 
ATOM     17  C   UNL     1      -0.588   1.233   0.230  0.00  0.00    +0.000 A 
ATOM     18  C   UNL     1       0.792   1.085   0.375  0.00  0.00    +0.000 A 
ENDBRANCH  12  16
ENDBRANCH  11  12
ENDBRANCH   1  11
TORSDOF 4
