REMARK  Name = *****
REMARK  4 active torsions:
REMARK  status: ('A' for Active; 'I' for Inactive)
REMARK    1  A    between atoms: C_4  and  C_7
REMARK    2  A    between atoms: C_7  and  C_17
REMARK    3  A    between atoms: C_8  and  C_9
REMARK    4  A    between atoms: C_9  and  C_10
REMARK                            x       y       z     vdW  Elec       q    Type
REMARK                         _______ _______ _______ _____ _____    ______ ____
ROOT
ATOM      1  C   UNL     1      -2.890   0.377  -0.431  0.00  0.00    +0.000 C 
ATOM      2  C   UNL     1      -3.434   1.565  -0.096  0.00  0.00    +0.000 C 
ENDROOT
BRANCH   1   6
ATOM      3  C   UNL     1       1.302  -0.278   0.184  0.00  0.00    +0.000 A 
ATOM      4  C   UNL     1       0.369  -1.144   0.749  0.00  0.00    +0.000 A 
ATOM      5  C   UNL     1      -0.997  -0.929   0.551  0.00  0.00    +0.000 A 
ATOM      6  C   UNL     1      -1.444   0.159  -0.214  0.00  0.00    +0.000 A 
ATOM      7  C   UNL     1      -0.492   1.021  -0.782  0.00  0.00    +0.000 A 
ATOM      8  C   UNL     1       0.873   0.804  -0.582  0.00  0.00    +0.000 A 
ENDBRANCH   1   6
BRANCH   1   9
ATOM      9  C   UNL     1      -3.673  -0.681  -0.990  0.00  0.00    +0.000 C 
ATOM     10  N   UNL     1      -4.329  -1.526  -1.440  0.00  0.00    +0.000 NA
ENDBRANCH   1   9
BRANCH   2  11
ATOM     11  C   UNL     1      -4.880   1.966  -0.234  0.00  0.00    +0.000 C 
BRANCH  11  12
ATOM     12  C   UNL     1      -5.088   2.934  -1.369  0.00  0.00    +0.000 A 
ATOM     13  C   UNL     1      -5.389   2.473  -2.659  0.00  0.00    +0.000 A 
ATOM     14  C   UNL     1      -5.559   3.378  -3.711  0.00  0.00    +0.000 A 
ATOM     15  C   UNL     1      -5.425   4.748  -3.487  0.00  0.00    +0.000 A 
ATOM     16  C   UNL     1      -5.119   5.216  -2.211  0.00  0.00    +0.000 A 
ATOM     17  C   UNL     1      -4.950   4.310  -1.167  0.00  0.00    +0.000 A 
ATOM     18  F   UNL     1      -4.644   4.779   0.051  0.00  0.00    +0.000 F 
ENDBRANCH  11  12
ENDBRANCH   2  11
TORSDOF 4
