REMARK  Name = *****
REMARK  2 active torsions:
REMARK  status: ('A' for Active; 'I' for Inactive)
REMARK    1  A    between atoms: C_5  and  C_7
REMARK    2  A    between atoms: N_8  and  C_9
REMARK                            x       y       z     vdW  Elec       q    Type
REMARK                         _______ _______ _______ _____ _____    ______ ____
ROOT
ATOM      1  C   UNL     1       1.108  -2.363   0.186  0.00  0.00    +0.000 C 
ATOM      2  N   UNL     1       2.234  -2.520  -0.439  0.00  0.00    +0.000 NA
ENDROOT
BRANCH   2   3
ATOM      3  C   UNL     1       2.892  -3.746  -0.231  0.00  0.00    +0.000 A 
ATOM      4  C   UNL     1       3.690  -4.008   0.899  0.00  0.00    +0.000 A 
ATOM      5  C   UNL     1       4.341  -5.236   1.044  0.00  0.00    +0.000 A 
ATOM      6  C   UNL     1       4.207  -6.205   0.053  0.00  0.00    +0.000 A 
ATOM      7  C   UNL     1       3.433  -5.959  -1.079  0.00  0.00    +0.000 A 
ATOM      8  C   UNL     1       2.784  -4.730  -1.220  0.00  0.00    +0.000 A 
ATOM      9 CL   UNL     1       5.006  -7.719   0.226  0.00  0.00    +0.000 Cl
ATOM     10 CL   UNL     1       3.892  -2.830   2.149  0.00  0.00    +0.000 Cl
ENDBRANCH   2   3
BRANCH   1  15
ATOM     11  C   UNL     1       0.022   1.124  -0.773  0.00  0.00    +0.000 A 
ATOM     12  C   UNL     1      -1.204   1.207  -0.110  0.00  0.00    +0.000 A 
ATOM     13  C   UNL     1      -1.666   0.126   0.642  0.00  0.00    +0.000 A 
ATOM     14  C   UNL     1      -0.898  -1.032   0.728  0.00  0.00    +0.000 A 
ATOM     15  C   UNL     1       0.325  -1.122   0.069  0.00  0.00    +0.000 A 
ATOM     16  C   UNL     1       0.790  -0.040  -0.686  0.00  0.00    +0.000 A 
ATOM     17  F   UNL     1      -1.361  -2.061   1.454  0.00  0.00    +0.000 F 
ENDBRANCH   1  15
TORSDOF 2
