REMARK  Name = *****
REMARK  2 active torsions:
REMARK  status: ('A' for Active; 'I' for Inactive)
REMARK    1  A    between atoms: C_1  and  N_2
REMARK    2  A    between atoms: C_3  and  C_11
REMARK                            x       y       z     vdW  Elec       q    Type
REMARK                         _______ _______ _______ _____ _____    ______ ____
ROOT
ATOM      1  C   UNL     1      -1.517  -2.442  -0.509  0.00  0.00    +0.000 C 
ATOM      2  N   UNL     1      -1.159  -1.069  -0.169  0.00  0.00    +0.000 N 
ATOM      3  C   UNL     1      -2.063  -0.132   0.075  0.00  0.00    +0.000 C 
ATOM      4  S   UNL     1      -1.324   1.380   0.387  0.00  0.00    +0.000 S 
ATOM      5  C   UNL     1       0.256   0.712   0.229  0.00  0.00    +0.000 A 
ATOM      6  C   UNL     1       1.497   1.352   0.362  0.00  0.00    +0.000 A 
ATOM      7  C   UNL     1       2.653   0.585   0.197  0.00  0.00    +0.000 A 
ATOM      8  C   UNL     1       2.576  -0.774  -0.091  0.00  0.00    +0.000 A 
ATOM      9  C   UNL     1       1.334  -1.408  -0.227  0.00  0.00    +0.000 A 
ATOM     10  C   UNL     1       0.159  -0.646  -0.068  0.00  0.00    +0.000 A 
ENDROOT
BRANCH   3  11
ATOM     11  C   UNL     1      -3.511  -0.284   0.108  0.00  0.00    +0.000 A 
ATOM     12  C   UNL     1      -4.120  -1.021   1.135  0.00  0.00    +0.000 A 
ATOM     13  C   UNL     1      -5.506  -1.189   1.155  0.00  0.00    +0.000 A 
ATOM     14  C   UNL     1      -6.291  -0.620   0.154  0.00  0.00    +0.000 A 
ATOM     15  C   UNL     1      -5.697   0.120  -0.866  0.00  0.00    +0.000 A 
ATOM     16  C   UNL     1      -4.311   0.289  -0.891  0.00  0.00    +0.000 A 
ENDBRANCH   3  11
TORSDOF 1
