REMARK  Name = *****
REMARK  2 active torsions:
REMARK  status: ('A' for Active; 'I' for Inactive)
REMARK    1  A    between atoms: C_2  and  C_11
REMARK    2  A    between atoms: C_3  and  C_4
REMARK                            x       y       z     vdW  Elec       q    Type
REMARK                         _______ _______ _______ _____ _____    ______ ____
ROOT
ATOM      1  C   UNL     1       0.055   0.641   0.098  0.00  0.00    +0.000 C 
ATOM      2  C   UNL     1       0.832  -0.635   0.290  0.00  0.00    +0.000 C 
ATOM      3  C   UNL     1      -0.638  -0.681  -0.106  0.00  0.00    +0.000 C 
ENDROOT
BRANCH   3   4
ATOM      4  C   UNL     1      -1.667  -1.162   0.890  0.00  0.00    +0.000 A 
ATOM      5  C   UNL     1      -2.788  -0.380   1.217  0.00  0.00    +0.000 A 
ATOM      6  C   UNL     1      -3.750  -0.827   2.126  0.00  0.00    +0.000 A 
ATOM      7  C   UNL     1      -3.607  -2.077   2.721  0.00  0.00    +0.000 A 
ATOM      8  C   UNL     1      -2.515  -2.880   2.411  0.00  0.00    +0.000 A 
ATOM      9  C   UNL     1      -1.557  -2.424   1.500  0.00  0.00    +0.000 A 
ATOM     10 BR   UNL     1      -4.905  -2.687   3.951  0.00  0.00    +0.000 Br
ENDBRANCH   3   4
BRANCH   2  11
ATOM     11  C   UNL     1       1.891  -1.038  -0.710  0.00  0.00    +0.000 A 
ATOM     12  C   UNL     1       2.964  -0.185  -1.019  0.00  0.00    +0.000 A 
ATOM     13  C   UNL     1       3.955  -0.561  -1.930  0.00  0.00    +0.000 A 
ATOM     14  C   UNL     1       3.896  -1.806  -2.548  0.00  0.00    +0.000 A 
ATOM     15  C   UNL     1       2.849  -2.675  -2.252  0.00  0.00    +0.000 A 
ATOM     16  C   UNL     1       1.862  -2.293  -1.340  0.00  0.00    +0.000 A 
ENDBRANCH   2  11
TORSDOF 2
