REMARK  Name = *****
REMARK  4 active torsions:
REMARK  status: ('A' for Active; 'I' for Inactive)
REMARK    1  A    between atoms: C_1  and  C_2
REMARK    2  A    between atoms: C_5  and  C_8
REMARK    3  A    between atoms: C_8  and  C_10
REMARK    4  A    between atoms: C_10  and  C_11
REMARK                            x       y       z     vdW  Elec       q    Type
REMARK                         _______ _______ _______ _____ _____    ______ ____
ROOT
ATOM      1  C   UNL     1      -3.276   0.051   0.301  0.00  0.00    +0.000 C 
ATOM      2  O   UNL     1      -4.014  -0.904   0.550  0.00  0.00    +0.000 OA
ENDROOT
BRANCH   1   7
ATOM      3  C   UNL     1       2.454  -0.935   0.242  0.00  0.00    +0.000 C 
ATOM      4  C   UNL     1       0.976  -0.676   0.226  0.00  0.00    +0.000 A 
ATOM      5  C   UNL     1       0.480   0.576  -0.153  0.00  0.00    +0.000 A 
ATOM      6  C   UNL     1      -0.896   0.833  -0.140  0.00  0.00    +0.000 A 
ATOM      7  C   UNL     1      -1.795  -0.160   0.263  0.00  0.00    +0.000 A 
ATOM      8  C   UNL     1      -1.296  -1.410   0.654  0.00  0.00    +0.000 A 
ATOM      9  C   UNL     1       0.078  -1.664   0.642  0.00  0.00    +0.000 A 
ENDBRANCH   1   7
BRANCH   1  10
ATOM     10  C   UNL     1      -3.855   1.427   0.032  0.00  0.00    +0.000 C 
BRANCH  10  11
ATOM     11  C   UNL     1      -3.972   1.776  -1.434  0.00  0.00    +0.000 A 
ATOM     12  C   UNL     1      -4.508   0.862  -2.353  0.00  0.00    +0.000 A 
ATOM     13  C   UNL     1      -4.634   1.202  -3.703  0.00  0.00    +0.000 A 
ATOM     14  C   UNL     1      -4.238   2.463  -4.138  0.00  0.00    +0.000 A 
ATOM     15  C   UNL     1      -3.724   3.390  -3.235  0.00  0.00    +0.000 A 
ATOM     16  C   UNL     1      -3.597   3.050  -1.886  0.00  0.00    +0.000 A 
ATOM     17 CL   UNL     1      -4.393   2.884  -5.799  0.00  0.00    +0.000 Cl
ENDBRANCH  10  11
ENDBRANCH   1  10
TORSDOF 3
