REMARK  Name = *****
REMARK  4 active torsions:
REMARK  status: ('A' for Active; 'I' for Inactive)
REMARK    1  A    between atoms: C_1  and  C_2
REMARK    2  A    between atoms: C_2  and  C_3
REMARK    3  A    between atoms: C_3  and  C_10
REMARK    4  A    between atoms: C_4  and  C_5
REMARK                            x       y       z     vdW  Elec       q    Type
REMARK                         _______ _______ _______ _____ _____    ______ ____
ROOT
ATOM      1  C   UNL     1       2.916  -0.084  -1.339  0.00  0.00    +0.000 C 
ATOM      2  C   UNL     1       2.057  -0.029  -2.377  0.00  0.00    +0.000 C 
ENDROOT
BRANCH   1   3
ATOM      3  C   UNL     1       4.355  -0.183  -1.670  0.00  0.00    +0.000 A 
ATOM      4  C   UNL     1       5.031   0.913  -2.223  0.00  0.00    +0.000 A 
ATOM      5  C   UNL     1       6.388   0.821  -2.539  0.00  0.00    +0.000 A 
ATOM      6  C   UNL     1       7.078  -0.368  -2.309  0.00  0.00    +0.000 A 
ATOM      7  C   UNL     1       6.414  -1.465  -1.764  0.00  0.00    +0.000 A 
ATOM      8  C   UNL     1       5.057  -1.374  -1.445  0.00  0.00    +0.000 A 
ENDBRANCH   1   3
BRANCH   2   9
ATOM      9  C   UNL     1       0.641   0.053  -2.255  0.00  0.00    +0.000 A 
ATOM     10  C   UNL     1      -0.151   0.872  -1.466  0.00  0.00    +0.000 A 
ATOM     11  C   UNL     1      -1.547   0.652  -1.654  0.00  0.00    +0.000 A 
ATOM     12  C   UNL     1      -1.790  -0.317  -2.598  0.00  0.00    +0.000 A 
ATOM     13  S   UNL     1      -0.346  -0.945  -3.257  0.00  0.00    +0.000 S 
ENDBRANCH   2   9
BRANCH   1  15
ATOM     14  C   UNL     1       2.895   1.145   0.866  0.00  0.00    +0.000 C 
ATOM     15  C   UNL     1       2.578  -0.153   0.135  0.00  0.00    +0.000 C 
ENDBRANCH   1  15
TORSDOF 3
