REMARK  Name = *****
REMARK  2 active torsions:
REMARK  status: ('A' for Active; 'I' for Inactive)
REMARK    1  A    between atoms: C_4  and  S_5
REMARK    2  A    between atoms: S_5  and  C_6
REMARK                            x       y       z     vdW  Elec       q    Type
REMARK                         _______ _______ _______ _____ _____    ______ ____
ROOT
ATOM      1  S   UNL     1       3.884  -0.705   0.205  0.00  0.00    +0.000 S 
ENDROOT
BRANCH   1   5
ATOM      2  C   UNL     1      -0.738  -1.018   0.098  0.00  0.00    +0.000 C 
ATOM      3  C   UNL     1       0.693  -0.945   0.624  0.00  0.00    +0.000 C 
ATOM      4  C   UNL     1       1.341   0.185  -0.132  0.00  0.00    +0.000 C 
ATOM      5  C   UNL     1       2.649   0.365  -0.376  0.00  0.00    +0.000 C 
ATOM      6  S   UNL     1       0.158   1.316  -0.756  0.00  0.00    +0.000 S 
ATOM      7  C   UNL     1      -1.247   0.409  -0.038  0.00  0.00    +0.000 C 
ENDBRANCH   1   5
BRANCH   1   8
ATOM      8  C   UNL     1       5.311   0.099  -0.500  0.00  0.00    +0.000 A 
ATOM      9  C   UNL     1       5.976   1.105   0.209  0.00  0.00    +0.000 A 
ATOM     10  C   UNL     1       7.095   1.731  -0.343  0.00  0.00    +0.000 A 
ATOM     11  C   UNL     1       7.557   1.350  -1.602  0.00  0.00    +0.000 A 
ATOM     12  C   UNL     1       6.903   0.343  -2.310  0.00  0.00    +0.000 A 
ATOM     13  C   UNL     1       5.783  -0.284  -1.759  0.00  0.00    +0.000 A 
ENDBRANCH   1   8
TORSDOF 2
