REMARK  Name = *****
REMARK  4 active torsions:
REMARK  status: ('A' for Active; 'I' for Inactive)
REMARK    1  A    between atoms: C_1  and  C_2
REMARK    2  A    between atoms: C_6  and  O_7
REMARK    3  A    between atoms: O_7  and  C_8
REMARK    4  A    between atoms: C_8  and  C_10
REMARK                            x       y       z     vdW  Elec       q    Type
REMARK                         _______ _______ _______ _____ _____    ______ ____
ROOT
ATOM      1  C   UNL     1      -1.334   0.229   2.635  0.00  0.00    +0.000 C 
ATOM      2  O   UNL     1      -1.685  -0.820   2.123  0.00  0.00    +0.000 OA
ENDROOT
BRANCH   1   3
ATOM      3  C   UNL     1      -1.572   0.545   4.071  0.00  0.00    +0.000 A 
ATOM      4  C   UNL     1      -2.230  -0.413   4.856  0.00  0.00    +0.000 A 
ATOM      5  C   UNL     1      -2.482  -0.165   6.207  0.00  0.00    +0.000 A 
ATOM      6  C   UNL     1      -2.078   1.039   6.781  0.00  0.00    +0.000 A 
ATOM      7  C   UNL     1      -1.422   1.997   6.008  0.00  0.00    +0.000 A 
ATOM      8  C   UNL     1      -1.168   1.753   4.656  0.00  0.00    +0.000 A 
ENDBRANCH   1   3
BRANCH   1   9
ATOM      9  O   UNL     1      -0.700   1.258   2.026  0.00  0.00    +0.000 OA
BRANCH   9  15
ATOM     10  C   UNL     1       1.825   0.036   1.394  0.00  0.00    +0.000 C 
ATOM     11  C   UNL     1       0.842   0.315   0.270  0.00  0.00    +0.000 C 
ATOM     12  C   UNL     1       0.203  -0.947  -0.302  0.00  0.00    +0.000 C 
ATOM     13  C   UNL     1      -1.013  -0.431  -1.060  0.00  0.00    +0.000 C 
ATOM     14  C   UNL     1      -1.493   0.815  -0.312  0.00  0.00    +0.000 C 
ATOM     15  C   UNL     1      -0.350   1.217   0.628  0.00  0.00    +0.000 C 
ENDBRANCH   9  15
ENDBRANCH   1   9
TORSDOF 3
