REMARK  Name = *****
REMARK  4 active torsions:
REMARK  status: ('A' for Active; 'I' for Inactive)
REMARK    1  A    between atoms: C_1  and  C_2
REMARK    2  A    between atoms: C_4  and  O_8
REMARK    3  A    between atoms: O_8  and  C_9
REMARK    4  A    between atoms: C_9  and  C_11
REMARK                            x       y       z     vdW  Elec       q    Type
REMARK                         _______ _______ _______ _____ _____    ______ ____
ROOT
ATOM      1  O   UNL     1      -1.765   2.452   0.240  0.00  0.00    +0.000 OA
ENDROOT
BRANCH   1   5
ATOM      2  C   UNL     1       2.474  -0.085   0.578  0.00  0.00    +0.000 C 
ATOM      3  C   UNL     1       1.021   0.004   0.220  0.00  0.00    +0.000 A 
ATOM      4  C   UNL     1       0.328   1.211   0.374  0.00  0.00    +0.000 A 
ATOM      5  C   UNL     1      -1.028   1.276   0.048  0.00  0.00    +0.000 A 
ATOM      6  C   UNL     1      -1.721   0.147  -0.381  0.00  0.00    +0.000 A 
ATOM      7  C   UNL     1      -1.038  -1.060  -0.518  0.00  0.00    +0.000 A 
ATOM      8  C   UNL     1       0.324  -1.132  -0.217  0.00  0.00    +0.000 A 
ENDBRANCH   1   5
BRANCH   1   9
ATOM      9  C   UNL     1      -1.363   3.546  -0.503  0.00  0.00    +0.000 C 
ATOM     10  O   UNL     1      -0.453   3.595  -1.317  0.00  0.00    +0.000 OA
BRANCH   9  11
ATOM     11  C   UNL     1      -2.223   4.718  -0.176  0.00  0.00    +0.000 A 
ATOM     12  C   UNL     1      -1.965   5.929  -0.836  0.00  0.00    +0.000 A 
ATOM     13  C   UNL     1      -2.740   7.059  -0.567  0.00  0.00    +0.000 A 
ATOM     14  C   UNL     1      -3.776   6.988   0.362  0.00  0.00    +0.000 A 
ATOM     15  C   UNL     1      -4.041   5.790   1.024  0.00  0.00    +0.000 A 
ATOM     16  C   UNL     1      -3.268   4.656   0.758  0.00  0.00    +0.000 A 
ENDBRANCH   9  11
ENDBRANCH   1   9
TORSDOF 3
