REMARK  Name = *****
REMARK  4 active torsions:
REMARK  status: ('A' for Active; 'I' for Inactive)
REMARK    1  A    between atoms: C_5  and  C_6
REMARK    2  A    between atoms: C_6  and  C_7
REMARK    3  A    between atoms: C_7  and  O_9
REMARK    4  A    between atoms: O_9  and  C_10
REMARK                            x       y       z     vdW  Elec       q    Type
REMARK                         _______ _______ _______ _____ _____    ______ ____
ROOT
ATOM      1  C   UNL     1       5.471  -1.816  -1.207  0.00  0.00    +0.000 A 
ATOM      2  C   UNL     1       6.499  -1.152  -0.542  0.00  0.00    +0.000 A 
ATOM      3  C   UNL     1       7.740  -1.016  -1.150  0.00  0.00    +0.000 A 
ATOM      4  C   UNL     1       7.956  -1.549  -2.417  0.00  0.00    +0.000 A 
ATOM      5  C   UNL     1       6.933  -2.224  -3.074  0.00  0.00    +0.000 A 
ATOM      6  C   UNL     1       5.690  -2.363  -2.468  0.00  0.00    +0.000 A 
ATOM      7  F   UNL     1       4.705  -3.021  -3.094  0.00  0.00    +0.000 F 
ATOM      8  F   UNL     1       7.148  -2.749  -4.289  0.00  0.00    +0.000 F 
ATOM      9  F   UNL     1       9.156  -1.423  -3.000  0.00  0.00    +0.000 F 
ATOM     10  F   UNL     1       8.733  -0.378  -0.514  0.00  0.00    +0.000 F 
ATOM     11  F   UNL     1       6.290  -0.647   0.682  0.00  0.00    +0.000 F 
ENDROOT
BRANCH   1  12
ATOM     12  O   UNL     1       4.230  -1.966  -0.594  0.00  0.00    +0.000 OA
BRANCH  12  13
ATOM     13  C   UNL     1       3.391  -0.900  -0.900  0.00  0.00    +0.000 C 
ATOM     14  O   UNL     1       3.667   0.038  -1.639  0.00  0.00    +0.000 OA
BRANCH  13  15
ATOM     15  C   UNL     1       2.055  -1.080  -0.215  0.00  0.00    +0.000 C 
BRANCH  15  20
ATOM     16  C   UNL     1       2.115  -2.181   2.137  0.00  0.00    +0.000 A 
ATOM     17  C   UNL     1       2.255  -1.856   3.468  0.00  0.00    +0.000 A 
ATOM     18  S   UNL     1       2.455  -0.176   3.699  0.00  0.00    +0.000 S 
ATOM     19  C   UNL     1       2.352   0.122   2.018  0.00  0.00    +0.000 A 
ATOM     20  C   UNL     1       2.174  -1.034   1.278  0.00  0.00    +0.000 A 
ENDBRANCH  15  20
ENDBRANCH  13  15
ENDBRANCH  12  13
ENDBRANCH   1  12
TORSDOF 4
