REMARK  Name = *****
REMARK  6 active torsions:
REMARK  status: ('A' for Active; 'I' for Inactive)
REMARK    1  A    between atoms: C_1  and  C_2
REMARK    2  A    between atoms: C_4  and  C_19
REMARK    3  A    between atoms: C_5  and  C_8
REMARK    4  A    between atoms: C_8  and  C_9
REMARK    5  A    between atoms: C_9  and  C_10
REMARK    6  A    between atoms: C_10  and  C_12
REMARK                            x       y       z     vdW  Elec       q    Type
REMARK                         _______ _______ _______ _____ _____    ______ ____
ROOT
ATOM      1  C   UNL     1      -2.281  -3.334  -0.055  0.00  0.00    +0.000 C 
ENDROOT
BRANCH   1   2
ATOM      2  C   UNL     1      -3.583  -4.111  -0.065  0.00  0.00    +0.000 C 
ATOM      3  O   UNL     1      -4.680  -3.557  -0.032  0.00  0.00    +0.000 OA
BRANCH   2   4
ATOM      4  C   UNL     1      -3.526  -5.606  -0.115  0.00  0.00    +0.000 A 
ATOM      5  C   UNL     1      -2.315  -6.311  -0.128  0.00  0.00    +0.000 A 
ATOM      6  C   UNL     1      -2.316  -7.709  -0.177  0.00  0.00    +0.000 A 
ATOM      7  C   UNL     1      -3.523  -8.405  -0.213  0.00  0.00    +0.000 A 
ATOM      8  C   UNL     1      -4.732  -7.716  -0.200  0.00  0.00    +0.000 A 
ATOM      9  C   UNL     1      -4.734  -6.319  -0.151  0.00  0.00    +0.000 A 
ATOM     10 CL   UNL     1      -3.517 -10.124  -0.273  0.00  0.00    +0.000 Cl
ENDBRANCH   2   4
ENDBRANCH   1   2
BRANCH   1  11
ATOM     11  C   UNL     1      -2.522  -1.824  -0.034  0.00  0.00    +0.000 C 
BRANCH  11  16
ATOM     12  C   UNL     1       2.535   1.084   0.084  0.00  0.00    +0.000 C 
ATOM     13  C   UNL     1       1.250   0.312   0.037  0.00  0.00    +0.000 A 
ATOM     14  C   UNL     1       0.616   0.062  -1.186  0.00  0.00    +0.000 A 
ATOM     15  C   UNL     1      -0.606  -0.631  -1.249  0.00  0.00    +0.000 A 
ATOM     16  C   UNL     1      -1.217  -1.059  -0.053  0.00  0.00    +0.000 A 
ATOM     17  C   UNL     1      -0.580  -0.793   1.172  0.00  0.00    +0.000 A 
ATOM     18  C   UNL     1       0.635  -0.110   1.217  0.00  0.00    +0.000 A 
ATOM     19  C   UNL     1      -1.241  -0.860  -2.593  0.00  0.00    +0.000 C 
ENDBRANCH  11  16
ENDBRANCH   1  11
TORSDOF 4
