REMARK  Name = *****
REMARK  4 active torsions:
REMARK  status: ('A' for Active; 'I' for Inactive)
REMARK    1  A    between atoms: C_4  and  C_10
REMARK    2  A    between atoms: C_5  and  C_7
REMARK    3  A    between atoms: C_7  and  C_8
REMARK    4  A    between atoms: C_11  and  C_12
REMARK                            x       y       z     vdW  Elec       q    Type
REMARK                         _______ _______ _______ _____ _____    ______ ____
ROOT
ATOM      1  C   UNL     1      -2.797   0.367  -0.514  0.00  0.00    +0.000 C 
ATOM      2  C   UNL     1      -3.321   0.345  -1.749  0.00  0.00    +0.000 C 
ENDROOT
BRANCH   2   3
ATOM      3  C   UNL     1      -4.751   0.524  -2.032  0.00  0.00    +0.000 A 
ATOM      4  C   UNL     1      -5.748  -0.034  -1.221  0.00  0.00    +0.000 A 
ATOM      5  C   UNL     1      -7.102   0.134  -1.536  0.00  0.00    +0.000 A 
ATOM      6  C   UNL     1      -7.470   0.857  -2.675  0.00  0.00    +0.000 A 
ATOM      7  C   UNL     1      -6.480   1.403  -3.497  0.00  0.00    +0.000 A 
ATOM      8  C   UNL     1      -5.130   1.231  -3.180  0.00  0.00    +0.000 A 
ATOM      9 CL   UNL     1      -9.118   1.106  -3.126  0.00  0.00    +0.000 Cl
ATOM     10 CL   UNL     1      -8.267  -0.582  -0.479  0.00  0.00    +0.000 Cl
ENDBRANCH   2   3
BRANCH   1  14
ATOM     11  C   UNL     1       1.390  -0.199   0.116  0.00  0.00    +0.000 A 
ATOM     12  C   UNL     1       0.596  -1.244  -0.344  0.00  0.00    +0.000 A 
ATOM     13  C   UNL     1      -0.770  -1.043  -0.544  0.00  0.00    +0.000 A 
ATOM     14  C   UNL     1      -1.356   0.205  -0.284  0.00  0.00    +0.000 A 
ATOM     15  C   UNL     1      -0.557   1.263   0.194  0.00  0.00    +0.000 A 
ATOM     16  C   UNL     1       0.820   1.046   0.380  0.00  0.00    +0.000 A 
BRANCH  15  17
ATOM     17  C   UNL     1      -1.112   2.643   0.461  0.00  0.00    +0.000 C 
BRANCH  17  18
ATOM     18  C   UNL     1      -1.120   3.492  -0.783  0.00  0.00    +0.000 C 
ATOM     19  O   UNL     1      -0.697   4.645  -0.817  0.00  0.00    +0.000 OA
ENDBRANCH  17  18
ENDBRANCH  15  17
ENDBRANCH   1  14
TORSDOF 4
