REMARK  Name = *****
REMARK  2 active torsions:
REMARK  status: ('A' for Active; 'I' for Inactive)
REMARK    1  A    between atoms: C_4  and  C_7
REMARK    2  A    between atoms: C_10  and  C_12
REMARK                            x       y       z     vdW  Elec       q    Type
REMARK                         _______ _______ _______ _____ _____    ______ ____
ROOT
ATOM      1  C   UNL     1       2.878  -0.661  -0.238  0.00  0.00    +0.000 A 
ATOM      2  N   UNL     1       3.940  -0.922   0.494  0.00  0.00    +0.000 NA
ATOM      3  N   UNL     1       4.976  -1.145  -0.388  0.00  0.00    +0.000 NA
ATOM      4  C   UNL     1       4.473  -1.003  -1.596  0.00  0.00    +0.000 A 
ATOM      5  O   UNL     1       3.138  -0.694  -1.583  0.00  0.00    +0.000 OA
ENDROOT
BRANCH   1   9
ATOM      6  C   UNL     1      -1.331   0.375  -0.331  0.00  0.00    +0.000 C 
ATOM      7  C   UNL     1      -0.941  -1.042   0.080  0.00  0.00    +0.000 C 
ATOM      8  C   UNL     1       0.489  -1.377  -0.339  0.00  0.00    +0.000 C 
ATOM      9  C   UNL     1       1.490  -0.343   0.196  0.00  0.00    +0.000 C 
ATOM     10  C   UNL     1       1.092   1.080  -0.221  0.00  0.00    +0.000 C 
ATOM     11  C   UNL     1      -0.340   1.407   0.198  0.00  0.00    +0.000 C 
ENDBRANCH   1   9
BRANCH   4  12
ATOM     12  C   UNL     1       5.145  -1.136  -2.918  0.00  0.00    +0.000 C 
ATOM     13  C   UNL     1       5.067   0.173  -3.716  0.00  0.00    +0.000 C 
ATOM     14  C   UNL     1       5.731   0.036  -5.085  0.00  0.00    +0.000 C 
ATOM     15  C   UNL     1       5.153  -1.134  -5.876  0.00  0.00    +0.000 C 
ATOM     16  C   UNL     1       5.228  -2.438  -5.088  0.00  0.00    +0.000 C 
ATOM     17  C   UNL     1       4.563  -2.308  -3.719  0.00  0.00    +0.000 C 
ENDBRANCH   4  12
TORSDOF 2
