REMARK  Name = *****
REMARK  4 active torsions:
REMARK  status: ('A' for Active; 'I' for Inactive)
REMARK    1  A    between atoms: C_4  and  C_7
REMARK    2  A    between atoms: C_7  and  N_8
REMARK    3  A    between atoms: N_8  and  C_9
REMARK    4  A    between atoms: C_9  and  C_10
REMARK                            x       y       z     vdW  Elec       q    Type
REMARK                         _______ _______ _______ _____ _____    ______ ____
ROOT
ATOM      1  C   UNL     1      -4.663  -1.077  -0.715  0.00  0.00    +0.000 C 
ENDROOT
BRANCH   1   2
ATOM      2  C   UNL     1      -5.515  -2.276  -0.709  0.00  0.00    +0.000 A 
ATOM      3  C   UNL     1      -5.132  -3.480  -0.121  0.00  0.00    +0.000 A 
ATOM      4  C   UNL     1      -5.983  -4.587  -0.149  0.00  0.00    +0.000 A 
ATOM      5  C   UNL     1      -7.230  -4.498  -0.768  0.00  0.00    +0.000 A 
ATOM      6  C   UNL     1      -7.621  -3.297  -1.357  0.00  0.00    +0.000 A 
ATOM      7  C   UNL     1      -6.764  -2.197  -1.323  0.00  0.00    +0.000 A 
ATOM      8  F   UNL     1      -7.169  -1.055  -1.899  0.00  0.00    +0.000 F 
ATOM      9  F   UNL     1      -3.950  -3.621   0.495  0.00  0.00    +0.000 F 
ENDBRANCH   1   2
BRANCH   1  10
ATOM     10  N   UNL     1      -3.468  -1.070  -0.234  0.00  0.00    +0.000 NA
BRANCH  10  11
ATOM     11  C   UNL     1      -2.782   0.225  -0.344  0.00  0.00    +0.000 C 
BRANCH  11  15
ATOM     12  C   UNL     1       1.494   0.005   0.254  0.00  0.00    +0.000 A 
ATOM     13  C   UNL     1       0.943   1.027  -0.516  0.00  0.00    +0.000 A 
ATOM     14  C   UNL     1      -0.439   1.086  -0.713  0.00  0.00    +0.000 A 
ATOM     15  C   UNL     1      -1.285   0.118  -0.150  0.00  0.00    +0.000 A 
ATOM     16  C   UNL     1      -0.716  -0.895   0.635  0.00  0.00    +0.000 A 
ATOM     17  C   UNL     1       0.665  -0.954   0.831  0.00  0.00    +0.000 A 
ENDBRANCH  11  15
ENDBRANCH  10  11
ENDBRANCH   1  10
TORSDOF 4
