REMARK  Name = *****
REMARK  3 active torsions:
REMARK  status: ('A' for Active; 'I' for Inactive)
REMARK    1  A    between atoms: C_4  and  N_7
REMARK    2  A    between atoms: N_7  and  N_9
REMARK    3  A    between atoms: N_9  and  C_10
REMARK                            x       y       z     vdW  Elec       q    Type
REMARK                         _______ _______ _______ _____ _____    ______ ____
ROOT
ATOM      1  N   UNL     1      -3.741  -0.338  -0.115  0.00  0.00    +0.000 N 
ATOM      2  H   UNL     1      -3.405  -1.231   0.128  0.00  0.00    +0.000 HD
ENDROOT
BRANCH   1   3
ATOM      3  C   UNL     1      -5.139  -0.245  -0.216  0.00  0.00    +0.000 A 
ATOM      4  C   UNL     1      -5.821   0.956  -0.446  0.00  0.00    +0.000 A 
ATOM      5  C   UNL     1      -7.218   0.990  -0.517  0.00  0.00    +0.000 A 
ATOM      6  C   UNL     1      -7.944  -0.180  -0.352  0.00  0.00    +0.000 A 
ATOM      7  C   UNL     1      -7.299  -1.384  -0.113  0.00  0.00    +0.000 A 
ATOM      8  C   UNL     1      -5.903  -1.414  -0.042  0.00  0.00    +0.000 A 
ATOM      9  F   UNL     1      -9.281  -0.147  -0.419  0.00  0.00    +0.000 F 
ENDBRANCH   1   3
BRANCH   1  10
ATOM     10  N   UNL     1      -2.732   0.644  -0.308  0.00  0.00    +0.000 N 
ATOM     11  O   UNL     1      -2.996   1.784  -0.636  0.00  0.00    +0.000 OA
BRANCH  10  15
ATOM     12  C   UNL     1       1.343  -0.431   0.079  0.00  0.00    +0.000 A 
ATOM     13  C   UNL     1       0.406  -0.934   0.983  0.00  0.00    +0.000 A 
ATOM     14  C   UNL     1      -0.939  -0.581   0.866  0.00  0.00    +0.000 A 
ATOM     15  C   UNL     1      -1.338   0.276  -0.166  0.00  0.00    +0.000 A 
ATOM     16  C   UNL     1      -0.399   0.792  -1.065  0.00  0.00    +0.000 A 
ATOM     17  C   UNL     1       0.943   0.433  -0.942  0.00  0.00    +0.000 A 
ENDBRANCH  10  15
ENDBRANCH   1  10
TORSDOF 3
