REMARK  Name = *****
REMARK  4 active torsions:
REMARK  status: ('A' for Active; 'I' for Inactive)
REMARK    1  A    between atoms: C_4  and  O_7
REMARK    2  A    between atoms: O_7  and  C_8
REMARK    3  A    between atoms: C_8  and  C_9
REMARK    4  A    between atoms: C_11  and  C_15
REMARK                            x       y       z     vdW  Elec       q    Type
REMARK                         _______ _______ _______ _____ _____    ______ ____
ROOT
ATOM      1  C   UNL     1      -5.029  -0.172  -0.528  0.00  0.00    +0.000 A 
ATOM      2  C   UNL     1      -6.051  -0.878   0.129  0.00  0.00    +0.000 A 
ATOM      3  C   UNL     1      -7.375  -0.412   0.103  0.00  0.00    +0.000 A 
ATOM      4  C   UNL     1      -7.670   0.770  -0.591  0.00  0.00    +0.000 A 
ATOM      5  C   UNL     1      -6.661   1.477  -1.247  0.00  0.00    +0.000 A 
ATOM      6  C   UNL     1      -5.349   1.007  -1.216  0.00  0.00    +0.000 A 
ENDROOT
BRANCH   3   7
ATOM      7  C   UNL     1      -8.490  -1.141   0.794  0.00  0.00    +0.000 C 
ATOM      8  O   UNL     1      -9.620  -0.661   0.707  0.00  0.00    +0.000 OA
ATOM      9 CL   UNL     1      -8.155  -2.620   1.674  0.00  0.00    +0.000 Cl
ENDBRANCH   3   7
BRANCH   1  10
ATOM     10  C   UNL     1      -3.604  -0.678  -0.515  0.00  0.00    +0.000 C 
BRANCH  10  11
ATOM     11  O   UNL     1      -2.775   0.324   0.069  0.00  0.00    +0.000 OA
BRANCH  11  15
ATOM     12  C   UNL     1       1.353  -0.172   0.308  0.00  0.00    +0.000 A 
ATOM     13  C   UNL     1       0.593  -1.215  -0.218  0.00  0.00    +0.000 A 
ATOM     14  C   UNL     1      -0.797  -1.094  -0.318  0.00  0.00    +0.000 A 
ATOM     15  C   UNL     1      -1.431   0.074   0.109  0.00  0.00    +0.000 A 
ATOM     16  C   UNL     1      -0.661   1.114   0.637  0.00  0.00    +0.000 A 
ATOM     17  C   UNL     1       0.726   0.994   0.737  0.00  0.00    +0.000 A 
ENDBRANCH  11  15
ENDBRANCH  10  11
ENDBRANCH   1  10
TORSDOF 4
