REMARK  Name = *****
REMARK  5 active torsions:
REMARK  status: ('A' for Active; 'I' for Inactive)
REMARK    1  A    between atoms: C_1  and  C_2
REMARK    2  A    between atoms: C_4  and  C_8
REMARK    3  A    between atoms: C_8  and  O_10
REMARK    4  A    between atoms: O_10  and  C_11
REMARK    5  A    between atoms: C_11  and  C_12
REMARK                            x       y       z     vdW  Elec       q    Type
REMARK                         _______ _______ _______ _____ _____    ______ ____
ROOT
ATOM      1  C   UNL     1      -2.113   2.366  -0.179  0.00  0.00    +0.000 C 
ATOM      2  O   UNL     1      -3.222   2.340  -0.702  0.00  0.00    +0.000 OA
ENDROOT
BRANCH   1   6
ATOM      3  C   UNL     1       2.026   0.355  -0.427  0.00  0.00    +0.000 C 
ATOM      4  C   UNL     1       0.978   0.085   0.654  0.00  0.00    +0.000 C 
ATOM      5  C   UNL     1      -0.014   1.256   0.789  0.00  0.00    +0.000 C 
ATOM      6  C   UNL     1      -1.110   1.226  -0.289  0.00  0.00    +0.000 C 
ATOM      7  C   UNL     1      -1.877  -0.107  -0.233  0.00  0.00    +0.000 C 
ATOM      8  C   UNL     1      -1.001  -1.304  -0.010  0.00  0.00    +0.000 C 
ATOM      9  C   UNL     1       0.281  -1.219   0.373  0.00  0.00    +0.000 C 
ENDBRANCH   1   6
BRANCH   1  10
ATOM     10  O   UNL     1      -1.609   3.423   0.508  0.00  0.00    +0.000 OA
BRANCH  10  11
ATOM     11  C   UNL     1      -2.500   4.528   0.702  0.00  0.00    +0.000 C 
BRANCH  11  12
ATOM     12  C   UNL     1      -3.187   4.391   2.036  0.00  0.00    +0.000 A 
ATOM     13  C   UNL     1      -2.556   4.822   3.211  0.00  0.00    +0.000 A 
ATOM     14  C   UNL     1      -3.187   4.674   4.448  0.00  0.00    +0.000 A 
ATOM     15  C   UNL     1      -4.447   4.084   4.523  0.00  0.00    +0.000 A 
ATOM     16  C   UNL     1      -5.077   3.639   3.362  0.00  0.00    +0.000 A 
ATOM     17  C   UNL     1      -4.450   3.788   2.125  0.00  0.00    +0.000 A 
ENDBRANCH  11  12
ENDBRANCH  10  11
ENDBRANCH   1  10
TORSDOF 4
