REMARK  Name = *****
REMARK  2 active torsions:
REMARK  status: ('A' for Active; 'I' for Inactive)
REMARK    1  A    between atoms: C_1  and  C_2
REMARK    2  A    between atoms: C_5  and  C_8
REMARK                            x       y       z     vdW  Elec       q    Type
REMARK                         _______ _______ _______ _____ _____    ______ ____
ROOT
ATOM      1  C   UNL     1      -3.237  -0.201  -0.071  0.00  0.00    +0.000 A 
ATOM      2  C   UNL     1      -3.984  -0.585   1.043  0.00  0.00    +0.000 A 
ATOM      3  C   UNL     1      -5.399  -0.619   0.967  0.00  0.00    +0.000 A 
ATOM      4  C   UNL     1      -6.263  -0.997   2.030  0.00  0.00    +0.000 A 
ATOM      5  C   UNL     1      -7.649  -1.005   1.875  0.00  0.00    +0.000 A 
ATOM      6  C   UNL     1      -8.203  -0.635   0.659  0.00  0.00    +0.000 A 
ATOM      7  C   UNL     1      -7.365  -0.260  -0.392  0.00  0.00    +0.000 A 
ATOM      8  C   UNL     1      -5.981  -0.246  -0.257  0.00  0.00    +0.000 A 
ATOM      9  N   UNL     1      -5.229   0.129  -1.299  0.00  0.00    +0.000 NA
ATOM     10  N   UNL     1      -3.860   0.156  -1.215  0.00  0.00    +0.000 NA
ATOM     11 CL   UNL     1      -3.187  -0.979   2.541  0.00  0.00    +0.000 Cl
ENDROOT
BRANCH   1  16
ATOM     12  C   UNL     1       2.547   0.116  -0.396  0.00  0.00    +0.000 C 
ATOM     13  C   UNL     1       1.054   0.035  -0.281  0.00  0.00    +0.000 A 
ATOM     14  C   UNL     1       0.427  -1.186  -0.015  0.00  0.00    +0.000 A 
ATOM     15  C   UNL     1      -0.967  -1.267   0.057  0.00  0.00    +0.000 A 
ATOM     16  C   UNL     1      -1.770  -0.130  -0.135  0.00  0.00    +0.000 A 
ATOM     17  C   UNL     1      -1.129   1.084  -0.432  0.00  0.00    +0.000 A 
ATOM     18  C   UNL     1       0.265   1.167  -0.505  0.00  0.00    +0.000 A 
ENDBRANCH   1  16
TORSDOF 1
