REMARK  Name = *****
REMARK  5 active torsions:
REMARK  status: ('A' for Active; 'I' for Inactive)
REMARK    1  A    between atoms: C_1  and  C_2
REMARK    2  A    between atoms: C_6  and  C_16
REMARK    3  A    between atoms: C_7  and  O_8
REMARK    4  A    between atoms: O_8  and  C_9
REMARK    5  A    between atoms: C_9  and  C_10
REMARK                            x       y       z     vdW  Elec       q    Type
REMARK                         _______ _______ _______ _____ _____    ______ ____
ROOT
ATOM      1  C   UNL     1       0.974   0.382   0.068  0.00  0.00    +0.000 C 
ATOM      2  C   UNL     1       2.498   0.293  -0.078  0.00  0.00    +0.000 C 
ATOM      3  C   UNL     1       3.007   1.200  -1.208  0.00  0.00    +0.000 C 
ATOM      4  C   UNL     1       2.675   0.661  -2.595  0.00  0.00    +0.000 C 
ATOM      5  C   UNL     1       3.178  -0.766  -2.777  0.00  0.00    +0.000 C 
ATOM      6  C   UNL     1       2.663  -1.705  -1.677  0.00  0.00    +0.000 C 
ATOM      7  C   UNL     1       3.003  -1.157  -0.272  0.00  0.00    +0.000 C 
ATOM      8  C   UNL     1       3.239  -3.111  -1.880  0.00  0.00    +0.000 C 
ENDROOT
BRANCH   7   9
ATOM      9  O   UNL     1       2.433  -2.044   0.696  0.00  0.00    +0.000 OA
BRANCH   9  10
ATOM     10  C   UNL     1       3.033  -1.945   1.987  0.00  0.00    +0.000 C 
BRANCH  10  11
ATOM     11  C   UNL     1       2.457  -2.999   2.901  0.00  0.00    +0.000 A 
ATOM     12  C   UNL     1       2.268  -4.315   2.454  0.00  0.00    +0.000 A 
ATOM     13  C   UNL     1       1.772  -5.295   3.314  0.00  0.00    +0.000 A 
ATOM     14  C   UNL     1       1.468  -4.974   4.636  0.00  0.00    +0.000 A 
ATOM     15  C   UNL     1       1.661  -3.674   5.097  0.00  0.00    +0.000 A 
ATOM     16  C   UNL     1       2.158  -2.692   4.237  0.00  0.00    +0.000 A 
ENDBRANCH  10  11
ENDBRANCH   9  10
ENDBRANCH   7   9
TORSDOF 3
