REMARK  Name = *****
REMARK  4 active torsions:
REMARK  status: ('A' for Active; 'I' for Inactive)
REMARK    1  A    between atoms: C_1  and  C_2
REMARK    2  A    between atoms: C_5  and  O_8
REMARK    3  A    between atoms: O_8  and  C_9
REMARK    4  A    between atoms: C_9  and  C_11
REMARK                            x       y       z     vdW  Elec       q    Type
REMARK                         _______ _______ _______ _____ _____    ______ ____
ROOT
ATOM      1  O   UNL     1      -2.873  -0.189   0.391  0.00  0.00    +0.000 OA
ENDROOT
BRANCH   1   6
ATOM      2  C   UNL     1       2.104   0.298  -0.229  0.00  0.00    +0.000 C 
ATOM      3  C   UNL     1       0.924  -0.133   0.644  0.00  0.00    +0.000 C 
ATOM      4  C   UNL     1      -0.053   1.031   0.893  0.00  0.00    +0.000 C 
ATOM      5  C   UNL     1      -1.012   1.244  -0.281  0.00  0.00    +0.000 C 
ATOM      6  C   UNL     1      -1.828  -0.023  -0.582  0.00  0.00    +0.000 C 
ATOM      7  C   UNL     1      -0.995  -1.274  -0.504  0.00  0.00    +0.000 C 
ATOM      8  C   UNL     1       0.238  -1.324   0.023  0.00  0.00    +0.000 C 
ENDBRANCH   1   6
BRANCH   1   9
ATOM      9  C   UNL     1      -4.003   0.524   0.170  0.00  0.00    +0.000 C 
ATOM     10  O   UNL     1      -4.205   1.278  -0.768  0.00  0.00    +0.000 OA
BRANCH   9  11
ATOM     11  C   UNL     1      -4.997   0.269   1.248  0.00  0.00    +0.000 A 
ATOM     12  C   UNL     1      -6.224   0.945   1.190  0.00  0.00    +0.000 A 
ATOM     13  C   UNL     1      -7.189   0.740   2.178  0.00  0.00    +0.000 A 
ATOM     14  C   UNL     1      -6.935  -0.140   3.229  0.00  0.00    +0.000 A 
ATOM     15  C   UNL     1      -5.717  -0.816   3.295  0.00  0.00    +0.000 A 
ATOM     16  C   UNL     1      -4.749  -0.614   2.308  0.00  0.00    +0.000 A 
ENDBRANCH   9  11
ENDBRANCH   1   9
TORSDOF 3
