REMARK  Name = *****
REMARK  5 active torsions:
REMARK  status: ('A' for Active; 'I' for Inactive)
REMARK    1  A    between atoms: C_1  and  O_2
REMARK    2  A    between atoms: O_2  and  C_3
REMARK    3  A    between atoms: C_6  and  C_9
REMARK    4  A    between atoms: C_9  and  S_10
REMARK    5  A    between atoms: S_10  and  C_11
REMARK                            x       y       z     vdW  Elec       q    Type
REMARK                         _______ _______ _______ _____ _____    ______ ____
ROOT
ATOM      1  C   UNL     1       2.988  -0.318   1.010  0.00  0.00    +0.000 A 
ATOM      2  C   UNL     1       2.549  -0.052   2.307  0.00  0.00    +0.000 A 
ATOM      3  C   UNL     1       3.273  -0.527   3.407  0.00  0.00    +0.000 A 
ATOM      4  C   UNL     1       4.449  -1.269   3.226  0.00  0.00    +0.000 A 
ATOM      5  C   UNL     1       4.878  -1.541   1.921  0.00  0.00    +0.000 A 
ATOM      6  C   UNL     1       4.154  -1.064   0.826  0.00  0.00    +0.000 A 
ENDROOT
BRANCH   1   8
ATOM      7  C   UNL     1       1.161   0.808  -0.010  0.00  0.00    +0.000 C 
ATOM      8  O   UNL     1       2.378   0.085  -0.145  0.00  0.00    +0.000 OA
ENDBRANCH   1   8
BRANCH   4   9
ATOM      9  C   UNL     1       5.222  -1.788   4.413  0.00  0.00    +0.000 C 
BRANCH   9  10
ATOM     10  S   UNL     1       4.593  -3.403   4.962  0.00  0.00    +0.000 S 
BRANCH  10  11
ATOM     11  C   UNL     1       5.589  -3.614   6.484  0.00  0.00    +0.000 C 
ATOM     12  C   UNL     1       7.072  -3.839   6.144  0.00  0.00    +0.000 C 
ATOM     13  C   UNL     1       7.836  -4.403   7.343  0.00  0.00    +0.000 C 
ATOM     14  C   UNL     1       7.239  -5.732   7.808  0.00  0.00    +0.000 C 
ATOM     15  C   UNL     1       5.741  -5.711   7.857  0.00  0.00    +0.000 C 
ATOM     16  C   UNL     1       5.001  -4.753   7.277  0.00  0.00    +0.000 C 
ENDBRANCH  10  11
ENDBRANCH   9  10
ENDBRANCH   4   9
TORSDOF 4
