REMARK  Name = *****
REMARK  3 active torsions:
REMARK  status: ('A' for Active; 'I' for Inactive)
REMARK    1  A    between atoms: C_1  and  C_2
REMARK    2  A    between atoms: C_6  and  C_7
REMARK    3  A    between atoms: C_8  and  C_9
REMARK                            x       y       z     vdW  Elec       q    Type
REMARK                         _______ _______ _______ _____ _____    ______ ____
ROOT
ATOM      1  C   UNL     1       3.140   2.648   0.544  0.00  0.00    +0.000 C 
ATOM      2  C   UNL     1       3.161   3.817   0.271  0.00  0.00    +0.000 C 
ENDROOT
BRANCH   2   3
ATOM      3  C   UNL     1       3.188   5.210  -0.051  0.00  0.00    +0.000 A 
ATOM      4  C   UNL     1       4.335   5.966   0.214  0.00  0.00    +0.000 A 
ATOM      5  C   UNL     1       4.361   7.326  -0.100  0.00  0.00    +0.000 A 
ATOM      6  C   UNL     1       3.241   7.919  -0.675  0.00  0.00    +0.000 A 
ATOM      7  C   UNL     1       2.096   7.177  -0.942  0.00  0.00    +0.000 A 
ATOM      8  C   UNL     1       2.068   5.816  -0.629  0.00  0.00    +0.000 A 
ATOM      9  F   UNL     1       3.267   9.223  -0.975  0.00  0.00    +0.000 F 
ENDBRANCH   2   3
BRANCH   1  15
ATOM     10  C   UNL     1       1.045   0.201  -0.094  0.00  0.00    +0.000 C 
ATOM     11  C   UNL     1       2.570   0.198  -0.043  0.00  0.00    +0.000 C 
ATOM     12  C   UNL     1       3.125  -1.079   0.609  0.00  0.00    +0.000 C 
ATOM     13  C   UNL     1       3.426  -0.718   2.064  0.00  0.00    +0.000 C 
ATOM     14  C   UNL     1       3.579   0.764   2.010  0.00  0.00    +0.000 C 
ATOM     15  C   UNL     1       3.113   1.268   0.861  0.00  0.00    +0.000 C 
ENDBRANCH   1  15
TORSDOF 2
