REMARK  Name = *****
REMARK  2 active torsions:
REMARK  status: ('A' for Active; 'I' for Inactive)
REMARK    1  A    between atoms: C_4  and  C_6
REMARK    2  A    between atoms: C_7  and  C_8
REMARK                            x       y       z     vdW  Elec       q    Type
REMARK                         _______ _______ _______ _____ _____    ______ ____
ROOT
ATOM      1  C   UNL     1       2.220   1.520   0.008  0.00  0.00    +0.000 C 
ATOM      2  C   UNL     1       3.202   2.213   0.012  0.00  0.00    +0.000 C 
ENDROOT
BRANCH   1   6
ATOM      3  C   UNL     1      -1.192   0.094  -0.006  0.00  0.00    +0.000 A 
ATOM      4  C   UNL     1      -0.583  -1.141  -0.002  0.00  0.00    +0.000 A 
ATOM      5  S   UNL     1       1.124  -1.014   0.005  0.00  0.00    +0.000 S 
ATOM      6  C   UNL     1       1.059   0.694   0.004  0.00  0.00    +0.000 A 
ATOM      7  C   UNL     1      -0.240   1.157  -0.003  0.00  0.00    +0.000 A 
ENDBRANCH   1   6
BRANCH   2   8
ATOM      8  C   UNL     1       4.369   3.031   0.016  0.00  0.00    +0.000 A 
ATOM      9  C   UNL     1       4.367   4.410   0.010  0.00  0.00    +0.000 A 
ATOM     10  C   UNL     1       5.687   4.951   0.017  0.00  0.00    +0.000 A 
ATOM     11  C   UNL     1       6.647   3.964   0.028  0.00  0.00    +0.000 A 
ATOM     12  S   UNL     1       5.956   2.398   0.030  0.00  0.00    +0.000 S 
ENDBRANCH   2   8
TORSDOF 2
