REMARK  Name = *****
REMARK  3 active torsions:
REMARK  status: ('A' for Active; 'I' for Inactive)
REMARK    1  A    between atoms: S_4  and  C_6
REMARK    2  A    between atoms: C_6  and  C_7
REMARK    3  A    between atoms: C_8  and  C_9
REMARK                            x       y       z     vdW  Elec       q    Type
REMARK                         _______ _______ _______ _____ _____    ______ ____
ROOT
ATOM      1  C   UNL     1       0.155   2.730   2.030  0.00  0.00    +0.000 C 
ATOM      2  C   UNL     1      -0.805   3.058   2.910  0.00  0.00    +0.000 C 
ENDROOT
BRANCH   2   3
ATOM      3  C   UNL     1      -0.702   2.871   4.365  0.00  0.00    +0.000 A 
ATOM      4  C   UNL     1       0.505   3.017   5.060  0.00  0.00    +0.000 A 
ATOM      5  C   UNL     1       0.552   2.859   6.448  0.00  0.00    +0.000 A 
ATOM      6  C   UNL     1      -0.611   2.565   7.157  0.00  0.00    +0.000 A 
ATOM      7  C   UNL     1      -1.821   2.433   6.480  0.00  0.00    +0.000 A 
ATOM      8  C   UNL     1      -1.867   2.590   5.092  0.00  0.00    +0.000 A 
ENDBRANCH   2   3
BRANCH   1   9
ATOM      9  C   UNL     1       0.023   2.927   0.556  0.00  0.00    +0.000 C 
BRANCH   9  13
ATOM     10  C   UNL     1      -1.296   0.488  -2.223  0.00  0.00    +0.000 C 
ATOM     11  C   UNL     1      -2.163   0.399  -0.963  0.00  0.00    +0.000 C 
ATOM     12  C   UNL     1      -1.202   0.310   0.221  0.00  0.00    +0.000 C 
ATOM     13  S   UNL     1       0.156   1.352  -0.234  0.00  0.00    +0.000 S 
ATOM     14  C   UNL     1      -0.238   1.554  -1.949  0.00  0.00    +0.000 C 
ATOM     15 BR   UNL     1       2.042   0.401   0.025  0.00  0.00    +0.000 Br
ENDBRANCH   9  13
ENDBRANCH   1   9
TORSDOF 3
