REMARK  Name = *****
REMARK  3 active torsions:
REMARK  status: ('A' for Active; 'I' for Inactive)
REMARK    1  A    between atoms: C_5  and  S_7
REMARK    2  A    between atoms: S_7  and  C_8
REMARK    3  A    between atoms: C_8  and  C_9
REMARK                            x       y       z     vdW  Elec       q    Type
REMARK                         _______ _______ _______ _____ _____    ______ ____
ROOT
ATOM      1  C   UNL     1      -1.079  -5.384   0.016  0.00  0.00    +0.000 A 
ATOM      2  C   UNL     1      -1.383  -6.027  -1.188  0.00  0.00    +0.000 A 
ATOM      3  C   UNL     1      -2.067  -7.239  -1.204  0.00  0.00    +0.000 A 
ATOM      4  C   UNL     1      -2.463  -7.827  -0.012  0.00  0.00    +0.000 A 
ATOM      5  C   UNL     1      -2.175  -7.206   1.194  0.00  0.00    +0.000 A 
ATOM      6  C   UNL     1      -1.490  -5.993   1.207  0.00  0.00    +0.000 A 
ATOM      7  F   UNL     1      -1.217  -5.407   2.381  0.00  0.00    +0.000 F 
ATOM      8  F   UNL     1      -2.553  -7.772   2.349  0.00  0.00    +0.000 F 
ATOM      9  F   UNL     1      -3.120  -8.996  -0.025  0.00  0.00    +0.000 F 
ATOM     10  F   UNL     1      -2.342  -7.838  -2.371  0.00  0.00    +0.000 F 
ATOM     11  F   UNL     1      -1.005  -5.473  -2.349  0.00  0.00    +0.000 F 
ENDROOT
BRANCH   1  12
ATOM     12  C   UNL     1      -0.367  -4.060   0.029  0.00  0.00    +0.000 C 
BRANCH  12  13
ATOM     13  S   UNL     1      -1.557  -2.683  -0.048  0.00  0.00    +0.000 S 
BRANCH  13  18
ATOM     14  C   UNL     1      -0.085   1.074  -0.087  0.00  0.00    +0.000 A 
ATOM     15  C   UNL     1       1.282   0.842  -0.016  0.00  0.00    +0.000 A 
ATOM     16  C   UNL     1       1.718  -0.470   0.043  0.00  0.00    +0.000 A 
ATOM     17  N   UNL     1       0.893  -1.540   0.035  0.00  0.00    +0.000 NA
ATOM     18  C   UNL     1      -0.435  -1.296  -0.035  0.00  0.00    +0.000 A 
ATOM     19  C   UNL     1      -0.960  -0.010  -0.097  0.00  0.00    +0.000 A 
ENDBRANCH  13  18
ENDBRANCH  12  13
ENDBRANCH   1  12
TORSDOF 3
