REMARK  Name = *****
REMARK  6 active torsions:
REMARK  status: ('A' for Active; 'I' for Inactive)
REMARK    1  A    between atoms: C_1  and  C_2
REMARK    2  A    between atoms: C_4  and  C_8
REMARK    3  A    between atoms: C_9  and  C_10
REMARK    4  A    between atoms: C_12  and  C_16
REMARK    5  A    between atoms: C_16  and  O_18
REMARK    6  A    between atoms: O_18  and  C_19
REMARK                            x       y       z     vdW  Elec       q    Type
REMARK                         _______ _______ _______ _____ _____    ______ ____
ROOT
ATOM      1  C   UNL     1       6.401   4.897  -1.007  0.00  0.00    +0.000 A 
ATOM      2  C   UNL     1       5.770   6.092  -0.651  0.00  0.00    +0.000 A 
ATOM      3  C   UNL     1       6.412   7.318  -0.873  0.00  0.00    +0.000 A 
ATOM      4  C   UNL     1       7.689   7.334  -1.453  0.00  0.00    +0.000 A 
ATOM      5  C   UNL     1       8.317   6.139  -1.808  0.00  0.00    +0.000 A 
ATOM      6  C   UNL     1       7.673   4.922  -1.585  0.00  0.00    +0.000 A 
ENDROOT
BRANCH   1   8
ATOM      7  C   UNL     1       5.193   2.597  -0.589  0.00  0.00    +0.000 C 
ATOM      8  C   UNL     1       5.745   3.647  -0.780  0.00  0.00    +0.000 C 
BRANCH   7  12
ATOM      9  C   UNL     1       0.992   0.028   0.074  0.00  0.00    +0.000 C 
ATOM     10  C   UNL     1       2.488   0.083  -0.014  0.00  0.00    +0.000 A 
ATOM     11  C   UNL     1       3.142   1.301  -0.247  0.00  0.00    +0.000 A 
ATOM     12  C   UNL     1       4.534   1.348  -0.360  0.00  0.00    +0.000 A 
ATOM     13  C   UNL     1       5.281   0.174  -0.253  0.00  0.00    +0.000 A 
ATOM     14  C   UNL     1       4.637  -1.045  -0.037  0.00  0.00    +0.000 A 
ATOM     15  C   UNL     1       3.247  -1.090   0.077  0.00  0.00    +0.000 A 
ENDBRANCH   7  12
ENDBRANCH   1   8
BRANCH   3  16
ATOM     16  C   UNL     1       5.789   8.621  -0.516  0.00  0.00    +0.000 C 
ATOM     17  O   UNL     1       6.331   9.700  -0.698  0.00  0.00    +0.000 OA
BRANCH  16  18
ATOM     18  O   UNL     1       4.560   8.433   0.028  0.00  0.00    +0.000 OA
ATOM     19  C   UNL     1       3.898   9.644   0.397  0.00  0.00    +0.000 C 
ENDBRANCH  16  18
ENDBRANCH   3  16
TORSDOF 4
