REMARK  Name = *****
REMARK  3 active torsions:
REMARK  status: ('A' for Active; 'I' for Inactive)
REMARK    1  A    between atoms: C_4  and  C_7
REMARK    2  A    between atoms: C_8  and  C_9
REMARK    3  A    between atoms: C_10  and  C_15
REMARK                            x       y       z     vdW  Elec       q    Type
REMARK                         _______ _______ _______ _____ _____    ______ ____
ROOT
ATOM      1  C   UNL     1       2.908   0.147  -0.203  0.00  0.00    +0.000 C 
ATOM      2  C   UNL     1       4.105   0.228  -0.273  0.00  0.00    +0.000 C 
ENDROOT
BRANCH   1   6
ATOM      3  C   UNL     1      -1.301  -0.079   0.037  0.00  0.00    +0.000 A 
ATOM      4  C   UNL     1      -0.671   1.164  -0.010  0.00  0.00    +0.000 A 
ATOM      5  C   UNL     1       0.721   1.240  -0.090  0.00  0.00    +0.000 A 
ATOM      6  C   UNL     1       1.483   0.069  -0.122  0.00  0.00    +0.000 A 
ATOM      7  C   UNL     1       0.851  -1.175  -0.074  0.00  0.00    +0.000 A 
ATOM      8  C   UNL     1      -0.541  -1.249   0.005  0.00  0.00    +0.000 A 
ENDBRANCH   1   6
BRANCH   2   9
ATOM      9  C   UNL     1       5.525   0.351  -0.356  0.00  0.00    +0.000 A 
ATOM     10  C   UNL     1       6.184   1.563  -0.476  0.00  0.00    +0.000 A 
ATOM     11  C   UNL     1       7.576   1.555  -0.549  0.00  0.00    +0.000 A 
ATOM     12  C   UNL     1       8.223   0.336  -0.497  0.00  0.00    +0.000 A 
ATOM     13  N   UNL     1       7.557  -0.828  -0.380  0.00  0.00    +0.000 NA
ATOM     14  N   UNL     1       6.192  -0.822  -0.309  0.00  0.00    +0.000 NA
BRANCH  10  15
ATOM     15  C   UNL     1       5.473   2.801  -0.525  0.00  0.00    +0.000 C 
ATOM     16  N   UNL     1       4.917   3.819  -0.567  0.00  0.00    +0.000 NA
ENDBRANCH  10  15
ENDBRANCH   2   9
TORSDOF 3
