REMARK  Name = *****
REMARK  2 active torsions:
REMARK  status: ('A' for Active; 'I' for Inactive)
REMARK    1  A    between atoms: C_3  and  C_4
REMARK    2  A    between atoms: C_11  and  C_13
REMARK                            x       y       z     vdW  Elec       q    Type
REMARK                         _______ _______ _______ _____ _____    ______ ____
ROOT
ATOM      1  C   UNL     1      -1.489  -0.969  -1.207  0.00  0.00    +0.000 A 
ATOM      2  N   UNL     1      -2.717  -1.446  -1.121  0.00  0.00    +0.000 NA
ATOM      3  C   UNL     1      -3.037  -1.762  -2.417  0.00  0.00    +0.000 A 
ATOM      4  C   UNL     1      -1.974  -1.462  -3.249  0.00  0.00    +0.000 A 
ATOM      5  O   UNL     1      -0.972  -0.952  -2.479  0.00  0.00    +0.000 OA
ATOM      6  C   UNL     1      -1.966  -1.656  -4.621  0.00  0.00    +0.000 A 
ATOM      7  C   UNL     1      -3.143  -2.196  -5.162  0.00  0.00    +0.000 A 
ATOM      8  C   UNL     1      -4.264  -2.525  -4.368  0.00  0.00    +0.000 A 
ATOM      9  C   UNL     1      -4.203  -2.304  -2.974  0.00  0.00    +0.000 A 
ENDROOT
BRANCH   8  10
ATOM     10  C   UNL     1      -5.482  -3.086  -4.983  0.00  0.00    +0.000 A 
ATOM     11  C   UNL     1      -5.416  -4.186  -5.854  0.00  0.00    +0.000 A 
ATOM     12  C   UNL     1      -6.570  -4.715  -6.439  0.00  0.00    +0.000 A 
ATOM     13  C   UNL     1      -7.813  -4.153  -6.161  0.00  0.00    +0.000 A 
ATOM     14  C   UNL     1      -7.903  -3.063  -5.300  0.00  0.00    +0.000 A 
ATOM     15  C   UNL     1      -6.747  -2.535  -4.717  0.00  0.00    +0.000 A 
ENDBRANCH   8  10
BRANCH   1  18
ATOM     16  C   UNL     1       0.227   0.686  -0.146  0.00  0.00    +0.000 C 
ATOM     17  C   UNL     1       0.773  -0.684   0.065  0.00  0.00    +0.000 C 
ATOM     18  C   UNL     1      -0.727  -0.480   0.016  0.00  0.00    +0.000 C 
ENDBRANCH   1  18
TORSDOF 2
