REMARK  Name = *****
REMARK  4 active torsions:
REMARK  status: ('A' for Active; 'I' for Inactive)
REMARK    1  A    between atoms: C_1  and  C_2
REMARK    2  A    between atoms: C_3  and  C_9
REMARK    3  A    between atoms: N_4  and  C_7
REMARK    4  A    between atoms: C_11  and  C_12
REMARK                            x       y       z     vdW  Elec       q    Type
REMARK                         _______ _______ _______ _____ _____    ______ ____
ROOT
ATOM      1  C   UNL     1       2.005   2.607   0.923  0.00  0.00    +0.000 C 
ATOM      2  C   UNL     1       1.701   3.310  -0.370  0.00  0.00    +0.000 C 
ATOM      3  C   UNL     1       2.485   4.030   0.688  0.00  0.00    +0.000 C 
ENDROOT
BRANCH   1   6
ATOM      4  C   UNL     1       1.790   0.535   3.187  0.00  0.00    +0.000 C 
ATOM      5  C   UNL     1       2.771   0.474   2.067  0.00  0.00    +0.000 A 
ATOM      6  C   UNL     1       2.935   1.376   1.014  0.00  0.00    +0.000 A 
ATOM      7  N   UNL     1       3.985   0.926   0.200  0.00  0.00    +0.000 N 
ATOM      8  C   UNL     1       4.452  -0.247   0.777  0.00  0.00    +0.000 A 
ATOM      9  C   UNL     1       3.736  -0.543   1.905  0.00  0.00    +0.000 A 
BRANCH   7  10
ATOM     10  C   UNL     1       4.502   1.482  -0.978  0.00  0.00    +0.000 C 
ATOM     11  C   UNL     1       5.479   0.996  -1.758  0.00  0.00    +0.000 C 
ENDBRANCH   7  10
ENDBRANCH   1   6
BRANCH   3  12
ATOM     12  C   UNL     1       3.931   4.415   0.522  0.00  0.00    +0.000 A 
ATOM     13  C   UNL     1       4.368   5.160  -0.586  0.00  0.00    +0.000 A 
ATOM     14  C   UNL     1       5.706   5.541  -0.728  0.00  0.00    +0.000 A 
ATOM     15  C   UNL     1       6.635   5.196   0.250  0.00  0.00    +0.000 A 
ATOM     16  C   UNL     1       6.225   4.479   1.369  0.00  0.00    +0.000 A 
ATOM     17  C   UNL     1       4.887   4.102   1.504  0.00  0.00    +0.000 A 
ENDBRANCH   3  12
TORSDOF 3
