REMARK  Name = *****
REMARK  4 active torsions:
REMARK  status: ('A' for Active; 'I' for Inactive)
REMARK    1  A    between atoms: C_4  and  C_7
REMARK    2  A    between atoms: C_7  and  N_8
REMARK    3  A    between atoms: N_8  and  C_9
REMARK    4  A    between atoms: N_8  and  N_17
REMARK                            x       y       z     vdW  Elec       q    Type
REMARK                         _______ _______ _______ _____ _____    ______ ____
ROOT
ATOM      1  N   UNL     1      -3.607  -0.876   0.148  0.00  0.00    +0.000 N 
ENDROOT
BRANCH   1   2
ATOM      2  C   UNL     1      -3.153  -2.208   0.304  0.00  0.00    +0.000 A 
ATOM      3  C   UNL     1      -3.868  -3.302  -0.215  0.00  0.00    +0.000 A 
ATOM      4  C   UNL     1      -3.428  -4.620  -0.032  0.00  0.00    +0.000 A 
ATOM      5  C   UNL     1      -2.260  -4.872   0.689  0.00  0.00    +0.000 A 
ATOM      6  C   UNL     1      -1.541  -3.805   1.225  0.00  0.00    +0.000 A 
ATOM      7  C   UNL     1      -1.987  -2.492   1.037  0.00  0.00    +0.000 A 
ATOM      8 CL   UNL     1      -1.656  -6.468   0.958  0.00  0.00    +0.000 Cl
ATOM      9 CL   UNL     1      -4.378  -5.888  -0.725  0.00  0.00    +0.000 Cl
ENDBRANCH   1   2
BRANCH   1  10
ATOM     10  N   UNL     1      -4.932  -0.661  -0.318  0.00  0.00    +0.000 NA
ATOM     11  H   UNL     1      -5.113   0.341  -0.379  0.00  0.00    +0.000 HD
ATOM     12  H   UNL     1      -5.594  -1.087   0.330  0.00  0.00    +0.000 HD
ENDBRANCH   1  10
BRANCH   1  13
ATOM     13  C   UNL     1      -2.579   0.144  -0.177  0.00  0.00    +0.000 C 
BRANCH  13  17
ATOM     14  C   UNL     1      -1.868   3.081   2.928  0.00  0.00    +0.000 A 
ATOM     15  C   UNL     1      -2.687   1.988   3.200  0.00  0.00    +0.000 A 
ATOM     16  C   UNL     1      -2.933   1.032   2.210  0.00  0.00    +0.000 A 
ATOM     17  C   UNL     1      -2.367   1.159   0.932  0.00  0.00    +0.000 A 
ATOM     18  C   UNL     1      -1.540   2.267   0.678  0.00  0.00    +0.000 A 
ATOM     19  C   UNL     1      -1.294   3.220   1.667  0.00  0.00    +0.000 A 
ENDBRANCH  13  17
ENDBRANCH   1  13
TORSDOF 4
