REMARK  Name = *****
REMARK  4 active torsions:
REMARK  status: ('A' for Active; 'I' for Inactive)
REMARK    1  A    between atoms: C_1  and  C_2
REMARK    2  A    between atoms: C_5  and  C_8
REMARK    3  A    between atoms: C_14  and  C_18
REMARK    4  A    between atoms: C_15  and  C_17
REMARK                            x       y       z     vdW  Elec       q    Type
REMARK                         _______ _______ _______ _____ _____    ______ ____
ROOT
ATOM      1  C   UNL     1      -3.416   0.706  -0.252  0.00  0.00    +0.000 A 
ATOM      2  N   UNL     1      -4.264   1.320  -1.058  0.00  0.00    +0.000 NA
ATOM      3  C   UNL     1      -5.494   1.002  -0.540  0.00  0.00    +0.000 A 
ATOM      4  C   UNL     1      -5.343   0.197   0.571  0.00  0.00    +0.000 A 
ATOM      5  O   UNL     1      -4.008  -0.000   0.768  0.00  0.00    +0.000 OA
ATOM      6  C   UNL     1      -6.389  -0.304   1.335  0.00  0.00    +0.000 A 
ATOM      7  C   UNL     1      -7.692   0.052   0.928  0.00  0.00    +0.000 A 
ATOM      8  C   UNL     1      -7.893   0.863  -0.216  0.00  0.00    +0.000 A 
ATOM      9  C   UNL     1      -6.786   1.353  -0.947  0.00  0.00    +0.000 A 
ATOM     10  C   UNL     1      -9.267   1.294  -0.661  0.00  0.00    +0.000 C 
ATOM     11  C   UNL     1      -8.854  -0.467   1.735  0.00  0.00    +0.000 C 
ENDROOT
BRANCH   1  16
ATOM     12  C   UNL     1       2.364   0.594  -0.553  0.00  0.00    +0.000 C 
ATOM     13  C   UNL     1       0.866   0.625  -0.477  0.00  0.00    +0.000 A 
ATOM     14  C   UNL     1       0.107   1.261  -1.464  0.00  0.00    +0.000 A 
ATOM     15  C   UNL     1      -1.289   1.283  -1.379  0.00  0.00    +0.000 A 
ATOM     16  C   UNL     1      -1.955   0.671  -0.308  0.00  0.00    +0.000 A 
ATOM     17  C   UNL     1      -1.188   0.039   0.680  0.00  0.00    +0.000 A 
ATOM     18  C   UNL     1       0.208   0.017   0.598  0.00  0.00    +0.000 A 
ENDBRANCH   1  16
TORSDOF 1
