REMARK  Name = *****
REMARK  2 active torsions:
REMARK  status: ('A' for Active; 'I' for Inactive)
REMARK    1  A    between atoms: C_1  and  C_2
REMARK    2  A    between atoms: C_5  and  C_8
REMARK                            x       y       z     vdW  Elec       q    Type
REMARK                         _______ _______ _______ _____ _____    ______ ____
ROOT
ATOM      1  C   UNL     1      -3.324  -0.020   0.140  0.00  0.00    +0.000 A 
ATOM      2  N   UNL     1      -4.148   1.015   0.120  0.00  0.00    +0.000 NA
ATOM      3  C   UNL     1      -5.393   0.446   0.196  0.00  0.00    +0.000 A 
ATOM      4  C   UNL     1      -5.275  -0.933   0.259  0.00  0.00    +0.000 A 
ATOM      5  O   UNL     1      -3.949  -1.241   0.224  0.00  0.00    +0.000 OA
ATOM      6  C   UNL     1      -6.344  -1.817   0.342  0.00  0.00    +0.000 A 
ATOM      7  C   UNL     1      -7.614  -1.228   0.361  0.00  0.00    +0.000 A 
ATOM      8  C   UNL     1      -7.770   0.164   0.299  0.00  0.00    +0.000 A 
ATOM      9  C   UNL     1      -6.668   1.025   0.215  0.00  0.00    +0.000 A 
ATOM     10 CL   UNL     1      -9.357   0.834   0.327  0.00  0.00    +0.000 Cl
ENDROOT
BRANCH   1  15
ATOM     11  C   UNL     1       2.459   0.026  -0.107  0.00  0.00    +0.000 C 
ATOM     12  C   UNL     1       0.961   0.009  -0.013  0.00  0.00    +0.000 A 
ATOM     13  C   UNL     1       0.233   1.201  -0.062  0.00  0.00    +0.000 A 
ATOM     14  C   UNL     1      -1.164   1.180  -0.008  0.00  0.00    +0.000 A 
ATOM     15  C   UNL     1      -1.864  -0.032   0.085  0.00  0.00    +0.000 A 
ATOM     16  C   UNL     1      -1.127  -1.225   0.119  0.00  0.00    +0.000 A 
ATOM     17  C   UNL     1       0.271  -1.205   0.065  0.00  0.00    +0.000 A 
ENDBRANCH   1  15
TORSDOF 1
