REMARK  Name = *****
REMARK  4 active torsions:
REMARK  status: ('A' for Active; 'I' for Inactive)
REMARK    1  A    between atoms: C_3  and  O_8
REMARK    2  A    between atoms: O_8  and  C_9
REMARK    3  A    between atoms: C_9  and  C_11
REMARK    4  A    between atoms: C_14  and  C_17
REMARK                            x       y       z     vdW  Elec       q    Type
REMARK                         _______ _______ _______ _____ _____    ______ ____
ROOT
ATOM      1  C   UNL     1      -1.832   5.032   0.303  0.00  0.00    +0.000 A 
ATOM      2  C   UNL     1      -2.737   5.390   1.307  0.00  0.00    +0.000 A 
ATOM      3  C   UNL     1      -3.522   6.532   1.153  0.00  0.00    +0.000 A 
ATOM      4  C   UNL     1      -3.431   7.336   0.019  0.00  0.00    +0.000 A 
ATOM      5  C   UNL     1      -2.523   6.976  -0.987  0.00  0.00    +0.000 A 
ATOM      6  C   UNL     1      -1.731   5.832  -0.845  0.00  0.00    +0.000 A 
ATOM      7  F   UNL     1      -4.382   6.852   2.129  0.00  0.00    +0.000 F 
ENDROOT
BRANCH   4   8
ATOM      8  C   UNL     1      -4.303   8.552  -0.089  0.00  0.00    +0.000 C 
ATOM      9  F   UNL     1      -5.630   8.255  -0.068  0.00  0.00    +0.000 F 
ATOM     10  F   UNL     1      -4.093   9.446   0.916  0.00  0.00    +0.000 F 
ATOM     11  F   UNL     1      -4.102   9.249  -1.245  0.00  0.00    +0.000 F 
ENDBRANCH   4   8
BRANCH   1  12
ATOM     12  C   UNL     1      -0.963   3.826   0.395  0.00  0.00    +0.000 C 
ATOM     13  O   UNL     1      -0.190   3.497  -0.491  0.00  0.00    +0.000 OA
BRANCH  12  14
ATOM     14  O   UNL     1      -1.180   3.185   1.599  0.00  0.00    +0.000 OA
BRANCH  14  17
ATOM     15  C   UNL     1      -0.252  -0.359   1.893  0.00  0.00    +0.000 A 
ATOM     16  C   UNL     1      -1.006   0.794   1.670  0.00  0.00    +0.000 A 
ATOM     17  C   UNL     1      -0.393   2.044   1.775  0.00  0.00    +0.000 A 
ATOM     18  C   UNL     1       0.947   2.166   2.133  0.00  0.00    +0.000 A 
ATOM     19  C   UNL     1       1.683   1.009   2.351  0.00  0.00    +0.000 A 
ATOM     20  C   UNL     1       1.098  -0.250   2.232  0.00  0.00    +0.000 A 
ATOM     21  F   UNL     1       2.975   1.103   2.690  0.00  0.00    +0.000 F 
ENDBRANCH  14  17
ENDBRANCH  12  14
ENDBRANCH   1  12
TORSDOF 4
