REMARK  Name = *****
REMARK  3 active torsions:
REMARK  status: ('A' for Active; 'I' for Inactive)
REMARK    1  A    between atoms: C_4  and  S_7
REMARK    2  A    between atoms: S_7  and  C_8
REMARK    3  A    between atoms: C_8  and  C_9
REMARK                            x       y       z     vdW  Elec       q    Type
REMARK                         _______ _______ _______ _____ _____    ______ ____
ROOT
ATOM      1  C   UNL     1       3.420  -2.363  -0.247  0.00  0.00    +0.000 C 
ENDROOT
BRANCH   1   2
ATOM      2  C   UNL     1       4.777  -2.804  -0.739  0.00  0.00    +0.000 A 
ATOM      3  C   UNL     1       5.943  -2.412  -0.063  0.00  0.00    +0.000 A 
ATOM      4  C   UNL     1       7.199  -2.812  -0.525  0.00  0.00    +0.000 A 
ATOM      5  C   UNL     1       7.296  -3.599  -1.671  0.00  0.00    +0.000 A 
ATOM      6  C   UNL     1       6.150  -3.988  -2.360  0.00  0.00    +0.000 A 
ATOM      7  C   UNL     1       4.894  -3.588  -1.897  0.00  0.00    +0.000 A 
ATOM      8 CL   UNL     1       8.844  -4.091  -2.240  0.00  0.00    +0.000 Cl
ENDBRANCH   1   2
BRANCH   1   9
ATOM      9  S   UNL     1       2.914  -0.796  -1.023  0.00  0.00    +0.000 S 
BRANCH   9  13
ATOM     10  C   UNL     1      -1.447   0.395   0.023  0.00  0.00    +0.000 C 
ATOM     11  C   UNL     1      -1.053  -1.064   0.232  0.00  0.00    +0.000 C 
ATOM     12  C   UNL     1       0.252  -1.407  -0.487  0.00  0.00    +0.000 C 
ATOM     13  C   UNL     1       1.384  -0.459  -0.073  0.00  0.00    +0.000 C 
ATOM     14  C   UNL     1       0.982   1.005  -0.298  0.00  0.00    +0.000 C 
ATOM     15  C   UNL     1      -0.321   1.342   0.425  0.00  0.00    +0.000 C 
ENDBRANCH   9  13
ENDBRANCH   1   9
TORSDOF 3
