REMARK  Name = *****
REMARK  4 active torsions:
REMARK  status: ('A' for Active; 'I' for Inactive)
REMARK    1  A    between atoms: C_1  and  C_2
REMARK    2  A    between atoms: C_4  and  C_16
REMARK    3  A    between atoms: C_6  and  C_8
REMARK    4  A    between atoms: C_9  and  C_10
REMARK                            x       y       z     vdW  Elec       q    Type
REMARK                         _______ _______ _______ _____ _____    ______ ____
ROOT
ATOM      1  C   UNL     1       2.452   1.103   0.119  0.00  0.00    +0.000 C 
ATOM      2  C   UNL     1       1.180   0.307   0.085  0.00  0.00    +0.000 A 
ATOM      3  C   UNL     1       1.218  -1.091   0.011  0.00  0.00    +0.000 A 
ATOM      4  C   UNL     1       0.035  -1.837  -0.055  0.00  0.00    +0.000 A 
ATOM      5  C   UNL     1      -1.196  -1.166  -0.077  0.00  0.00    +0.000 A 
ATOM      6  C   UNL     1      -1.256   0.231  -0.002  0.00  0.00    +0.000 A 
ATOM      7  C   UNL     1      -0.060   0.959   0.061  0.00  0.00    +0.000 A 
ATOM      8  C   UNL     1       0.086  -3.331  -0.176  0.00  0.00    +0.000 C 
ENDROOT
BRANCH   6   9
ATOM      9  C   UNL     1      -2.528   0.963  -0.053  0.00  0.00    +0.000 C 
ATOM     10  C   UNL     1      -3.643   0.574   0.588  0.00  0.00    +0.000 C 
BRANCH  10  11
ATOM     11  C   UNL     1      -4.913   1.315   0.547  0.00  0.00    +0.000 A 
ATOM     12  C   UNL     1      -6.017   0.843   1.252  0.00  0.00    +0.000 A 
ATOM     13  C   UNL     1      -7.210   1.561   1.198  0.00  0.00    +0.000 A 
ATOM     14  C   UNL     1      -7.268   2.725   0.443  0.00  0.00    +0.000 A 
ATOM     15  C   UNL     1      -6.125   3.125  -0.227  0.00  0.00    +0.000 A 
ATOM     16  N   UNL     1      -4.956   2.449  -0.192  0.00  0.00    +0.000 NA
ENDBRANCH  10  11
ENDBRANCH   6   9
TORSDOF 2
