REMARK  Name = *****
REMARK  5 active torsions:
REMARK  status: ('A' for Active; 'I' for Inactive)
REMARK    1  A    between atoms: C_1  and  C_2
REMARK    2  A    between atoms: C_5  and  S_8
REMARK    3  A    between atoms: S_8  and  S_9
REMARK    4  A    between atoms: S_9  and  C_11
REMARK    5  A    between atoms: C_14  and  C_17
REMARK                            x       y       z     vdW  Elec       q    Type
REMARK                         _______ _______ _______ _____ _____    ______ ____
ROOT
ATOM      1  S   UNL     1      -4.204   2.215  -0.448  0.00  0.00    +0.000 S 
ATOM      2  O   UNL     1      -3.881   2.768  -1.806  0.00  0.00    +0.000 OA
ENDROOT
BRANCH   1   3
ATOM      3  C   UNL     1      -6.009   2.090  -0.382  0.00  0.00    +0.000 A 
ATOM      4  C   UNL     1      -6.629   1.618   0.781  0.00  0.00    +0.000 A 
ATOM      5  C   UNL     1      -8.022   1.529   0.851  0.00  0.00    +0.000 A 
ATOM      6  C   UNL     1      -8.813   1.905  -0.240  0.00  0.00    +0.000 A 
ATOM      7  C   UNL     1      -8.192   2.398  -1.394  0.00  0.00    +0.000 A 
ATOM      8  C   UNL     1      -6.799   2.486  -1.465  0.00  0.00    +0.000 A 
ATOM      9  C   UNL     1     -10.309   1.841  -0.153  0.00  0.00    +0.000 C 
ENDBRANCH   1   3
BRANCH   1  10
ATOM     10  S   UNL     1      -3.717   0.267  -0.747  0.00  0.00    +0.000 S 
BRANCH  10  15
ATOM     11  C   UNL     1       2.377   0.384  -0.661  0.00  0.00    +0.000 C 
ATOM     12  C   UNL     1       0.877   0.387  -0.671  0.00  0.00    +0.000 A 
ATOM     13  C   UNL     1       0.160  -0.187   0.384  0.00  0.00    +0.000 A 
ATOM     14  C   UNL     1      -1.238  -0.214   0.360  0.00  0.00    +0.000 A 
ATOM     15  C   UNL     1      -1.936   0.330  -0.722  0.00  0.00    +0.000 A 
ATOM     16  C   UNL     1      -1.220   0.881  -1.789  0.00  0.00    +0.000 A 
ATOM     17  C   UNL     1       0.177   0.909  -1.764  0.00  0.00    +0.000 A 
ENDBRANCH  10  15
ENDBRANCH   1  10
TORSDOF 3
