REMARK  Name = *****
REMARK  3 active torsions:
REMARK  status: ('A' for Active; 'I' for Inactive)
REMARK    1  A    between atoms: C_4  and  O_7
REMARK    2  A    between atoms: O_7  and  C_8
REMARK    3  A    between atoms: N_9  and  C_10
REMARK                            x       y       z     vdW  Elec       q    Type
REMARK                         _______ _______ _______ _____ _____    ______ ____
ROOT
ATOM      1  C   UNL     1      -3.721  -0.393  -0.273  0.00  0.00    +0.000 C 
ATOM      2  N   UNL     1      -4.996  -0.206  -0.258  0.00  0.00    +0.000 NA
ENDROOT
BRANCH   2   3
ATOM      3  C   UNL     1      -5.775  -1.367  -0.305  0.00  0.00    +0.000 A 
ATOM      4  C   UNL     1      -6.085  -2.065   0.866  0.00  0.00    +0.000 A 
ATOM      5  C   UNL     1      -6.875  -3.217   0.816  0.00  0.00    +0.000 A 
ATOM      6  C   UNL     1      -7.367  -3.663  -0.409  0.00  0.00    +0.000 A 
ATOM      7  C   UNL     1      -7.081  -2.965  -1.581  0.00  0.00    +0.000 A 
ATOM      8  C   UNL     1      -6.289  -1.815  -1.526  0.00  0.00    +0.000 A 
ATOM      9 CL   UNL     1      -8.341  -5.080  -0.474  0.00  0.00    +0.000 Cl
ENDBRANCH   2   3
BRANCH   1  10
ATOM     10  O   UNL     1      -2.872   0.680  -0.231  0.00  0.00    +0.000 OA
BRANCH  10  14
ATOM     11  C   UNL     1       1.121  -0.497  -0.271  0.00  0.00    +0.000 A 
ATOM     12  C   UNL     1       0.447  -0.289  -1.477  0.00  0.00    +0.000 A 
ATOM     13  C   UNL     1      -0.891   0.102  -1.468  0.00  0.00    +0.000 A 
ATOM     14  C   UNL     1      -1.542   0.267  -0.247  0.00  0.00    +0.000 A 
ATOM     15  C   UNL     1      -0.874   0.085   0.963  0.00  0.00    +0.000 A 
ATOM     16  C   UNL     1       0.464  -0.306   0.947  0.00  0.00    +0.000 A 
ENDBRANCH  10  14
ENDBRANCH   1  10
TORSDOF 3
