REMARK  Name = *****
REMARK  4 active torsions:
REMARK  status: ('A' for Active; 'I' for Inactive)
REMARK    1  A    between atoms: C_3  and  C_8
REMARK    2  A    between atoms: C_8  and  C_9
REMARK    3  A    between atoms: C_9  and  C_10
REMARK    4  A    between atoms: C_10  and  C_12
REMARK                            x       y       z     vdW  Elec       q    Type
REMARK                         _______ _______ _______ _____ _____    ______ ____
ROOT
ATOM      1  C   UNL     1       1.511   3.708  -0.056  0.00  0.00    +0.000 C 
ENDROOT
BRANCH   1   2
ATOM      2  C   UNL     1       2.272   5.020  -0.082  0.00  0.00    +0.000 C 
ATOM      3  O   UNL     1       3.500   5.066  -0.062  0.00  0.00    +0.000 OA
BRANCH   2   4
ATOM      4  C   UNL     1       1.497   6.298  -0.137  0.00  0.00    +0.000 A 
ATOM      5  C   UNL     1       0.100   6.325  -0.146  0.00  0.00    +0.000 A 
ATOM      6  C   UNL     1      -0.561   7.549  -0.200  0.00  0.00    +0.000 A 
ATOM      7  C   UNL     1       0.139   8.749  -0.244  0.00  0.00    +0.000 A 
ATOM      8  C   UNL     1       1.531   8.731  -0.234  0.00  0.00    +0.000 A 
ATOM      9  C   UNL     1       2.207   7.509  -0.180  0.00  0.00    +0.000 A 
ATOM     10  F   UNL     1      -1.900   7.569  -0.210  0.00  0.00    +0.000 F 
ENDBRANCH   2   4
ENDBRANCH   1   2
BRANCH   1  11
ATOM     11  C   UNL     1       2.457   2.508  -0.024  0.00  0.00    +0.000 C 
BRANCH  11  14
ATOM     12  C   UNL     1       0.603  -0.609  -1.202  0.00  0.00    +0.000 A 
ATOM     13  C   UNL     1       1.329   0.583  -1.213  0.00  0.00    +0.000 A 
ATOM     14  C   UNL     1       1.693   1.206  -0.010  0.00  0.00    +0.000 A 
ATOM     15  C   UNL     1       1.311   0.619   1.204  0.00  0.00    +0.000 A 
ATOM     16  C   UNL     1       0.586  -0.572   1.209  0.00  0.00    +0.000 A 
ATOM     17  C   UNL     1       0.230  -1.189   0.011  0.00  0.00    +0.000 A 
ATOM     18 CL   UNL     1       0.122  -1.284   2.705  0.00  0.00    +0.000 Cl
ENDBRANCH  11  14
ENDBRANCH   1  11
TORSDOF 4
