REMARK  Name = *****
REMARK  3 active torsions:
REMARK  status: ('A' for Active; 'I' for Inactive)
REMARK    1  A    between atoms: C_4  and  C_7
REMARK    2  A    between atoms: C_8  and  C_9
REMARK    3  A    between atoms: C_11  and  O_15
REMARK                            x       y       z     vdW  Elec       q    Type
REMARK                         _______ _______ _______ _____ _____    ______ ____
ROOT
ATOM      1  C   UNL     1       2.772  -0.690  -0.337  0.00  0.00    +0.000 C 
ATOM      2  C   UNL     1       3.855  -0.880   0.434  0.00  0.00    +0.000 C 
ENDROOT
BRANCH   1   6
ATOM      3  C   UNL     1      -1.450   0.323  -0.183  0.00  0.00    +0.000 C 
ATOM      4  C   UNL     1      -1.015  -1.044   0.337  0.00  0.00    +0.000 C 
ATOM      5  C   UNL     1       0.385  -1.413  -0.148  0.00  0.00    +0.000 C 
ATOM      6  C   UNL     1       1.412  -0.329   0.212  0.00  0.00    +0.000 C 
ATOM      7  C   UNL     1       0.968   1.042  -0.321  0.00  0.00    +0.000 C 
ATOM      8  C   UNL     1      -0.433   1.406   0.166  0.00  0.00    +0.000 C 
ENDBRANCH   1   6
BRANCH   2   9
ATOM      9  C   UNL     1       5.184  -1.241  -0.081  0.00  0.00    +0.000 A 
ATOM     10  C   UNL     1       5.694  -0.709  -1.273  0.00  0.00    +0.000 A 
ATOM     11  C   UNL     1       6.973  -1.061  -1.700  0.00  0.00    +0.000 A 
ATOM     12  C   UNL     1       7.763  -1.927  -0.954  0.00  0.00    +0.000 A 
ATOM     13  C   UNL     1       7.272  -2.447   0.240  0.00  0.00    +0.000 A 
ATOM     14  C   UNL     1       5.990  -2.101   0.678  0.00  0.00    +0.000 A 
BRANCH  11  15
ATOM     15  O   UNL     1       7.497  -0.564  -2.858  0.00  0.00    +0.000 OA
ATOM     16  H   UNL     1       6.993   0.023  -3.386  0.00  0.00    +0.000 HD
ENDBRANCH  11  15
ENDBRANCH   2   9
TORSDOF 3
