REMARK  Name = *****
REMARK  2 active torsions:
REMARK  status: ('A' for Active; 'I' for Inactive)
REMARK    1  A    between atoms: C_5  and  C_7
REMARK    2  A    between atoms: C_8  and  C_9
REMARK                            x       y       z     vdW  Elec       q    Type
REMARK                         _______ _______ _______ _____ _____    ______ ____
ROOT
ATOM      1  C   UNL     1       0.287  -2.430  -0.164  0.00  0.00    +0.000 C 
ATOM      2  C   UNL     1       0.842  -3.613  -0.482  0.00  0.00    +0.000 C 
ENDROOT
BRANCH   1   7
ATOM      3  C   UNL     1       3.192   0.107   0.341  0.00  0.00    +0.000 C 
ATOM      4  C   UNL     1       2.503   1.320  -0.258  0.00  0.00    +0.000 C 
ATOM      5  C   UNL     1       1.042   1.370   0.182  0.00  0.00    +0.000 C 
ATOM      6  C   UNL     1       0.334   0.036   0.101  0.00  0.00    +0.000 C 
ATOM      7  C   UNL     1       0.982  -1.143  -0.055  0.00  0.00    +0.000 C 
ATOM      8  C   UNL     1       2.502  -1.182  -0.107  0.00  0.00    +0.000 C 
ATOM      9 BR   UNL     1      -1.537   0.238   0.212  0.00  0.00    +0.000 Br
ENDBRANCH   1   7
BRANCH   2  10
ATOM     10  C   UNL     1       0.084  -4.870  -0.570  0.00  0.00    +0.000 A 
ATOM     11  C   UNL     1      -1.185  -4.938  -1.162  0.00  0.00    +0.000 A 
ATOM     12  C   UNL     1      -1.861  -6.158  -1.254  0.00  0.00    +0.000 A 
ATOM     13  C   UNL     1      -1.271  -7.322  -0.766  0.00  0.00    +0.000 A 
ATOM     14  C   UNL     1      -0.004  -7.270  -0.191  0.00  0.00    +0.000 A 
ATOM     15  C   UNL     1       0.673  -6.051  -0.099  0.00  0.00    +0.000 A 
ENDBRANCH   2  10
TORSDOF 2
