REMARK  Name = *****
REMARK  3 active torsions:
REMARK  status: ('A' for Active; 'I' for Inactive)
REMARK    1  A    between atoms: C_1  and  C_2
REMARK    2  A    between atoms: C_3  and  C_12
REMARK    3  A    between atoms: N_13  and  C_14
REMARK                            x       y       z     vdW  Elec       q    Type
REMARK                         _______ _______ _______ _____ _____    ______ ____
ROOT
ATOM      1  C   UNL     1       0.983   0.152   0.196  0.00  0.00    +0.000 C 
ATOM      2  C   UNL     1       2.474  -0.009   0.088  0.00  0.00    +0.000 A 
ATOM      3  C   UNL     1       3.106  -1.248  -0.148  0.00  0.00    +0.000 A 
ATOM      4  C   UNL     1       4.503  -1.310  -0.241  0.00  0.00    +0.000 A 
ATOM      5  C   UNL     1       5.278  -0.167  -0.099  0.00  0.00    +0.000 A 
ATOM      6  C   UNL     1       4.671   1.053   0.138  0.00  0.00    +0.000 A 
ATOM      7  C   UNL     1       3.286   1.130   0.230  0.00  0.00    +0.000 A 
ATOM      8  F   UNL     1       2.722   2.325   0.459  0.00  0.00    +0.000 F 
ATOM      9  F   UNL     1       5.415   2.159   0.278  0.00  0.00    +0.000 F 
ATOM     10  F   UNL     1       6.613  -0.247  -0.189  0.00  0.00    +0.000 F 
ATOM     11  F   UNL     1       5.118  -2.482  -0.467  0.00  0.00    +0.000 F 
ENDROOT
BRANCH   3  12
ATOM     12  C   UNL     1       2.395  -2.537  -0.312  0.00  0.00    +0.000 C 
ATOM     13  N   UNL     1       1.113  -2.657  -0.174  0.00  0.00    +0.000 NA
BRANCH  13  14
ATOM     14  C   UNL     1       0.593  -3.946  -0.359  0.00  0.00    +0.000 A 
ATOM     15  C   UNL     1       0.591  -4.871   0.689  0.00  0.00    +0.000 A 
ATOM     16  C   UNL     1       0.059  -6.148   0.502  0.00  0.00    +0.000 A 
ATOM     17  C   UNL     1      -0.483  -6.503  -0.733  0.00  0.00    +0.000 A 
ATOM     18  C   UNL     1      -0.500  -5.579  -1.777  0.00  0.00    +0.000 A 
ATOM     19  C   UNL     1       0.033  -4.303  -1.587  0.00  0.00    +0.000 A 
ENDBRANCH  13  14
ENDBRANCH   3  12
TORSDOF 2
