REMARK  Name = *****
REMARK  2 active torsions:
REMARK  status: ('A' for Active; 'I' for Inactive)
REMARK    1  A    between atoms: C_4  and  C_7
REMARK    2  A    between atoms: C_8  and  C_9
REMARK                            x       y       z     vdW  Elec       q    Type
REMARK                         _______ _______ _______ _____ _____    ______ ____
ROOT
ATOM      1  C   UNL     1       2.993   0.089  -0.290  0.00  0.00    +0.000 C 
ATOM      2  C   UNL     1       4.189   0.099  -0.394  0.00  0.00    +0.000 C 
ENDROOT
BRANCH   2   3
ATOM      3  C   UNL     1       5.609   0.102  -0.518  0.00  0.00    +0.000 A 
ATOM      4  C   UNL     1       6.423  -1.005  -0.573  0.00  0.00    +0.000 A 
ATOM      5  S   UNL     1       8.053  -0.543  -0.722  0.00  0.00    +0.000 S 
ATOM      6  C   UNL     1       7.543   1.081  -0.699  0.00  0.00    +0.000 A 
ATOM      7  N   UNL     1       6.258   1.319  -0.591  0.00  0.00    +0.000 NA
ATOM      8 CL   UNL     1       8.703   2.341  -0.818  0.00  0.00    +0.000 Cl
ATOM      9 CL   UNL     1       6.004  -2.667  -0.514  0.00  0.00    +0.000 Cl
ENDBRANCH   2   3
BRANCH   1  13
ATOM     10  C   UNL     1      -1.214   0.046   0.075  0.00  0.00    +0.000 A 
ATOM     11  C   UNL     1      -0.532   1.261   0.018  0.00  0.00    +0.000 A 
ATOM     12  C   UNL     1       0.859   1.277  -0.102  0.00  0.00    +0.000 A 
ATOM     13  C   UNL     1       1.568   0.075  -0.166  0.00  0.00    +0.000 A 
ATOM     14  C   UNL     1       0.883  -1.141  -0.110  0.00  0.00    +0.000 A 
ATOM     15  C   UNL     1      -0.508  -1.155   0.011  0.00  0.00    +0.000 A 
ENDBRANCH   1  13
TORSDOF 2
