REMARK  Name = *****
REMARK  4 active torsions:
REMARK  status: ('A' for Active; 'I' for Inactive)
REMARK    1  A    between atoms: C_1  and  C_2
REMARK    2  A    between atoms: C_4  and  C_8
REMARK    3  A    between atoms: C_8  and  C_16
REMARK    4  A    between atoms: N_9  and  C_10
REMARK                            x       y       z     vdW  Elec       q    Type
REMARK                         _______ _______ _______ _____ _____    ______ ____
ROOT
ATOM      1  C   UNL     1      -1.885   2.469  -0.136  0.00  0.00    +0.000 C 
ATOM      2  N   UNL     1      -3.135   2.515   0.223  0.00  0.00    +0.000 NA
ATOM      3  C   UNL     1      -1.152   3.786  -0.259  0.00  0.00    +0.000 C 
ENDROOT
BRANCH   1   7
ATOM      4  C   UNL     1       1.990  -0.512   0.927  0.00  0.00    +0.000 C 
ATOM      5  C   UNL     1       0.807  -0.170   0.070  0.00  0.00    +0.000 A 
ATOM      6  C   UNL     1       0.033   0.963   0.350  0.00  0.00    +0.000 A 
ATOM      7  C   UNL     1      -1.093   1.251  -0.430  0.00  0.00    +0.000 A 
ATOM      8  C   UNL     1      -1.455   0.420  -1.491  0.00  0.00    +0.000 A 
ATOM      9  C   UNL     1      -0.696  -0.718  -1.762  0.00  0.00    +0.000 A 
ATOM     10  C   UNL     1       0.425  -1.013  -0.982  0.00  0.00    +0.000 A 
ENDBRANCH   1   7
BRANCH   2  11
ATOM     11  C   UNL     1      -3.877   1.342   0.417  0.00  0.00    +0.000 A 
ATOM     12  C   UNL     1      -3.661   0.517   1.525  0.00  0.00    +0.000 A 
ATOM     13  C   UNL     1      -4.429  -0.634   1.712  0.00  0.00    +0.000 A 
ATOM     14  C   UNL     1      -5.433  -0.958   0.800  0.00  0.00    +0.000 A 
ATOM     15  C   UNL     1      -5.674  -0.126  -0.292  0.00  0.00    +0.000 A 
ATOM     16  C   UNL     1      -4.903   1.024  -0.476  0.00  0.00    +0.000 A 
ENDBRANCH   2  11
TORSDOF 2
