REMARK  Name = *****
REMARK  5 active torsions:
REMARK  status: ('A' for Active; 'I' for Inactive)
REMARK    1  A    between atoms: C_1  and  C_2
REMARK    2  A    between atoms: C_4  and  C_17
REMARK    3  A    between atoms: C_6  and  O_8
REMARK    4  A    between atoms: O_8  and  C_9
REMARK    5  A    between atoms: C_9  and  C_11
REMARK                            x       y       z     vdW  Elec       q    Type
REMARK                         _______ _______ _______ _____ _____    ______ ____
ROOT
ATOM      1  O   UNL     1      -0.074  -3.065  -0.575  0.00  0.00    +0.000 OA
ENDROOT
BRANCH   1   7
ATOM      2  C   UNL     1       2.529   1.003   0.527  0.00  0.00    +0.000 C 
ATOM      3  C   UNL     1       1.235   0.317   0.202  0.00  0.00    +0.000 A 
ATOM      4  C   UNL     1       0.026   1.028   0.232  0.00  0.00    +0.000 A 
ATOM      5  C   UNL     1      -1.195   0.394  -0.043  0.00  0.00    +0.000 A 
ATOM      6  C   UNL     1      -1.202  -0.977  -0.321  0.00  0.00    +0.000 A 
ATOM      7  C   UNL     1       0.000  -1.682  -0.355  0.00  0.00    +0.000 A 
ATOM      8  C   UNL     1       1.213  -1.055  -0.074  0.00  0.00    +0.000 A 
ATOM      9  C   UNL     1      -2.481   1.161   0.028  0.00  0.00    +0.000 C 
ENDBRANCH   1   7
BRANCH   1  10
ATOM     10  C   UNL     1       0.663  -3.563  -1.635  0.00  0.00    +0.000 C 
ATOM     11  O   UNL     1       1.359  -2.931  -2.415  0.00  0.00    +0.000 OA
BRANCH  10  12
ATOM     12  C   UNL     1       0.492  -5.041  -1.712  0.00  0.00    +0.000 A 
ATOM     13  C   UNL     1      -0.327  -5.758  -0.828  0.00  0.00    +0.000 A 
ATOM     14  C   UNL     1      -0.447  -7.145  -0.950  0.00  0.00    +0.000 A 
ATOM     15  C   UNL     1       0.247  -7.823  -1.952  0.00  0.00    +0.000 A 
ATOM     16  C   UNL     1       1.063  -7.118  -2.835  0.00  0.00    +0.000 A 
ATOM     17  C   UNL     1       1.186  -5.732  -2.717  0.00  0.00    +0.000 A 
ENDBRANCH  10  12
ENDBRANCH   1  10
TORSDOF 3
