REMARK  Name = *****
REMARK  2 active torsions:
REMARK  status: ('A' for Active; 'I' for Inactive)
REMARK    1  A    between atoms: C_4  and  C_7
REMARK    2  A    between atoms: C_8  and  C_9
REMARK                            x       y       z     vdW  Elec       q    Type
REMARK                         _______ _______ _______ _____ _____    ______ ____
ROOT
ATOM      1  C   UNL     1      -2.768   0.589  -0.531  0.00  0.00    +0.000 C 
ATOM      2  C   UNL     1      -3.387   1.678  -0.034  0.00  0.00    +0.000 C 
ATOM      3 CL   UNL     1      -2.566   2.844   0.965  0.00  0.00    +0.000 Cl
ATOM      4 CL   UNL     1      -3.600  -0.597  -1.497  0.00  0.00    +0.000 Cl
ENDROOT
BRANCH   1   8
ATOM      5  C   UNL     1       1.355  -0.314   0.139  0.00  0.00    +0.000 A 
ATOM      6  C   UNL     1       0.368  -0.987   0.858  0.00  0.00    +0.000 A 
ATOM      7  C   UNL     1      -0.980  -0.693   0.639  0.00  0.00    +0.000 A 
ATOM      8  C   UNL     1      -1.348   0.278  -0.303  0.00  0.00    +0.000 A 
ATOM      9  C   UNL     1      -0.349   0.947  -1.023  0.00  0.00    +0.000 A 
ATOM     10  C   UNL     1       0.998   0.652  -0.801  0.00  0.00    +0.000 A 
ENDBRANCH   1   8
BRANCH   2  11
ATOM     11  C   UNL     1      -4.808   1.990  -0.262  0.00  0.00    +0.000 A 
ATOM     12  C   UNL     1      -5.755   1.743   0.741  0.00  0.00    +0.000 A 
ATOM     13  C   UNL     1      -7.103   2.036   0.525  0.00  0.00    +0.000 A 
ATOM     14  C   UNL     1      -7.513   2.576  -0.693  0.00  0.00    +0.000 A 
ATOM     15  C   UNL     1      -6.578   2.825  -1.697  0.00  0.00    +0.000 A 
ATOM     16  C   UNL     1      -5.229   2.535  -1.483  0.00  0.00    +0.000 A 
ENDBRANCH   2  11
TORSDOF 2
