REMARK  Name = *****
REMARK  6 active torsions:
REMARK  status: ('A' for Active; 'I' for Inactive)
REMARK    1  A    between atoms: C_1  and  C_2
REMARK    2  A    between atoms: C_4  and  C_19
REMARK    3  A    between atoms: C_5  and  C_9
REMARK    4  A    between atoms: C_6  and  C_8
REMARK    5  A    between atoms: N_11  and  C_12
REMARK    6  A    between atoms: N_11  and  C_13
REMARK                            x       y       z     vdW  Elec       q    Type
REMARK                         _______ _______ _______ _____ _____    ______ ____
ROOT
ATOM      1  C   UNL     1      -2.093  -1.869   0.463  0.00  0.00    +0.000 C 
ATOM      2  O   UNL     1      -1.894  -2.638   1.406  0.00  0.00    +0.000 OA
ATOM      3  N   UNL     1      -3.271  -1.887  -0.308  0.00  0.00    +0.000 N 
ATOM      4  C   UNL     1      -4.366  -2.698   0.215  0.00  0.00    +0.000 C 
ENDROOT
BRANCH   1   9
ATOM      5  C   UNL     1       2.017   2.138  -0.339  0.00  0.00    +0.000 C 
ATOM      6  C   UNL     1       0.945   1.104  -0.154  0.00  0.00    +0.000 A 
ATOM      7  C   UNL     1       1.230  -0.253  -0.337  0.00  0.00    +0.000 A 
ATOM      8  C   UNL     1       0.241  -1.231  -0.149  0.00  0.00    +0.000 A 
ATOM      9  C   UNL     1      -1.055  -0.828   0.245  0.00  0.00    +0.000 A 
ATOM     10  C   UNL     1      -1.336   0.529   0.508  0.00  0.00    +0.000 A 
ATOM     11  C   UNL     1      -0.331   1.483   0.279  0.00  0.00    +0.000 A 
ATOM     12  C   UNL     1      -2.671   1.004   1.010  0.00  0.00    +0.000 C 
ATOM     13  C   UNL     1       0.598  -2.680  -0.344  0.00  0.00    +0.000 C 
ENDBRANCH   1   9
BRANCH   3  14
ATOM     14  C   UNL     1      -3.499  -1.182  -1.536  0.00  0.00    +0.000 A 
ATOM     15  C   UNL     1      -2.471  -0.928  -2.452  0.00  0.00    +0.000 A 
ATOM     16  C   UNL     1      -2.717  -0.245  -3.649  0.00  0.00    +0.000 A 
ATOM     17  C   UNL     1      -4.002   0.185  -3.959  0.00  0.00    +0.000 A 
ATOM     18  C   UNL     1      -5.044  -0.078  -3.077  0.00  0.00    +0.000 A 
ATOM     19  C   UNL     1      -4.795  -0.762  -1.882  0.00  0.00    +0.000 A 
ENDBRANCH   3  14
TORSDOF 2
