REMARK  Name = *****
REMARK  2 active torsions:
REMARK  status: ('A' for Active; 'I' for Inactive)
REMARK    1  A    between atoms: C_4  and  C_7
REMARK    2  A    between atoms: C_10  and  C_12
REMARK                            x       y       z     vdW  Elec       q    Type
REMARK                         _______ _______ _______ _____ _____    ______ ____
ROOT
ATOM      1  C   UNL     1      -2.765   0.528  -0.112  0.00  0.00    +0.000 C 
ATOM      2  N   UNL     1      -3.662  -0.051   0.614  0.00  0.00    +0.000 NA
ATOM      3  O   UNL     1      -4.865   0.630   0.334  0.00  0.00    +0.000 OA
ATOM      4  C   UNL     1      -4.532   1.655  -0.613  0.00  0.00    +0.000 C 
ATOM      5  O   UNL     1      -3.149   1.550  -0.902  0.00  0.00    +0.000 OA
ENDROOT
BRANCH   4   6
ATOM      6  C   UNL     1      -4.826   3.040  -0.079  0.00  0.00    +0.000 A 
ATOM      7  C   UNL     1      -4.829   3.284   1.309  0.00  0.00    +0.000 A 
ATOM      8  C   UNL     1      -5.068   4.563   1.818  0.00  0.00    +0.000 A 
ATOM      9  C   UNL     1      -5.299   5.625   0.950  0.00  0.00    +0.000 A 
ATOM     10  C   UNL     1      -5.285   5.409  -0.427  0.00  0.00    +0.000 A 
ATOM     11  C   UNL     1      -5.045   4.128  -0.939  0.00  0.00    +0.000 A 
ATOM     12 CL   UNL     1      -5.021   3.955  -2.659  0.00  0.00    +0.000 Cl
ENDBRANCH   4   6
BRANCH   1  16
ATOM     13  C   UNL     1       1.383  -0.469  -0.219  0.00  0.00    +0.000 A 
ATOM     14  C   UNL     1       0.512  -1.166   0.617  0.00  0.00    +0.000 A 
ATOM     15  C   UNL     1      -0.845  -0.837   0.644  0.00  0.00    +0.000 A 
ATOM     16  C   UNL     1      -1.334   0.194  -0.168  0.00  0.00    +0.000 A 
ATOM     17  C   UNL     1      -0.455   0.891  -1.007  0.00  0.00    +0.000 A 
ATOM     18  C   UNL     1       0.901   0.558  -1.031  0.00  0.00    +0.000 A 
ENDBRANCH   1  16
TORSDOF 2
