REMARK  Name = *****
REMARK  3 active torsions:
REMARK  status: ('A' for Active; 'I' for Inactive)
REMARK    1  A    between atoms: C_1  and  C_2
REMARK    2  A    between atoms: C_5  and  C_8
REMARK    3  A    between atoms: C_9  and  C_10
REMARK                            x       y       z     vdW  Elec       q    Type
REMARK                         _______ _______ _______ _____ _____    ______ ____
ROOT
ATOM      1  C   UNL     1       1.211  -0.042   0.283  0.00  0.00    +0.000 C 
ATOM      2  C   UNL     1       2.694   0.010   0.060  0.00  0.00    +0.000 A 
ATOM      3  C   UNL     1       3.359   1.236  -0.071  0.00  0.00    +0.000 A 
ATOM      4  C   UNL     1       4.739   1.275  -0.305  0.00  0.00    +0.000 A 
ATOM      5  C   UNL     1       5.469   0.085  -0.417  0.00  0.00    +0.000 A 
ATOM      6  C   UNL     1       4.804  -1.140  -0.287  0.00  0.00    +0.000 A 
ATOM      7  C   UNL     1       3.427  -1.177  -0.053  0.00  0.00    +0.000 A 
ATOM      8 CL   UNL     1       5.487   2.828  -0.454  0.00  0.00    +0.000 Cl
ENDROOT
BRANCH   5   9
ATOM      9  C   UNL     1       6.878   0.076  -0.678  0.00  0.00    +0.000 C 
ATOM     10  C   UNL     1       8.055   0.078  -0.918  0.00  0.00    +0.000 C 
BRANCH  10  11
ATOM     11  C   UNL     1       9.451   0.103  -1.227  0.00  0.00    +0.000 A 
ATOM     12  C   UNL     1      10.109   1.325  -1.381  0.00  0.00    +0.000 A 
ATOM     13  C   UNL     1      11.469   1.352  -1.697  0.00  0.00    +0.000 A 
ATOM     14  C   UNL     1      12.171   0.158  -1.857  0.00  0.00    +0.000 A 
ATOM     15  C   UNL     1      11.516  -1.064  -1.701  0.00  0.00    +0.000 A 
ATOM     16  C   UNL     1      10.156  -1.092  -1.386  0.00  0.00    +0.000 A 
ENDBRANCH  10  11
ENDBRANCH   5   9
TORSDOF 2
