REMARK  Name = *****
REMARK  1 active torsions:
REMARK  status: ('A' for Active; 'I' for Inactive)
REMARK    1  A    between atoms: C_4  and  C_7
REMARK                            x       y       z     vdW  Elec       q    Type
REMARK                         _______ _______ _______ _____ _____    ______ ____
ROOT
ATOM      1  C   UNL     1      -3.049   0.137  -0.545  0.00  0.00    +0.000 A 
ATOM      2  N   UNL     1      -3.842   0.915  -1.263  0.00  0.00    +0.000 NA
ATOM      3  C   UNL     1      -5.102   0.472  -0.959  0.00  0.00    +0.000 A 
ATOM      4  C   UNL     1      -5.027  -0.574  -0.054  0.00  0.00    +0.000 A 
ATOM      5  O   UNL     1      -3.709  -0.796   0.218  0.00  0.00    +0.000 OA
ATOM      6  C   UNL     1      -6.119  -1.255   0.465  0.00  0.00    +0.000 A 
ATOM      7  C   UNL     1      -7.361  -0.813   0.008  0.00  0.00    +0.000 A 
ATOM      8  C   UNL     1      -7.493   0.237  -0.905  0.00  0.00    +0.000 A 
ATOM      9  C   UNL     1      -6.361   0.898  -1.404  0.00  0.00    +0.000 A 
ATOM     10  F   UNL     1      -8.468  -1.418   0.460  0.00  0.00    +0.000 F 
ENDROOT
BRANCH   1  14
ATOM     11  C   UNL     1       1.220   0.193  -0.341  0.00  0.00    +0.000 A 
ATOM     12  C   UNL     1       0.541   1.097  -1.153  0.00  0.00    +0.000 A 
ATOM     13  C   UNL     1      -0.855   1.071  -1.212  0.00  0.00    +0.000 A 
ATOM     14  C   UNL     1      -1.590   0.140  -0.461  0.00  0.00    +0.000 A 
ATOM     15  C   UNL     1      -0.890  -0.764   0.352  0.00  0.00    +0.000 A 
ATOM     16  C   UNL     1       0.507  -0.738   0.412  0.00  0.00    +0.000 A 
ENDBRANCH   1  14
TORSDOF 1
