REMARK  Name = *****
REMARK  4 active torsions:
REMARK  status: ('A' for Active; 'I' for Inactive)
REMARK    1  A    between atoms: C_4  and  C_7
REMARK    2  A    between atoms: C_7  and  S_16
REMARK    3  A    between atoms: C_8  and  C_9
REMARK    4  A    between atoms: C_8  and  S_15
REMARK                            x       y       z     vdW  Elec       q    Type
REMARK                         _______ _______ _______ _____ _____    ______ ____
ROOT
ATOM      1  C   UNL     1      -2.861   0.467  -0.249  0.00  0.00    +0.000 C 
ATOM      2  C   UNL     1      -3.335   1.735  -0.205  0.00  0.00    +0.000 C 
ENDROOT
BRANCH   1   6
ATOM      3  C   UNL     1       1.275  -0.499   0.240  0.00  0.00    +0.000 A 
ATOM      4  C   UNL     1       0.443  -0.416   1.356  0.00  0.00    +0.000 A 
ATOM      5  C   UNL     1      -0.909  -0.106   1.197  0.00  0.00    +0.000 A 
ATOM      6  C   UNL     1      -1.436   0.122  -0.082  0.00  0.00    +0.000 A 
ATOM      7  C   UNL     1      -0.591   0.039  -1.198  0.00  0.00    +0.000 A 
ATOM      8  C   UNL     1       0.760  -0.272  -1.035  0.00  0.00    +0.000 A 
ENDBRANCH   1   6
BRANCH   2   9
ATOM      9  C   UNL     1      -4.766   2.067  -0.367  0.00  0.00    +0.000 A 
ATOM     10  C   UNL     1      -5.622   2.072   0.744  0.00  0.00    +0.000 A 
ATOM     11  C   UNL     1      -6.976   2.376   0.589  0.00  0.00    +0.000 A 
ATOM     12  C   UNL     1      -7.484   2.676  -0.674  0.00  0.00    +0.000 A 
ATOM     13  C   UNL     1      -6.641   2.671  -1.785  0.00  0.00    +0.000 A 
ATOM     14  C   UNL     1      -5.287   2.367  -1.633  0.00  0.00    +0.000 A 
ENDBRANCH   2   9
BRANCH   2  15
ATOM     15  S   UNL     1      -2.352   3.161   0.048  0.00  0.00    +0.000 S 
ATOM     16  H   UNL     1      -1.050   2.795   0.190  0.00  0.00    +0.000 HD
ENDBRANCH   2  15
BRANCH   1  17
ATOM     17  S   UNL     1      -3.877  -0.934  -0.510  0.00  0.00    +0.000 S 
ATOM     18  H   UNL     1      -3.111  -2.057  -0.501  0.00  0.00    +0.000 HD
ENDBRANCH   1  17
TORSDOF 4
