REMARK  Name = *****
REMARK  2 active torsions:
REMARK  status: ('A' for Active; 'I' for Inactive)
REMARK    1  A    between atoms: C_4  and  C_7
REMARK    2  A    between atoms: C_7  and  C_8
REMARK                            x       y       z     vdW  Elec       q    Type
REMARK                         _______ _______ _______ _____ _____    ______ ____
ROOT
ATOM      1  C   UNL     1      -4.021   0.325  -0.562  0.00  0.00    +0.000 A 
ATOM      2  N   UNL     1      -4.563   0.995  -1.593  0.00  0.00    +0.000 NA
ATOM      3  O   UNL     1      -5.572   0.184  -2.083  0.00  0.00    +0.000 OA
ATOM      4  C   UNL     1      -5.643  -0.953  -1.342  0.00  0.00    +0.000 A 
ATOM      5  C   UNL     1      -6.542  -2.000  -1.530  0.00  0.00    +0.000 A 
ATOM      6  C   UNL     1      -6.434  -3.075  -0.640  0.00  0.00    +0.000 A 
ATOM      7  C   UNL     1      -5.473  -3.079   0.375  0.00  0.00    +0.000 A 
ATOM      8  C   UNL     1      -4.584  -2.005   0.536  0.00  0.00    +0.000 A 
ATOM      9  C   UNL     1      -4.678  -0.918  -0.352  0.00  0.00    +0.000 A 
ENDROOT
BRANCH   1  10
ATOM     10  C   UNL     1      -2.907   0.937   0.215  0.00  0.00    +0.000 C 
BRANCH  10  14
ATOM     11  C   UNL     1       0.696  -1.265  -0.701  0.00  0.00    +0.000 A 
ATOM     12  C   UNL     1       0.094  -0.478  -1.680  0.00  0.00    +0.000 A 
ATOM     13  C   UNL     1      -1.070   0.234  -1.388  0.00  0.00    +0.000 A 
ATOM     14  C   UNL     1      -1.653   0.159  -0.112  0.00  0.00    +0.000 A 
ATOM     15  C   UNL     1      -1.031  -0.630   0.867  0.00  0.00    +0.000 A 
ATOM     16  C   UNL     1       0.135  -1.340   0.572  0.00  0.00    +0.000 A 
ENDBRANCH  10  14
ENDBRANCH   1  10
TORSDOF 2
