REMARK  Name = *****
REMARK  4 active torsions:
REMARK  status: ('A' for Active; 'I' for Inactive)
REMARK    1  A    between atoms: C_3  and  C_8
REMARK    2  A    between atoms: C_8  and  C_9
REMARK    3  A    between atoms: C_9  and  C_10
REMARK    4  A    between atoms: C_10  and  C_12
REMARK                            x       y       z     vdW  Elec       q    Type
REMARK                         _______ _______ _______ _____ _____    ______ ____
ROOT
ATOM      1  C   UNL     1       2.407   4.946   0.449  0.00  0.00    +0.000 C 
ATOM      2  O   UNL     1       3.626   4.966   0.294  0.00  0.00    +0.000 OA
ENDROOT
BRANCH   1   3
ATOM      3  C   UNL     1       1.695   6.226   0.753  0.00  0.00    +0.000 A 
ATOM      4  C   UNL     1       0.302   6.295   0.888  0.00  0.00    +0.000 A 
ATOM      5  C   UNL     1      -0.309   7.520   1.174  0.00  0.00    +0.000 A 
ATOM      6  C   UNL     1       0.462   8.671   1.324  0.00  0.00    +0.000 A 
ATOM      7  C   UNL     1       1.845   8.615   1.191  0.00  0.00    +0.000 A 
ATOM      8  C   UNL     1       2.461   7.394   0.905  0.00  0.00    +0.000 A 
ATOM      9  F   UNL     1      -0.112   9.851   1.598  0.00  0.00    +0.000 F 
ATOM     10 CL   UNL     1      -2.022   7.587   1.336  0.00  0.00    +0.000 Cl
ENDBRANCH   1   3
BRANCH   1  11
ATOM     11  C   UNL     1       1.597   3.668   0.340  0.00  0.00    +0.000 C 
BRANCH  11  12
ATOM     12  C   UNL     1       2.491   2.454   0.087  0.00  0.00    +0.000 C 
BRANCH  12  15
ATOM     13  C   UNL     1       0.433  -0.423  -1.337  0.00  0.00    +0.000 A 
ATOM     14  C   UNL     1       1.203   0.738  -1.250  0.00  0.00    +0.000 A 
ATOM     15  C   UNL     1       1.679   1.185  -0.010  0.00  0.00    +0.000 A 
ATOM     16  C   UNL     1       1.363   0.455   1.145  0.00  0.00    +0.000 A 
ATOM     17  C   UNL     1       0.592  -0.704   1.051  0.00  0.00    +0.000 A 
ATOM     18  C   UNL     1       0.126  -1.146  -0.185  0.00  0.00    +0.000 A 
ATOM     19 CL   UNL     1       0.210  -1.592   2.475  0.00  0.00    +0.000 Cl
ENDBRANCH  12  15
ENDBRANCH  11  12
ENDBRANCH   1  11
TORSDOF 4
