REMARK  Name = *****
REMARK  4 active torsions:
REMARK  status: ('A' for Active; 'I' for Inactive)
REMARK    1  A    between atoms: C_4  and  C_7
REMARK    2  A    between atoms: C_8  and  C_9
REMARK    3  A    between atoms: C_14  and  S_15
REMARK    4  A    between atoms: S_15  and  C_16
REMARK                            x       y       z     vdW  Elec       q    Type
REMARK                         _______ _______ _______ _____ _____    ______ ____
ROOT
ATOM      1  C   UNL     1      -5.099  -0.244  -0.468  0.00  0.00    +0.000 A 
ATOM      2  C   UNL     1      -5.798  -0.454   0.732  0.00  0.00    +0.000 A 
ATOM      3  C   UNL     1      -7.155  -0.147   0.829  0.00  0.00    +0.000 A 
ATOM      4  C   UNL     1      -7.829   0.372  -0.272  0.00  0.00    +0.000 A 
ATOM      5  C   UNL     1      -7.147   0.583  -1.473  0.00  0.00    +0.000 A 
ATOM      6  C   UNL     1      -5.781   0.274  -1.588  0.00  0.00    +0.000 A 
ENDROOT
BRANCH   1   8
ATOM      7  C   UNL     1      -2.754   0.395  -0.198  0.00  0.00    +0.000 C 
ATOM      8  C   UNL     1      -3.665  -0.554  -0.464  0.00  0.00    +0.000 C 
BRANCH   7  12
ATOM      9  C   UNL     1       1.476  -0.191   0.078  0.00  0.00    +0.000 A 
ATOM     10  C   UNL     1       0.730  -0.992  -0.784  0.00  0.00    +0.000 A 
ATOM     11  C   UNL     1      -0.653  -0.816  -0.886  0.00  0.00    +0.000 A 
ATOM     12  C   UNL     1      -1.306   0.157  -0.117  0.00  0.00    +0.000 A 
ATOM     13  C   UNL     1      -0.541   0.967   0.733  0.00  0.00    +0.000 A 
ATOM     14  C   UNL     1       0.841   0.792   0.834  0.00  0.00    +0.000 A 
ENDBRANCH   7  12
ENDBRANCH   1   8
BRANCH   6  15
ATOM     15  S   UNL     1      -4.991   0.627  -3.158  0.00  0.00    +0.000 S 
BRANCH  15  16
ATOM     16  C   UNL     1      -4.662  -0.972  -3.599  0.00  0.00    +0.000 C 
ATOM     17  N   UNL     1      -4.428  -2.066  -3.907  0.00  0.00    +0.000 NA
ENDBRANCH  15  16
ENDBRANCH   6  15
TORSDOF 4
