REMARK  Name = *****
REMARK  3 active torsions:
REMARK  status: ('A' for Active; 'I' for Inactive)
REMARK    1  A    between atoms: C_1  and  C_2
REMARK    2  A    between atoms: C_5  and  C_7
REMARK    3  A    between atoms: C_8  and  C_9
REMARK                            x       y       z     vdW  Elec       q    Type
REMARK                         _______ _______ _______ _____ _____    ______ ____
ROOT
ATOM      1  C   UNL     1      -2.928   0.680  -0.096  0.00  0.00    +0.000 C 
ATOM      2  C   UNL     1      -4.075   0.041   0.186  0.00  0.00    +0.000 C 
ENDROOT
BRANCH   2   3
ATOM      3  C   UNL     1      -5.395   0.691   0.088  0.00  0.00    +0.000 A 
ATOM      4  C   UNL     1      -5.757   1.345  -1.102  0.00  0.00    +0.000 A 
ATOM      5  C   UNL     1      -7.010   1.948  -1.236  0.00  0.00    +0.000 A 
ATOM      6  C   UNL     1      -7.923   1.900  -0.187  0.00  0.00    +0.000 A 
ATOM      7  C   UNL     1      -7.586   1.245   0.997  0.00  0.00    +0.000 A 
ATOM      8  C   UNL     1      -6.332   0.639   1.134  0.00  0.00    +0.000 A 
ATOM      9 CL   UNL     1      -5.989  -0.152   2.636  0.00  0.00    +0.000 Cl
ENDBRANCH   2   3
BRANCH   1  14
ATOM     10  C   UNL     1       2.281  -0.160  -0.197  0.00  0.00    +0.000 C 
ATOM     11  C   UNL     1       0.809  -0.335  -0.041  0.00  0.00    +0.000 A 
ATOM     12  C   UNL     1       0.117  -1.454   0.362  0.00  0.00    +0.000 A 
ATOM     13  C   UNL     1      -1.292  -1.234   0.392  0.00  0.00    +0.000 A 
ATOM     14  C   UNL     1      -1.653   0.049   0.012  0.00  0.00    +0.000 A 
ATOM     15  S   UNL     1      -0.243   0.966  -0.380  0.00  0.00    +0.000 S 
ENDBRANCH   1  14
TORSDOF 2
