REMARK  Name = *****
REMARK  3 active torsions:
REMARK  status: ('A' for Active; 'I' for Inactive)
REMARK    1  A    between atoms: C_4  and  C_7
REMARK    2  A    between atoms: C_7  and  C_8
REMARK    3  A    between atoms: C_8  and  C_9
REMARK                            x       y       z     vdW  Elec       q    Type
REMARK                         _______ _______ _______ _____ _____    ______ ____
ROOT
ATOM      1  C   UNL     1      -2.694   0.263  -0.399  0.00  0.00    +0.000 C 
ENDROOT
BRANCH   1   5
ATOM      2  C   UNL     1       1.529  -0.187   0.116  0.00  0.00    +0.000 A 
ATOM      3  C   UNL     1       0.735  -1.317  -0.071  0.00  0.00    +0.000 A 
ATOM      4  C   UNL     1      -0.647  -1.183  -0.235  0.00  0.00    +0.000 A 
ATOM      5  C   UNL     1      -1.250   0.080  -0.204  0.00  0.00    +0.000 A 
ATOM      6  C   UNL     1      -0.438   1.209  -0.029  0.00  0.00    +0.000 A 
ATOM      7  C   UNL     1       0.943   1.076   0.135  0.00  0.00    +0.000 A 
ENDBRANCH   1   5
BRANCH   1   8
ATOM      8  C   UNL     1      -3.748  -0.686  -0.117  0.00  0.00    +0.000 C 
BRANCH   8   9
ATOM      9  C   UNL     1      -5.190  -0.496  -0.314  0.00  0.00    +0.000 A 
ATOM     10  C   UNL     1      -6.000  -1.614  -0.555  0.00  0.00    +0.000 A 
ATOM     11  C   UNL     1      -7.379  -1.472  -0.724  0.00  0.00    +0.000 A 
ATOM     12  C   UNL     1      -7.965  -0.211  -0.643  0.00  0.00    +0.000 A 
ATOM     13  C   UNL     1      -7.173   0.907  -0.388  0.00  0.00    +0.000 A 
ATOM     14  C   UNL     1      -5.793   0.764  -0.220  0.00  0.00    +0.000 A 
ENDBRANCH   8   9
ENDBRANCH   1   8
TORSDOF 3
