REMARK  Name = *****
REMARK  4 active torsions:
REMARK  status: ('A' for Active; 'I' for Inactive)
REMARK    1  A    between atoms: C_4  and  C_7
REMARK    2  A    between atoms: C_7  and  O_10
REMARK    3  A    between atoms: O_10  and  C_11
REMARK    4  A    between atoms: C_11  and  C_13
REMARK                            x       y       z     vdW  Elec       q    Type
REMARK                         _______ _______ _______ _____ _____    ______ ____
ROOT
ATOM      1  C   UNL     1      -2.932   0.485  -0.211  0.00  0.00    +0.000 C 
ATOM      2  C   UNL     1      -2.977   1.154   0.908  0.00  0.00    +0.000 C 
ATOM      3  O   UNL     1      -2.995   1.743   1.927  0.00  0.00    +0.000 OA
ENDROOT
BRANCH   1   7
ATOM      4  C   UNL     1       0.405   0.551  -2.925  0.00  0.00    +0.000 A 
ATOM      5  C   UNL     1       0.351   1.454  -1.867  0.00  0.00    +0.000 A 
ATOM      6  C   UNL     1      -0.732   1.435  -0.982  0.00  0.00    +0.000 A 
ATOM      7  C   UNL     1      -1.779   0.508  -1.136  0.00  0.00    +0.000 A 
ATOM      8  C   UNL     1      -1.707  -0.388  -2.216  0.00  0.00    +0.000 A 
ATOM      9  C   UNL     1      -0.625  -0.369  -3.101  0.00  0.00    +0.000 A 
ENDBRANCH   1   7
BRANCH   1  10
ATOM     10  O   UNL     1      -3.786  -0.629  -0.309  0.00  0.00    +0.000 OA
BRANCH  10  11
ATOM     11  C   UNL     1      -5.098  -0.290  -0.479  0.00  0.00    +0.000 C 
ATOM     12  O   UNL     1      -5.546   0.836  -0.630  0.00  0.00    +0.000 OA
BRANCH  11  13
ATOM     13  C   UNL     1      -5.946  -1.514  -0.488  0.00  0.00    +0.000 A 
ATOM     14  C   UNL     1      -5.421  -2.802  -0.308  0.00  0.00    +0.000 A 
ATOM     15  C   UNL     1      -6.267  -3.914  -0.329  0.00  0.00    +0.000 A 
ATOM     16  C   UNL     1      -7.637  -3.748  -0.527  0.00  0.00    +0.000 A 
ATOM     17  C   UNL     1      -8.167  -2.472  -0.705  0.00  0.00    +0.000 A 
ATOM     18  C   UNL     1      -7.326  -1.357  -0.686  0.00  0.00    +0.000 A 
ENDBRANCH  11  13
ENDBRANCH  10  11
ENDBRANCH   1  10
TORSDOF 4
