REMARK  Name = *****
REMARK  4 active torsions:
REMARK  status: ('A' for Active; 'I' for Inactive)
REMARK    1  A    between atoms: C_4  and  O_7
REMARK    2  A    between atoms: O_7  and  C_8
REMARK    3  A    between atoms: C_8  and  C_10
REMARK    4  A    between atoms: C_11  and  C_17
REMARK                            x       y       z     vdW  Elec       q    Type
REMARK                         _______ _______ _______ _____ _____    ______ ____
ROOT
ATOM      1  C   UNL     1      -5.146  -0.622  -0.505  0.00  0.00    +0.000 A 
ATOM      2  C   UNL     1      -5.416   0.457  -1.369  0.00  0.00    +0.000 A 
ATOM      3  C   UNL     1      -6.751   0.881  -1.515  0.00  0.00    +0.000 A 
ATOM      4  C   UNL     1      -7.771   0.253  -0.807  0.00  0.00    +0.000 A 
ATOM      5  C   UNL     1      -7.502  -0.805   0.051  0.00  0.00    +0.000 A 
ATOM      6  C   UNL     1      -6.188  -1.249   0.202  0.00  0.00    +0.000 A 
ATOM      7  F   UNL     1      -9.032   0.676  -0.956  0.00  0.00    +0.000 F 
ENDROOT
BRANCH   2   8
ATOM      8  C   UNL     1      -4.320   1.164  -2.128  0.00  0.00    +0.000 C 
ATOM      9  F   UNL     1      -3.222   1.420  -1.367  0.00  0.00    +0.000 F 
ATOM     10  F   UNL     1      -3.903   0.483  -3.225  0.00  0.00    +0.000 F 
ATOM     11  F   UNL     1      -4.720   2.385  -2.590  0.00  0.00    +0.000 F 
ENDBRANCH   2   8
BRANCH   1  12
ATOM     12  C   UNL     1      -3.768  -1.143  -0.360  0.00  0.00    +0.000 C 
ATOM     13  O   UNL     1      -3.033  -1.340  -1.311  0.00  0.00    +0.000 OA
BRANCH  12  14
ATOM     14  O   UNL     1      -3.510  -1.305   0.986  0.00  0.00    +0.000 OA
BRANCH  14  18
ATOM     15  C   UNL     1       0.311  -2.551   2.116  0.00  0.00    +0.000 A 
ATOM     16  C   UNL     1       0.171  -1.391   1.352  0.00  0.00    +0.000 A 
ATOM     17  C   UNL     1      -1.096  -0.964   0.954  0.00  0.00    +0.000 A 
ATOM     18  C   UNL     1      -2.213  -1.720   1.310  0.00  0.00    +0.000 A 
ATOM     19  C   UNL     1      -2.085  -2.868   2.091  0.00  0.00    +0.000 A 
ATOM     20  C   UNL     1      -0.816  -3.288   2.488  0.00  0.00    +0.000 A 
ENDBRANCH  14  18
ENDBRANCH  12  14
ENDBRANCH   1  12
TORSDOF 4
