REMARK  Name = *****
REMARK  1 active torsions:
REMARK  status: ('A' for Active; 'I' for Inactive)
REMARK    1  A    between atoms: C_1  and  N_2
REMARK                            x       y       z     vdW  Elec       q    Type
REMARK                         _______ _______ _______ _____ _____    ______ ____
ROOT
ATOM      1  C   UNL     1       0.358   0.141  -0.452  0.00  0.00    +0.000 C 
ATOM      2  N   UNL     1       1.361  -0.085  -1.488  0.00  0.00    +0.000 N 
ATOM      3  C   UNL     1       0.940   0.288  -2.817  0.00  0.00    +0.000 A 
ATOM      4  C   UNL     1       0.396  -0.663  -3.729  0.00  0.00    +0.000 A 
ATOM      5  C   UNL     1      -0.032  -0.265  -4.992  0.00  0.00    +0.000 A 
ATOM      6  C   UNL     1       0.064   1.078  -5.340  0.00  0.00    +0.000 A 
ATOM      7  C   UNL     1       0.566   2.028  -4.450  0.00  0.00    +0.000 A 
ATOM      8  C   UNL     1       0.997   1.636  -3.181  0.00  0.00    +0.000 A 
ATOM      9  F   UNL     1      -0.352   1.473  -6.550  0.00  0.00    +0.000 F 
ATOM     10  C   UNL     1       0.236  -2.015  -3.287  0.00  0.00    +0.000 C 
ATOM     11  C   UNL     1       0.401  -2.869  -2.462  0.00  0.00    +0.000 C 
ATOM     12  C   UNL     1       0.970  -3.249  -1.207  0.00  0.00    +0.000 A 
ATOM     13  C   UNL     1       0.625  -4.426  -0.553  0.00  0.00    +0.000 A 
ATOM     14  C   UNL     1       1.223  -4.722   0.677  0.00  0.00    +0.000 A 
ATOM     15  C   UNL     1       2.164  -3.852   1.243  0.00  0.00    +0.000 A 
ATOM     16  C   UNL     1       2.516  -2.668   0.591  0.00  0.00    +0.000 A 
ATOM     17  C   UNL     1       1.899  -2.357  -0.620  0.00  0.00    +0.000 A 
ATOM     18  C   UNL     1       2.295  -1.134  -1.377  0.00  0.00    +0.000 C 
ATOM     19  O   UNL     1       3.376  -1.149  -1.962  0.00  0.00    +0.000 OA
ENDROOT
TORSDOF 0
