REMARK  Name = *****
REMARK  3 active torsions:
REMARK  status: ('A' for Active; 'I' for Inactive)
REMARK    1  A    between atoms: C_4  and  C_7
REMARK    2  A    between atoms: C_7  and  O_9
REMARK    3  A    between atoms: O_9  and  C_10
REMARK                            x       y       z     vdW  Elec       q    Type
REMARK                         _______ _______ _______ _____ _____    ______ ____
ROOT
ATOM      1  C   UNL     1      -4.373  -1.427   1.315  0.00  0.00    +0.000 A 
ATOM      2  C   UNL     1      -5.503  -1.211   0.531  0.00  0.00    +0.000 A 
ATOM      3  C   UNL     1      -6.765  -1.264   1.111  0.00  0.00    +0.000 A 
ATOM      4  C   UNL     1      -6.896  -1.543   2.467  0.00  0.00    +0.000 A 
ATOM      5  C   UNL     1      -5.767  -1.775   3.245  0.00  0.00    +0.000 A 
ATOM      6  C   UNL     1      -4.504  -1.723   2.669  0.00  0.00    +0.000 A 
ATOM      7  F   UNL     1      -3.415  -1.962   3.413  0.00  0.00    +0.000 F 
ATOM      8  F   UNL     1      -5.899  -2.060   4.548  0.00  0.00    +0.000 F 
ATOM      9  F   UNL     1      -8.115  -1.601   3.023  0.00  0.00    +0.000 F 
ATOM     10  F   UNL     1      -7.856  -1.057   0.361  0.00  0.00    +0.000 F 
ATOM     11  F   UNL     1      -5.374  -0.956  -0.778  0.00  0.00    +0.000 F 
ENDROOT
BRANCH   1  12
ATOM     12  O   UNL     1      -3.108  -1.384   0.732  0.00  0.00    +0.000 OA
BRANCH  12  13
ATOM     13  C   UNL     1      -2.573  -0.113   0.820  0.00  0.00    +0.000 C 
ATOM     14  O   UNL     1      -3.104   0.863   1.331  0.00  0.00    +0.000 OA
BRANCH  13  18
ATOM     15  C   UNL     1       1.337   0.093  -0.933  0.00  0.00    +0.000 A 
ATOM     16  C   UNL     1       0.780   1.203  -0.300  0.00  0.00    +0.000 A 
ATOM     17  C   UNL     1      -0.494   1.117   0.265  0.00  0.00    +0.000 A 
ATOM     18  C   UNL     1      -1.219  -0.081   0.200  0.00  0.00    +0.000 A 
ATOM     19  C   UNL     1      -0.653  -1.193  -0.439  0.00  0.00    +0.000 A 
ATOM     20  C   UNL     1       0.623  -1.103  -1.004  0.00  0.00    +0.000 A 
ENDBRANCH  13  18
ENDBRANCH  12  13
ENDBRANCH   1  12
TORSDOF 3
