REMARK  Name = *****
REMARK  5 active torsions:
REMARK  status: ('A' for Active; 'I' for Inactive)
REMARK    1  A    between atoms: C_1  and  C_2
REMARK    2  A    between atoms: C_4  and  C_8
REMARK    3  A    between atoms: C_8  and  O_10
REMARK    4  A    between atoms: O_10  and  C_11
REMARK    5  A    between atoms: C_15  and  C_17
REMARK                            x       y       z     vdW  Elec       q    Type
REMARK                         _______ _______ _______ _____ _____    ______ ____
ROOT
ATOM      1  C   UNL     1      -1.667   2.352   0.833  0.00  0.00    +0.000 C 
ATOM      2  O   UNL     1      -2.885   2.449   0.820  0.00  0.00    +0.000 OA
ENDROOT
BRANCH   1   6
ATOM      3  C   UNL     1       2.595  -0.165  -0.216  0.00  0.00    +0.000 C 
ATOM      4  C   UNL     1       1.098  -0.059  -0.240  0.00  0.00    +0.000 A 
ATOM      5  C   UNL     1       0.461   1.077   0.283  0.00  0.00    +0.000 A 
ATOM      6  C   UNL     1      -0.939   1.169   0.293  0.00  0.00    +0.000 A 
ATOM      7  C   UNL     1      -1.700   0.108  -0.216  0.00  0.00    +0.000 A 
ATOM      8  C   UNL     1      -1.072  -1.031  -0.722  0.00  0.00    +0.000 A 
ATOM      9  C   UNL     1       0.320  -1.115  -0.728  0.00  0.00    +0.000 A 
ENDBRANCH   1   6
BRANCH   1  10
ATOM     10  O   UNL     1      -0.759   3.272   1.327  0.00  0.00    +0.000 OA
BRANCH  10  11
ATOM     11  C   UNL     1      -1.311   4.421   1.908  0.00  0.00    +0.000 A 
ATOM     12  C   UNL     1      -2.102   4.341   3.053  0.00  0.00    +0.000 A 
ATOM     13  C   UNL     1      -2.585   5.514   3.628  0.00  0.00    +0.000 A 
ATOM     14  C   UNL     1      -2.258   6.754   3.072  0.00  0.00    +0.000 A 
ATOM     15  C   UNL     1      -1.431   6.835   1.942  0.00  0.00    +0.000 A 
ATOM     16  C   UNL     1      -0.961   5.653   1.357  0.00  0.00    +0.000 A 
ATOM     17  C   UNL     1      -1.105   8.166   1.333  0.00  0.00    +0.000 C 
ENDBRANCH  10  11
ENDBRANCH   1  10
TORSDOF 3
