REMARK  Name = *****
REMARK  5 active torsions:
REMARK  status: ('A' for Active; 'I' for Inactive)
REMARK    1  A    between atoms: C_1  and  O_2
REMARK    2  A    between atoms: O_2  and  C_3
REMARK    3  A    between atoms: C_6  and  C_9
REMARK    4  A    between atoms: C_10  and  C_11
REMARK    5  A    between atoms: C_14  and  C_17
REMARK                            x       y       z     vdW  Elec       q    Type
REMARK                         _______ _______ _______ _____ _____    ______ ____
ROOT
ATOM      1  C   UNL     1       5.513  -3.526   3.096  0.00  0.00    +0.000 C 
ATOM      2  C   UNL     1       5.201  -4.813   3.316  0.00  0.00    +0.000 C 
ENDROOT
BRANCH   1   6
ATOM      3  C   UNL     1       3.210  -0.801   0.715  0.00  0.00    +0.000 A 
ATOM      4  C   UNL     1       2.560  -1.728   1.528  0.00  0.00    +0.000 A 
ATOM      5  C   UNL     1       3.302  -2.628   2.305  0.00  0.00    +0.000 A 
ATOM      6  C   UNL     1       4.702  -2.619   2.271  0.00  0.00    +0.000 A 
ATOM      7  C   UNL     1       5.347  -1.674   1.467  0.00  0.00    +0.000 A 
ATOM      8  C   UNL     1       4.605  -0.778   0.692  0.00  0.00    +0.000 A 
BRANCH   3  10
ATOM      9  C   UNL     1       1.187   0.135  -0.111  0.00  0.00    +0.000 C 
ATOM     10  O   UNL     1       2.609   0.129  -0.088  0.00  0.00    +0.000 OA
ENDBRANCH   3  10
ENDBRANCH   1   6
BRANCH   2  11
ATOM     11  C   UNL     1       6.021  -5.726   4.124  0.00  0.00    +0.000 A 
ATOM     12  C   UNL     1       6.639  -5.319   5.313  0.00  0.00    +0.000 A 
ATOM     13  C   UNL     1       7.387  -6.224   6.073  0.00  0.00    +0.000 A 
ATOM     14  C   UNL     1       7.530  -7.556   5.661  0.00  0.00    +0.000 A 
ATOM     15  C   UNL     1       6.891  -7.968   4.482  0.00  0.00    +0.000 A 
ATOM     16  C   UNL     1       6.142  -7.062   3.725  0.00  0.00    +0.000 A 
BRANCH  14  17
ATOM     17  C   UNL     1       8.318  -8.543   6.486  0.00  0.00    +0.000 C 
ATOM     18  F   UNL     1       9.227  -7.953   7.312  0.00  0.00    +0.000 F 
ATOM     19  F   UNL     1       7.520  -9.300   7.289  0.00  0.00    +0.000 F 
ATOM     20  F   UNL     1       9.026  -9.424   5.726  0.00  0.00    +0.000 F 
ENDBRANCH  14  17
ENDBRANCH   2  11
TORSDOF 4
