REMARK  Name = *****
REMARK  6 active torsions:
REMARK  status: ('A' for Active; 'I' for Inactive)
REMARK    1  A    between atoms: C_1  and  C_2
REMARK    2  A    between atoms: C_2  and  C_3
REMARK    3  A    between atoms: C_2  and  N_10
REMARK    4  A    between atoms: C_8  and  C_9
REMARK    5  A    between atoms: N_10  and  C_11
REMARK    6  A    between atoms: C_11  and  C_12
REMARK                            x       y       z     vdW  Elec       q    Type
REMARK                         _______ _______ _______ _____ _____    ______ ____
ROOT
ATOM      1  C   UNL     1       0.971  -0.521  -0.441  0.00  0.00    +0.000 C 
ATOM      2  C   UNL     1       2.484  -0.438  -0.387  0.00  0.00    +0.000 C 
ENDROOT
BRANCH   2   3
ATOM      3  C   UNL     1       3.226  -1.050   0.580  0.00  0.00    +0.000 A 
ATOM      4  C   UNL     1       2.546  -1.750   1.694  0.00  0.00    +0.000 A 
ATOM      5  C   UNL     1       3.214  -2.088   2.811  0.00  0.00    +0.000 A 
ATOM      6  C   UNL     1       4.622  -1.787   2.972  0.00  0.00    +0.000 A 
ATOM      7  C   UNL     1       5.351  -1.297   1.955  0.00  0.00    +0.000 A 
ATOM      8  C   UNL     1       4.723  -1.041   0.651  0.00  0.00    +0.000 A 
ATOM      9  C   UNL     1       5.543  -0.879  -0.403  0.00  0.00    +0.000 C 
ENDBRANCH   2   3
BRANCH   2  10
ATOM     10  N   UNL     1       3.021   0.310  -1.415  0.00  0.00    +0.000 NA
BRANCH  10  11
ATOM     11  C   UNL     1       3.115   1.579  -1.158  0.00  0.00    +0.000 C 
BRANCH  11  12
ATOM     12  C   UNL     1       3.668   2.533  -2.139  0.00  0.00    +0.000 A 
ATOM     13  C   UNL     1       4.180   2.089  -3.361  0.00  0.00    +0.000 A 
ATOM     14  C   UNL     1       4.699   3.011  -4.272  0.00  0.00    +0.000 A 
ATOM     15  C   UNL     1       4.701   4.371  -3.962  0.00  0.00    +0.000 A 
ATOM     16  C   UNL     1       4.188   4.814  -2.742  0.00  0.00    +0.000 A 
ATOM     17  C   UNL     1       3.672   3.896  -1.826  0.00  0.00    +0.000 A 
ENDBRANCH  11  12
ENDBRANCH  10  11
ENDBRANCH   2  10
TORSDOF 4
