REMARK  Name = *****
REMARK  5 active torsions:
REMARK  status: ('A' for Active; 'I' for Inactive)
REMARK    1  A    between atoms: C_4  and  C_6
REMARK    2  A    between atoms: C_6  and  C_7
REMARK    3  A    between atoms: C_7  and  S_8
REMARK    4  A    between atoms: S_8  and  C_9
REMARK    5  A    between atoms: C_9  and  C_10
REMARK                            x       y       z     vdW  Elec       q    Type
REMARK                         _______ _______ _______ _____ _____    ______ ____
ROOT
ATOM      1  S   UNL     1      -2.726   4.440  -0.030  0.00  0.00    +0.000 S 
ENDROOT
BRANCH   1   2
ATOM      2  C   UNL     1      -1.331   3.285   0.203  0.00  0.00    +0.000 C 
BRANCH   2   3
ATOM      3  C   UNL     1      -1.744   1.824   0.001  0.00  0.00    +0.000 C 
BRANCH   3   7
ATOM      4  C   UNL     1       0.328  -1.327   0.445  0.00  0.00    +0.000 C 
ATOM      5  C   UNL     1       1.430  -0.272   0.414  0.00  0.00    +0.000 C 
ATOM      6  C   UNL     1       0.663   1.010   0.409  0.00  0.00    +0.000 C 
ATOM      7  C   UNL     1      -0.636   0.820   0.140  0.00  0.00    +0.000 C 
ATOM      8  C   UNL     1      -0.933  -0.637  -0.073  0.00  0.00    +0.000 C 
ENDBRANCH   3   7
ENDBRANCH   2   3
ENDBRANCH   1   2
BRANCH   1   9
ATOM      9  C   UNL     1      -3.631   4.136   1.519  0.00  0.00    +0.000 C 
BRANCH   9  10
ATOM     10  C   UNL     1      -4.806   5.071   1.665  0.00  0.00    +0.000 A 
ATOM     11  C   UNL     1      -6.057   4.732   1.128  0.00  0.00    +0.000 A 
ATOM     12  C   UNL     1      -7.142   5.600   1.257  0.00  0.00    +0.000 A 
ATOM     13  C   UNL     1      -6.988   6.817   1.919  0.00  0.00    +0.000 A 
ATOM     14  C   UNL     1      -5.747   7.170   2.447  0.00  0.00    +0.000 A 
ATOM     15  C   UNL     1      -4.660   6.303   2.318  0.00  0.00    +0.000 A 
ENDBRANCH   9  10
ENDBRANCH   1   9
TORSDOF 5
