REMARK  Name = *****
REMARK  5 active torsions:
REMARK  status: ('A' for Active; 'I' for Inactive)
REMARK    1  A    between atoms: C_1  and  C_2
REMARK    2  A    between atoms: C_4  and  O_8
REMARK    3  A    between atoms: O_8  and  C_9
REMARK    4  A    between atoms: C_9  and  C_11
REMARK    5  A    between atoms: C_16  and  C_17
REMARK                            x       y       z     vdW  Elec       q    Type
REMARK                         _______ _______ _______ _____ _____    ______ ____
ROOT
ATOM      1  C   UNL     1      -1.449   3.495  -0.343  0.00  0.00    +0.000 C 
ATOM      2  O   UNL     1      -2.308   4.344  -0.174  0.00  0.00    +0.000 OA
ENDROOT
BRANCH   1   3
ATOM      3  C   UNL     1      -0.176   3.765  -1.050  0.00  0.00    +0.000 A 
ATOM      4  C   UNL     1      -0.272   4.492  -2.247  0.00  0.00    +0.000 A 
ATOM      5  C   UNL     1       0.871   4.779  -2.990  0.00  0.00    +0.000 A 
ATOM      6  C   UNL     1       2.116   4.347  -2.541  0.00  0.00    +0.000 A 
ATOM      7  C   UNL     1       2.221   3.642  -1.340  0.00  0.00    +0.000 A 
ATOM      8  C   UNL     1       1.079   3.354  -0.567  0.00  0.00    +0.000 A 
BRANCH   8   9
ATOM      9  C   UNL     1       1.238   2.628   0.745  0.00  0.00    +0.000 C 
ATOM     10  F   UNL     1       0.414   3.094   1.723  0.00  0.00    +0.000 F 
ATOM     11  F   UNL     1       1.001   1.294   0.638  0.00  0.00    +0.000 F 
ATOM     12  F   UNL     1       2.498   2.735   1.257  0.00  0.00    +0.000 F 
ENDBRANCH   8   9
ENDBRANCH   1   3
BRANCH   1  13
ATOM     13  O   UNL     1      -1.500   2.147  -0.057  0.00  0.00    +0.000 OA
BRANCH  13  17
ATOM     14  C   UNL     1      -4.467   2.206   3.907  0.00  0.00    +0.000 C 
ATOM     15  C   UNL     1      -4.114   1.709   2.536  0.00  0.00    +0.000 A 
ATOM     16  C   UNL     1      -2.979   2.199   1.879  0.00  0.00    +0.000 A 
ATOM     17  C   UNL     1      -2.655   1.718   0.609  0.00  0.00    +0.000 A 
ATOM     18  C   UNL     1      -3.412   0.719   0.002  0.00  0.00    +0.000 A 
ATOM     19  C   UNL     1      -4.531   0.217   0.661  0.00  0.00    +0.000 A 
ATOM     20  C   UNL     1      -4.880   0.708   1.923  0.00  0.00    +0.000 A 
ENDBRANCH  13  17
ENDBRANCH   1  13
TORSDOF 4
