REMARK  Name = *****
REMARK  5 active torsions:
REMARK  status: ('A' for Active; 'I' for Inactive)
REMARK    1  A    between atoms: C_1  and  C_2
REMARK    2  A    between atoms: C_4  and  C_8
REMARK    3  A    between atoms: C_8  and  O_10
REMARK    4  A    between atoms: O_10  and  C_11
REMARK    5  A    between atoms: C_11  and  C_12
REMARK                            x       y       z     vdW  Elec       q    Type
REMARK                         _______ _______ _______ _____ _____    ______ ____
ROOT
ATOM      1  C   UNL     1      -1.424   5.073  -0.208  0.00  0.00    +0.000 C 
ENDROOT
BRANCH   1   2
ATOM      2  C   UNL     1      -1.333   5.701   1.153  0.00  0.00    +0.000 A 
ATOM      3  C   UNL     1      -0.139   5.692   1.880  0.00  0.00    +0.000 A 
ATOM      4  C   UNL     1      -0.061   6.276   3.142  0.00  0.00    +0.000 A 
ATOM      5  C   UNL     1      -1.176   6.890   3.693  0.00  0.00    +0.000 A 
ATOM      6  C   UNL     1      -2.365   6.927   2.980  0.00  0.00    +0.000 A 
ATOM      7  C   UNL     1      -2.440   6.341   1.719  0.00  0.00    +0.000 A 
ATOM      8  F   UNL     1      -3.590   6.410   1.034  0.00  0.00    +0.000 F 
ATOM      9  F   UNL     1      -3.439   7.538   3.499  0.00  0.00    +0.000 F 
ATOM     10  F   UNL     1      -1.100   7.460   4.904  0.00  0.00    +0.000 F 
ATOM     11  F   UNL     1       1.096   6.253   3.819  0.00  0.00    +0.000 F 
ATOM     12  F   UNL     1       0.956   5.122   1.357  0.00  0.00    +0.000 F 
ENDBRANCH   1   2
BRANCH   1  13
ATOM     13  O   UNL     1      -0.881   3.745  -0.208  0.00  0.00    +0.000 OA
BRANCH  13  14
ATOM     14  C   UNL     1      -1.726   2.767   0.201  0.00  0.00    +0.000 C 
ATOM     15  O   UNL     1      -2.882   2.928   0.558  0.00  0.00    +0.000 OA
BRANCH  14  19
ATOM     16  C   UNL     1       2.410  -0.097  -0.264  0.00  0.00    +0.000 C 
ATOM     17  C   UNL     1       0.927   0.042  -0.079  0.00  0.00    +0.000 A 
ATOM     18  C   UNL     1       0.330   1.310  -0.049  0.00  0.00    +0.000 A 
ATOM     19  C   UNL     1      -1.051   1.443   0.160  0.00  0.00    +0.000 A 
ATOM     20  C   UNL     1      -1.832   0.297   0.356  0.00  0.00    +0.000 A 
ATOM     21  C   UNL     1      -1.241  -0.966   0.340  0.00  0.00    +0.000 A 
ATOM     22  C   UNL     1       0.132  -1.092   0.128  0.00  0.00    +0.000 A 
ENDBRANCH  14  19
ENDBRANCH  13  14
ENDBRANCH   1  13
TORSDOF 4
