REMARK  Name = *****
REMARK  4 active torsions:
REMARK  status: ('A' for Active; 'I' for Inactive)
REMARK    1  A    between atoms: C_1  and  C_2
REMARK    2  A    between atoms: C_5  and  N_8
REMARK    3  A    between atoms: N_8  and  C_9
REMARK    4  A    between atoms: C_9  and  C_10
REMARK                            x       y       z     vdW  Elec       q    Type
REMARK                         _______ _______ _______ _____ _____    ______ ____
ROOT
ATOM      1  N   UNL     1      -3.263   0.259   0.018  0.00  0.00    +0.000 N 
ATOM      2  O   UNL     1      -3.760   1.423   0.159  0.00  0.00    +0.000 OA
ENDROOT
BRANCH   1   7
ATOM      3  C   UNL     1       2.463  -0.254  -0.149  0.00  0.00    +0.000 C 
ATOM      4  C   UNL     1       0.971  -0.107  -0.082  0.00  0.00    +0.000 A 
ATOM      5  C   UNL     1       0.309   0.782  -0.940  0.00  0.00    +0.000 A 
ATOM      6  C   UNL     1      -1.080   0.901  -0.900  0.00  0.00    +0.000 A 
ATOM      7  C   UNL     1      -1.815   0.111  -0.012  0.00  0.00    +0.000 A 
ATOM      8  C   UNL     1      -1.168  -0.778   0.853  0.00  0.00    +0.000 A 
ATOM      9  C   UNL     1       0.222  -0.891   0.806  0.00  0.00    +0.000 A 
ENDBRANCH   1   7
BRANCH   1  10
ATOM     10  C   UNL     1      -3.983  -0.832  -0.118  0.00  0.00    +0.000 C 
BRANCH  10  11
ATOM     11  C   UNL     1      -5.454  -0.910  -0.123  0.00  0.00    +0.000 A 
ATOM     12  C   UNL     1      -6.303   0.169  -0.380  0.00  0.00    +0.000 A 
ATOM     13  C   UNL     1      -7.691  -0.014  -0.383  0.00  0.00    +0.000 A 
ATOM     14  C   UNL     1      -8.228  -1.275  -0.139  0.00  0.00    +0.000 A 
ATOM     15  C   UNL     1      -7.389  -2.360   0.105  0.00  0.00    +0.000 A 
ATOM     16  C   UNL     1      -6.003  -2.178   0.108  0.00  0.00    +0.000 A 
ATOM     17 CL   UNL     1      -9.933  -1.497  -0.145  0.00  0.00    +0.000 Cl
ENDBRANCH  10  11
ENDBRANCH   1  10
TORSDOF 3
