REMARK  Name = *****
REMARK  2 active torsions:
REMARK  status: ('A' for Active; 'I' for Inactive)
REMARK    1  A    between atoms: C_5  and  C_7
REMARK    2  A    between atoms: C_8  and  C_9
REMARK                            x       y       z     vdW  Elec       q    Type
REMARK                         _______ _______ _______ _____ _____    ______ ____
ROOT
ATOM      1  C   UNL     1       2.929   0.155  -0.247  0.00  0.00    +0.000 C 
ATOM      2  C   UNL     1       4.120   0.240  -0.387  0.00  0.00    +0.000 C 
ENDROOT
BRANCH   2   3
ATOM      3  C   UNL     1       5.532   0.343  -0.581  0.00  0.00    +0.000 A 
ATOM      4  C   UNL     1       6.137   1.600  -0.667  0.00  0.00    +0.000 A 
ATOM      5  C   UNL     1       7.515   1.701  -0.876  0.00  0.00    +0.000 A 
ATOM      6  C   UNL     1       8.283   0.544  -0.999  0.00  0.00    +0.000 A 
ATOM      7  C   UNL     1       7.686  -0.713  -0.911  0.00  0.00    +0.000 A 
ATOM      8  C   UNL     1       6.308  -0.814  -0.701  0.00  0.00    +0.000 A 
ATOM      9 CL   UNL     1       9.978   0.667  -1.265  0.00  0.00    +0.000 Cl
ENDBRANCH   2   3
BRANCH   1  14
ATOM     10  C   UNL     1      -0.498  -1.220   0.068  0.00  0.00    +0.000 A 
ATOM     11  C   UNL     1      -1.203  -0.022   0.122  0.00  0.00    +0.000 A 
ATOM     12  C   UNL     1      -0.488   1.165   0.060  0.00  0.00    +0.000 A 
ATOM     13  N   UNL     1       0.856   1.228  -0.053  0.00  0.00    +0.000 NA
ATOM     14  C   UNL     1       1.513   0.049  -0.106  0.00  0.00    +0.000 A 
ATOM     15  C   UNL     1       0.889  -1.189  -0.048  0.00  0.00    +0.000 A 
ENDBRANCH   1  14
TORSDOF 2
