REMARK  Name = *****
REMARK  4 active torsions:
REMARK  status: ('A' for Active; 'I' for Inactive)
REMARK    1  A    between atoms: C_4  and  C_7
REMARK    2  A    between atoms: C_7  and  S_9
REMARK    3  A    between atoms: S_9  and  C_10
REMARK    4  A    between atoms: C_15  and  C_16
REMARK                            x       y       z     vdW  Elec       q    Type
REMARK                         _______ _______ _______ _____ _____    ______ ____
ROOT
ATOM      1  S   UNL     1      -3.859  -1.235   0.048  0.00  0.00    +0.000 S 
ENDROOT
BRANCH   1   2
ATOM      2  C   UNL     1      -5.477  -0.695  -0.500  0.00  0.00    +0.000 A 
ATOM      3  C   UNL     1      -6.043  -1.367  -1.593  0.00  0.00    +0.000 A 
ATOM      4  C   UNL     1      -7.309  -1.018  -2.067  0.00  0.00    +0.000 A 
ATOM      5  C   UNL     1      -8.028   0.002  -1.451  0.00  0.00    +0.000 A 
ATOM      6  C   UNL     1      -7.481   0.673  -0.356  0.00  0.00    +0.000 A 
ATOM      7  C   UNL     1      -6.209   0.328   0.127  0.00  0.00    +0.000 A 
BRANCH   7   8
ATOM      8  C   UNL     1      -5.693   1.047   1.256  0.00  0.00    +0.000 C 
ATOM      9  N   UNL     1      -5.260   1.650   2.149  0.00  0.00    +0.000 NA
ENDBRANCH   7   8
ENDBRANCH   1   2
BRANCH   1  10
ATOM     10  C   UNL     1      -2.837   0.102  -0.674  0.00  0.00    +0.000 C 
ATOM     11  F   UNL     1      -3.060   0.128  -2.022  0.00  0.00    +0.000 F 
BRANCH  10  15
ATOM     12  C   UNL     1       1.332  -0.457   0.303  0.00  0.00    +0.000 A 
ATOM     13  C   UNL     1       0.464   0.093   1.244  0.00  0.00    +0.000 A 
ATOM     14  C   UNL     1      -0.883   0.277   0.930  0.00  0.00    +0.000 A 
ATOM     15  C   UNL     1      -1.377  -0.089  -0.333  0.00  0.00    +0.000 A 
ATOM     16  C   UNL     1      -0.493  -0.645  -1.270  0.00  0.00    +0.000 A 
ATOM     17  C   UNL     1       0.854  -0.827  -0.953  0.00  0.00    +0.000 A 
ENDBRANCH  10  15
ENDBRANCH   1  10
TORSDOF 4
