REMARK  Name = *****
REMARK  5 active torsions:
REMARK  status: ('A' for Active; 'I' for Inactive)
REMARK    1  A    between atoms: C_1  and  O_2
REMARK    2  A    between atoms: O_2  and  C_3
REMARK    3  A    between atoms: C_3  and  C_5
REMARK    4  A    between atoms: C_5  and  C_13
REMARK    5  A    between atoms: C_6  and  C_7
REMARK                            x       y       z     vdW  Elec       q    Type
REMARK                         _______ _______ _______ _____ _____    ______ ____
ROOT
ATOM      1  C   UNL     1       4.745  -0.926   0.912  0.00  0.00    +0.000 C 
ATOM      2  C   UNL     1       5.319  -0.025   0.091  0.00  0.00    +0.000 C 
ENDROOT
BRANCH   1   3
ATOM      3  C   UNL     1       5.576  -1.693   1.860  0.00  0.00    +0.000 A 
ATOM      4  C   UNL     1       6.395  -1.044   2.797  0.00  0.00    +0.000 A 
ATOM      5  C   UNL     1       7.169  -1.783   3.696  0.00  0.00    +0.000 A 
ATOM      6  C   UNL     1       7.127  -3.175   3.663  0.00  0.00    +0.000 A 
ATOM      7  C   UNL     1       6.318  -3.835   2.741  0.00  0.00    +0.000 A 
ATOM      8  C   UNL     1       5.542  -3.096   1.843  0.00  0.00    +0.000 A 
ATOM      9 CL   UNL     1       8.081  -4.085   4.769  0.00  0.00    +0.000 Cl
ENDBRANCH   1   3
BRANCH   2  10
ATOM     10  C   UNL     1       4.608   0.827  -0.865  0.00  0.00    +0.000 A 
ATOM     11  C   UNL     1       4.053   2.041  -0.447  0.00  0.00    +0.000 A 
ATOM     12  C   UNL     1       3.383   2.857  -1.360  0.00  0.00    +0.000 A 
ATOM     13  C   UNL     1       3.264   2.462  -2.692  0.00  0.00    +0.000 A 
ATOM     14  C   UNL     1       3.813   1.251  -3.112  0.00  0.00    +0.000 A 
ATOM     15  C   UNL     1       4.485   0.434  -2.201  0.00  0.00    +0.000 A 
ENDBRANCH   2  10
BRANCH   1  16
ATOM     16  C   UNL     1       3.278  -1.176   0.849  0.00  0.00    +0.000 C 
ATOM     17  O   UNL     1       2.676  -1.557  -0.143  0.00  0.00    +0.000 OA
BRANCH  16  19
ATOM     18  C   UNL     1       1.339  -1.180   2.145  0.00  0.00    +0.000 C 
ATOM     19  O   UNL     1       2.746  -0.948   2.078  0.00  0.00    +0.000 OA
ENDBRANCH  16  19
ENDBRANCH   1  16
TORSDOF 4
