REMARK  Name = *****
REMARK  4 active torsions:
REMARK  status: ('A' for Active; 'I' for Inactive)
REMARK    1  A    between atoms: C_1  and  C_2
REMARK    2  A    between atoms: C_7  and  C_8
REMARK    3  A    between atoms: C_8  and  O_10
REMARK    4  A    between atoms: O_10  and  C_11
REMARK                            x       y       z     vdW  Elec       q    Type
REMARK                         _______ _______ _______ _____ _____    ______ ____
ROOT
ATOM      1  C   UNL     1       0.729  -2.381  -0.665  0.00  0.00    +0.000 C 
ATOM      2  O   UNL     1       0.335  -3.454  -0.235  0.00  0.00    +0.000 OA
ENDROOT
BRANCH   1   9
ATOM      3  C   UNL     1       2.545  -0.012  -0.052  0.00  0.00    +0.000 C 
ATOM      4  C   UNL     1       1.049   0.032   0.090  0.00  0.00    +0.000 A 
ATOM      5  C   UNL     1       0.447   1.233   0.503  0.00  0.00    +0.000 A 
ATOM      6  C   UNL     1      -0.937   1.320   0.675  0.00  0.00    +0.000 A 
ATOM      7  C   UNL     1      -1.743   0.211   0.438  0.00  0.00    +0.000 A 
ATOM      8  C   UNL     1      -1.166  -0.985   0.012  0.00  0.00    +0.000 A 
ATOM      9  C   UNL     1       0.221  -1.074  -0.184  0.00  0.00    +0.000 A 
ENDBRANCH   1   9
BRANCH   1  10
ATOM     10  O   UNL     1       1.597  -2.159  -1.717  0.00  0.00    +0.000 OA
BRANCH  10  11
ATOM     11  C   UNL     1       2.062  -3.339  -2.301  0.00  0.00    +0.000 A 
ATOM     12  C   UNL     1       3.365  -3.748  -2.029  0.00  0.00    +0.000 A 
ATOM     13  C   UNL     1       3.860  -4.901  -2.643  0.00  0.00    +0.000 A 
ATOM     14  C   UNL     1       3.052  -5.623  -3.534  0.00  0.00    +0.000 A 
ATOM     15  C   UNL     1       1.751  -5.185  -3.811  0.00  0.00    +0.000 A 
ATOM     16  C   UNL     1       1.255  -4.034  -3.200  0.00  0.00    +0.000 A 
ATOM     17 CL   UNL     1       3.603  -7.054  -4.331  0.00  0.00    +0.000 Cl
ATOM     18 CL   UNL     1       5.479  -5.376  -2.271  0.00  0.00    +0.000 Cl
ENDBRANCH  10  11
ENDBRANCH   1  10
TORSDOF 3
