REMARK  Name = *****
REMARK  4 active torsions:
REMARK  status: ('A' for Active; 'I' for Inactive)
REMARK    1  A    between atoms: C_1  and  S_2
REMARK    2  A    between atoms: S_2  and  C_3
REMARK    3  A    between atoms: C_6  and  C_9
REMARK    4  A    between atoms: C_10  and  C_11
REMARK                            x       y       z     vdW  Elec       q    Type
REMARK                         _______ _______ _______ _____ _____    ______ ____
ROOT
ATOM      1  C   UNL     1       3.159  -1.591   0.820  0.00  0.00    +0.000 A 
ATOM      2  C   UNL     1       4.318  -1.490   1.593  0.00  0.00    +0.000 A 
ATOM      3  C   UNL     1       4.705  -2.543   2.429  0.00  0.00    +0.000 A 
ATOM      4  C   UNL     1       3.929  -3.705   2.518  0.00  0.00    +0.000 A 
ATOM      5  C   UNL     1       2.770  -3.801   1.740  0.00  0.00    +0.000 A 
ATOM      6  C   UNL     1       2.382  -2.748   0.905  0.00  0.00    +0.000 A 
ENDROOT
BRANCH   1   8
ATOM      7  C   UNL     1       4.062  -0.180  -1.358  0.00  0.00    +0.000 C 
ATOM      8  S   UNL     1       2.632  -0.264  -0.247  0.00  0.00    +0.000 S 
ENDBRANCH   1   8
BRANCH   4   9
ATOM      9  C   UNL     1       4.320  -4.845   3.358  0.00  0.00    +0.000 C 
ATOM     10  C   UNL     1       4.848  -4.720   4.586  0.00  0.00    +0.000 C 
BRANCH  10  11
ATOM     11  C   UNL     1       5.221  -5.863   5.431  0.00  0.00    +0.000 A 
ATOM     12  C   UNL     1       5.857  -6.999   4.911  0.00  0.00    +0.000 A 
ATOM     13  C   UNL     1       6.225  -8.053   5.751  0.00  0.00    +0.000 A 
ATOM     14  C   UNL     1       5.971  -7.979   7.119  0.00  0.00    +0.000 A 
ATOM     15  C   UNL     1       5.354  -6.848   7.649  0.00  0.00    +0.000 A 
ATOM     16  C   UNL     1       4.987  -5.793   6.810  0.00  0.00    +0.000 A 
ENDBRANCH  10  11
ENDBRANCH   4   9
TORSDOF 3
