REMARK  Name = *****
REMARK  4 active torsions:
REMARK  status: ('A' for Active; 'I' for Inactive)
REMARK    1  A    between atoms: C_4  and  C_7
REMARK    2  A    between atoms: C_7  and  C_8
REMARK    3  A    between atoms: C_8  and  C_9
REMARK    4  A    between atoms: C_14  and  C_15
REMARK                            x       y       z     vdW  Elec       q    Type
REMARK                         _______ _______ _______ _____ _____    ______ ____
ROOT
ATOM      1  C   UNL     1      -5.050  -0.508  -0.529  0.00  0.00    +0.000 A 
ATOM      2  C   UNL     1      -5.463  -0.850  -1.830  0.00  0.00    +0.000 A 
ATOM      3  C   UNL     1      -6.788  -0.675  -2.236  0.00  0.00    +0.000 A 
ATOM      4  C   UNL     1      -7.730  -0.165  -1.348  0.00  0.00    +0.000 A 
ATOM      5  C   UNL     1      -7.344   0.181  -0.055  0.00  0.00    +0.000 A 
ATOM      6  C   UNL     1      -6.009   0.026   0.352  0.00  0.00    +0.000 A 
ENDROOT
BRANCH   6   7
ATOM      7  C   UNL     1      -5.694   0.447   1.742  0.00  0.00    +0.000 C 
ATOM      8  O   UNL     1      -6.322  -0.105   2.644  0.00  0.00    +0.000 OA
ATOM      9 CL   UNL     1      -4.542   1.737   1.979  0.00  0.00    +0.000 Cl
ENDBRANCH   6   7
BRANCH   1  10
ATOM     10  C   UNL     1      -3.613  -0.776  -0.140  0.00  0.00    +0.000 C 
BRANCH  10  11
ATOM     11  C   UNL     1      -2.638   0.216  -0.784  0.00  0.00    +0.000 C 
BRANCH  11  15
ATOM     12  C   UNL     1       1.389  -0.458   0.601  0.00  0.00    +0.000 A 
ATOM     13  C   UNL     1       0.876  -1.220  -0.447  0.00  0.00    +0.000 A 
ATOM     14  C   UNL     1      -0.426  -0.999  -0.900  0.00  0.00    +0.000 A 
ATOM     15  C   UNL     1      -1.224  -0.009  -0.311  0.00  0.00    +0.000 A 
ATOM     16  C   UNL     1      -0.699   0.748   0.745  0.00  0.00    +0.000 A 
ATOM     17  C   UNL     1       0.602   0.525   1.197  0.00  0.00    +0.000 A 
ENDBRANCH  11  15
ENDBRANCH  10  11
ENDBRANCH   1  10
TORSDOF 4
