REMARK  Name = *****
REMARK  3 active torsions:
REMARK  status: ('A' for Active; 'I' for Inactive)
REMARK    1  A    between atoms: C_4  and  S_7
REMARK    2  A    between atoms: S_7  and  C_9
REMARK    3  A    between atoms: C_9  and  C_10
REMARK                            x       y       z     vdW  Elec       q    Type
REMARK                         _______ _______ _______ _____ _____    ______ ____
ROOT
ATOM      1  C   UNL     1      -5.418  -0.721  -0.432  0.00  0.00    +0.000 A 
ATOM      2  C   UNL     1      -5.939  -0.992  -1.701  0.00  0.00    +0.000 A 
ATOM      3  C   UNL     1      -7.301  -0.854  -1.962  0.00  0.00    +0.000 A 
ATOM      4  C   UNL     1      -8.162  -0.440  -0.956  0.00  0.00    +0.000 A 
ATOM      5  C   UNL     1      -7.664  -0.166   0.309  0.00  0.00    +0.000 A 
ATOM      6  C   UNL     1      -6.303  -0.306   0.566  0.00  0.00    +0.000 A 
ATOM      7  F   UNL     1      -5.832  -0.043   1.794  0.00  0.00    +0.000 F 
ATOM      8  F   UNL     1      -8.492   0.226   1.288  0.00  0.00    +0.000 F 
ATOM      9  F   UNL     1      -9.473  -0.315  -1.204  0.00  0.00    +0.000 F 
ATOM     10  F   UNL     1      -7.779  -1.134  -3.183  0.00  0.00    +0.000 F 
ATOM     11  F   UNL     1      -5.122  -1.408  -2.678  0.00  0.00    +0.000 F 
ENDROOT
BRANCH   1  12
ATOM     12  C   UNL     1      -3.946  -0.831  -0.159  0.00  0.00    +0.000 C 
BRANCH  12  13
ATOM     13  S   UNL     1      -3.158   0.817  -0.100  0.00  0.00    +0.000 S 
ATOM     14  O   UNL     1      -3.301   1.432  -1.463  0.00  0.00    +0.000 OA
BRANCH  13  18
ATOM     15  C   UNL     1       1.186  -0.673   0.227  0.00  0.00    +0.000 A 
ATOM     16  C   UNL     1       0.703  -0.212  -0.997  0.00  0.00    +0.000 A 
ATOM     17  C   UNL     1      -0.612   0.245  -1.103  0.00  0.00    +0.000 A 
ATOM     18  C   UNL     1      -1.451   0.236   0.015  0.00  0.00    +0.000 A 
ATOM     19  C   UNL     1      -0.959  -0.219   1.244  0.00  0.00    +0.000 A 
ATOM     20  C   UNL     1       0.356  -0.675   1.347  0.00  0.00    +0.000 A 
ENDBRANCH  13  18
ENDBRANCH  12  13
ENDBRANCH   1  12
TORSDOF 3
