REMARK  Name = *****
REMARK  6 active torsions:
REMARK  status: ('A' for Active; 'I' for Inactive)
REMARK    1  A    between atoms: C_1  and  N_2
REMARK    2  A    between atoms: N_2  and  C_3
REMARK    3  A    between atoms: N_2  and  C_4
REMARK    4  A    between atoms: C_7  and  C_10
REMARK    5  A    between atoms: C_10  and  S_12
REMARK    6  A    between atoms: S_12  and  C_13
REMARK                            x       y       z     vdW  Elec       q    Type
REMARK                         _______ _______ _______ _____ _____    ______ ____
ROOT
ATOM      1  C   UNL     1       5.676  -3.929   3.133  0.00  0.00    +0.000 C 
ATOM      2  O   UNL     1       5.550  -5.100   2.796  0.00  0.00    +0.000 OA
ENDROOT
BRANCH   1   6
ATOM      3  C   UNL     1       3.400  -0.877   1.002  0.00  0.00    +0.000 A 
ATOM      4  C   UNL     1       3.295  -2.249   0.723  0.00  0.00    +0.000 A 
ATOM      5  C   UNL     1       4.040  -3.214   1.418  0.00  0.00    +0.000 A 
ATOM      6  C   UNL     1       4.917  -2.844   2.441  0.00  0.00    +0.000 A 
ATOM      7  C   UNL     1       5.028  -1.488   2.751  0.00  0.00    +0.000 A 
ATOM      8  C   UNL     1       4.278  -0.532   2.044  0.00  0.00    +0.000 A 
BRANCH   3  10
ATOM      9  C   UNL     1       1.839  -0.310  -0.829  0.00  0.00    +0.000 C 
ATOM     10  N   UNL     1       2.647   0.086   0.323  0.00  0.00    +0.000 N 
ATOM     11  C   UNL     1       3.121   1.470   0.314  0.00  0.00    +0.000 C 
ENDBRANCH   3  10
ENDBRANCH   1   6
BRANCH   1  12
ATOM     12  S   UNL     1       6.751  -3.501   4.461  0.00  0.00    +0.000 S 
BRANCH  12  13
ATOM     13  C   UNL     1       8.320  -3.488   3.614  0.00  0.00    +0.000 A 
ATOM     14  C   UNL     1       8.790  -4.614   2.927  0.00  0.00    +0.000 A 
ATOM     15  C   UNL     1      10.029  -4.581   2.281  0.00  0.00    +0.000 A 
ATOM     16  C   UNL     1      10.804  -3.425   2.328  0.00  0.00    +0.000 A 
ATOM     17  C   UNL     1      10.353  -2.303   3.020  0.00  0.00    +0.000 A 
ATOM     18  C   UNL     1       9.113  -2.336   3.665  0.00  0.00    +0.000 A 
ATOM     19 CL   UNL     1      12.329  -3.383   1.534  0.00  0.00    +0.000 Cl
ENDBRANCH  12  13
ENDBRANCH   1  12
TORSDOF 4
