REMARK  Name = *****
REMARK  2 active torsions:
REMARK  status: ('A' for Active; 'I' for Inactive)
REMARK    1  A    between atoms: C_4  and  C_7
REMARK    2  A    between atoms: N_8  and  C_9
REMARK                            x       y       z     vdW  Elec       q    Type
REMARK                         _______ _______ _______ _____ _____    ______ ____
ROOT
ATOM      1  C   UNL     1      -2.790   0.565   0.025  0.00  0.00    +0.000 C 
ATOM      2  N   UNL     1      -3.241   1.777  -0.104  0.00  0.00    +0.000 NA
ATOM      3 CL   UNL     1      -4.031  -0.633   0.243  0.00  0.00    +0.000 Cl
ENDROOT
BRANCH   2   4
ATOM      4  C   UNL     1      -2.378   2.872  -0.218  0.00  0.00    +0.000 A 
ATOM      5  C   UNL     1      -2.333   3.583  -1.421  0.00  0.00    +0.000 A 
ATOM      6  C   UNL     1      -1.499   4.695  -1.558  0.00  0.00    +0.000 A 
ATOM      7  C   UNL     1      -0.720   5.109  -0.480  0.00  0.00    +0.000 A 
ATOM      8  C   UNL     1      -0.777   4.428   0.734  0.00  0.00    +0.000 A 
ATOM      9  C   UNL     1      -1.614   3.317   0.866  0.00  0.00    +0.000 A 
ATOM     10 CL   UNL     1       0.311   6.477  -0.646  0.00  0.00    +0.000 Cl
ENDBRANCH   2   4
BRANCH   1  14
ATOM     11  C   UNL     1       1.282  -0.727  -0.013  0.00  0.00    +0.000 A 
ATOM     12  C   UNL     1       0.463  -1.027   1.076  0.00  0.00    +0.000 A 
ATOM     13  C   UNL     1      -0.866  -0.602   1.087  0.00  0.00    +0.000 A 
ATOM     14  C   UNL     1      -1.370   0.131   0.007  0.00  0.00    +0.000 A 
ATOM     15  C   UNL     1      -0.553   0.419  -1.092  0.00  0.00    +0.000 A 
ATOM     16  C   UNL     1       0.776  -0.007  -1.096  0.00  0.00    +0.000 A 
ENDBRANCH   1  14
TORSDOF 2
