REMARK  Name = *****
REMARK  5 active torsions:
REMARK  status: ('A' for Active; 'I' for Inactive)
REMARK    1  A    between atoms: C_1  and  C_2
REMARK    2  A    between atoms: C_4  and  C_19
REMARK    3  A    between atoms: C_5  and  N_9
REMARK    4  A    between atoms: C_6  and  C_8
REMARK    5  A    between atoms: C_10  and  C_12
REMARK                            x       y       z     vdW  Elec       q    Type
REMARK                         _______ _______ _______ _____ _____    ______ ____
ROOT
ATOM      1  N   UNL     1      -1.900  -2.111   0.046  0.00  0.00    +0.000 N 
ATOM      2  C   UNL     1      -1.818  -3.394   0.569  0.00  0.00    +0.000 C 
ATOM      3  O   UNL     1      -0.854  -3.881   1.146  0.00  0.00    +0.000 OA
ATOM      4  H   UNL     1      -2.760  -1.852  -0.357  0.00  0.00    +0.000 HD
ENDROOT
BRANCH   1   9
ATOM      5  C   UNL     1       2.105   2.012   0.097  0.00  0.00    +0.000 C 
ATOM      6  C   UNL     1       1.073   0.924   0.086  0.00  0.00    +0.000 A 
ATOM      7  C   UNL     1       1.437  -0.396  -0.184  0.00  0.00    +0.000 A 
ATOM      8  C   UNL     1       0.481  -1.431  -0.243  0.00  0.00    +0.000 A 
ATOM      9  C   UNL     1      -0.871  -1.136   0.032  0.00  0.00    +0.000 A 
ATOM     10  C   UNL     1      -1.254   0.211   0.247  0.00  0.00    +0.000 A 
ATOM     11  C   UNL     1      -0.276   1.222   0.270  0.00  0.00    +0.000 A 
ATOM     12  C   UNL     1      -2.685   0.615   0.495  0.00  0.00    +0.000 C 
ATOM     13  C   UNL     1       0.992  -2.784  -0.659  0.00  0.00    +0.000 C 
ENDBRANCH   1   9
BRANCH   2  14
ATOM     14  C   UNL     1      -3.122  -4.168   0.372  0.00  0.00    +0.000 C 
ATOM     15  C   UNL     1      -4.282  -3.585   1.208  0.00  0.00    +0.000 C 
ATOM     16  C   UNL     1      -4.765  -4.797   2.026  0.00  0.00    +0.000 C 
ATOM     17  C   UNL     1      -5.438  -5.807   1.082  0.00  0.00    +0.000 C 
ATOM     18  C   UNL     1      -4.252  -6.400   0.306  0.00  0.00    +0.000 C 
ATOM     19  C   UNL     1      -3.048  -5.629   0.876  0.00  0.00    +0.000 C 
ATOM     20  C   UNL     1      -3.447  -5.496   2.348  0.00  0.00    +0.000 C 
ENDBRANCH   2  14
TORSDOF 2
