REMARK  Name = *****
REMARK  5 active torsions:
REMARK  status: ('A' for Active; 'I' for Inactive)
REMARK    1  A    between atoms: C_1  and  O_2
REMARK    2  A    between atoms: O_2  and  C_3
REMARK    3  A    between atoms: C_8  and  C_9
REMARK    4  A    between atoms: C_9  and  C_10
REMARK    5  A    between atoms: C_10  and  C_11
REMARK                            x       y       z     vdW  Elec       q    Type
REMARK                         _______ _______ _______ _____ _____    ______ ____
ROOT
ATOM      1  C   UNL     1       4.726   1.866   0.436  0.00  0.00    +0.000 C 
ENDROOT
BRANCH   1   7
ATOM      2  C   UNL     1       3.561   1.063   2.556  0.00  0.00    +0.000 A 
ATOM      3  C   UNL     1       3.236   0.028   3.440  0.00  0.00    +0.000 A 
ATOM      4  C   UNL     1       3.704  -1.269   3.216  0.00  0.00    +0.000 A 
ATOM      5  C   UNL     1       4.497  -1.545   2.107  0.00  0.00    +0.000 A 
ATOM      6  C   UNL     1       4.825  -0.523   1.218  0.00  0.00    +0.000 A 
ATOM      7  C   UNL     1       4.366   0.787   1.435  0.00  0.00    +0.000 A 
BRANCH   2   9
ATOM      8  C   UNL     1       2.430   2.701   3.870  0.00  0.00    +0.000 C 
ATOM      9  O   UNL     1       3.140   2.361   2.686  0.00  0.00    +0.000 OA
ENDBRANCH   2   9
ENDBRANCH   1   7
BRANCH   1  10
ATOM     10  C   UNL     1       3.621   2.061  -0.606  0.00  0.00    +0.000 C 
BRANCH  10  11
ATOM     11  C   UNL     1       3.991   3.118  -1.619  0.00  0.00    +0.000 A 
ATOM     12  C   UNL     1       4.709   2.773  -2.775  0.00  0.00    +0.000 A 
ATOM     13  C   UNL     1       5.066   3.754  -3.700  0.00  0.00    +0.000 A 
ATOM     14  C   UNL     1       4.709   5.077  -3.469  0.00  0.00    +0.000 A 
ATOM     15  C   UNL     1       4.003   5.439  -2.328  0.00  0.00    +0.000 A 
ATOM     16  C   UNL     1       3.646   4.460  -1.400  0.00  0.00    +0.000 A 
ATOM     17  F   UNL     1       5.053   6.018  -4.358  0.00  0.00    +0.000 F 
ENDBRANCH  10  11
ENDBRANCH   1  10
TORSDOF 4
