REMARK  Name = *****
REMARK  1 active torsions:
REMARK  status: ('A' for Active; 'I' for Inactive)
REMARK    1  A    between atoms: C_4  and  C_6
REMARK                            x       y       z     vdW  Elec       q    Type
REMARK                         _______ _______ _______ _____ _____    ______ ____
ROOT
ATOM      1  C   UNL     1       0.008  -2.343   0.985  0.00  0.00    +0.000 A 
ATOM      2  C   UNL     1       0.036  -3.706   0.638  0.00  0.00    +0.000 A 
ATOM      3  C   UNL     1      -0.011  -4.716   1.616  0.00  0.00    +0.000 A 
ATOM      4  C   UNL     1       0.017  -6.077   1.266  0.00  0.00    +0.000 A 
ATOM      5  C   UNL     1      -0.030  -7.068   2.248  0.00  0.00    +0.000 A 
ATOM      6  C   UNL     1      -0.105  -6.713   3.591  0.00  0.00    +0.000 A 
ATOM      7  C   UNL     1      -0.134  -5.365   3.955  0.00  0.00    +0.000 A 
ATOM      8  C   UNL     1      -0.087  -4.357   2.979  0.00  0.00    +0.000 A 
ATOM      9  C   UNL     1      -0.117  -2.999   3.328  0.00  0.00    +0.000 A 
ATOM     10  C   UNL     1      -0.071  -2.007   2.345  0.00  0.00    +0.000 A 
ENDROOT
BRANCH   1  14
ATOM     11  C   UNL     1      -0.746   1.288   0.227  0.00  0.00    +0.000 C 
ATOM     12  C   UNL     1       0.631   1.340  -0.402  0.00  0.00    +0.000 C 
ATOM     13  S   UNL     1       1.494  -0.183   0.051  0.00  0.00    +0.000 S 
ATOM     14  C   UNL     1       0.054  -1.291  -0.106  0.00  0.00    +0.000 C 
ATOM     15  S   UNL     1      -1.485  -0.312  -0.188  0.00  0.00    +0.000 S 
ENDBRANCH   1  14
TORSDOF 1
