REMARK  Name = *****
REMARK  3 active torsions:
REMARK  status: ('A' for Active; 'I' for Inactive)
REMARK    1  A    between atoms: C_5  and  O_7
REMARK    2  A    between atoms: O_7  and  C_8
REMARK    3  A    between atoms: C_8  and  C_10
REMARK                            x       y       z     vdW  Elec       q    Type
REMARK                         _______ _______ _______ _____ _____    ______ ____
ROOT
ATOM      1  C   UNL     1       2.219  -2.409  -0.255  0.00  0.00    +0.000 C 
ATOM      2  O   UNL     1       2.756  -1.375   0.112  0.00  0.00    +0.000 OA
ENDROOT
BRANCH   1   3
ATOM      3  C   UNL     1       2.885  -3.739  -0.177  0.00  0.00    +0.000 A 
ATOM      4  C   UNL     1       2.254  -4.924  -0.574  0.00  0.00    +0.000 A 
ATOM      5  C   UNL     1       2.939  -6.130  -0.471  0.00  0.00    +0.000 A 
ATOM      6  C   UNL     1       4.240  -6.185   0.017  0.00  0.00    +0.000 A 
ATOM      7  C   UNL     1       4.875  -5.010   0.412  0.00  0.00    +0.000 A 
ATOM      8  C   UNL     1       4.200  -3.790   0.316  0.00  0.00    +0.000 A 
ATOM      9  F   UNL     1       2.332  -7.263  -0.849  0.00  0.00    +0.000 F 
ENDBRANCH   1   3
BRANCH   1  10
ATOM     10  O   UNL     1       0.944  -2.554  -0.766  0.00  0.00    +0.000 OA
BRANCH  10  15
ATOM     11  C   UNL     1      -1.358   0.272  -0.304  0.00  0.00    +0.000 A 
ATOM     12  C   UNL     1      -1.037   1.062  -1.413  0.00  0.00    +0.000 A 
ATOM     13  C   UNL     1      -0.049   0.646  -2.308  0.00  0.00    +0.000 A 
ATOM     14  C   UNL     1       0.617  -0.554  -2.085  0.00  0.00    +0.000 A 
ATOM     15  C   UNL     1       0.309  -1.329  -0.969  0.00  0.00    +0.000 A 
ATOM     16  C   UNL     1      -0.689  -0.933  -0.081  0.00  0.00    +0.000 A 
ATOM     17  F   UNL     1       1.548  -0.965  -2.959  0.00  0.00    +0.000 F 
ENDBRANCH  10  15
ENDBRANCH   1  10
TORSDOF 3
