REMARK  Name = *****
REMARK  3 active torsions:
REMARK  status: ('A' for Active; 'I' for Inactive)
REMARK    1  A    between atoms: N_4  and  C_7
REMARK    2  A    between atoms: C_8  and  C_9
REMARK    3  A    between atoms: C_12  and  C_15
REMARK                            x       y       z     vdW  Elec       q    Type
REMARK                         _______ _______ _______ _____ _____    ______ ____
ROOT
ATOM      1  C   UNL     1       4.153  -1.285   2.415  0.00  0.00    +0.000 A 
ATOM      2  C   UNL     1       4.164  -0.371   3.475  0.00  0.00    +0.000 A 
ATOM      3  C   UNL     1       5.215  -0.365   4.399  0.00  0.00    +0.000 A 
ATOM      4  C   UNL     1       6.273  -1.277   4.281  0.00  0.00    +0.000 A 
ATOM      5  C   UNL     1       6.247  -2.208   3.233  0.00  0.00    +0.000 A 
ATOM      6  C   UNL     1       5.195  -2.213   2.312  0.00  0.00    +0.000 A 
ENDROOT
BRANCH   4   7
ATOM      7  C   UNL     1       7.395  -1.288   5.289  0.00  0.00    +0.000 C 
ATOM      8  F   UNL     1       7.627  -0.067   5.847  0.00  0.00    +0.000 F 
ATOM      9  F   UNL     1       7.150  -2.133   6.329  0.00  0.00    +0.000 F 
ATOM     10  F   UNL     1       8.587  -1.684   4.759  0.00  0.00    +0.000 F 
ENDBRANCH   4   7
BRANCH   1  12
ATOM     11  C   UNL     1       2.481  -0.255   0.902  0.00  0.00    +0.000 C 
ATOM     12  C   UNL     1       3.050  -1.341   1.445  0.00  0.00    +0.000 C 
BRANCH  11  16
ATOM     13  C   UNL     1      -1.418   0.141   0.036  0.00  0.00    +0.000 C 
ATOM     14  C   UNL     1      -0.477   1.306   0.346  0.00  0.00    +0.000 C 
ATOM     15  C   UNL     1       0.862   1.142  -0.375  0.00  0.00    +0.000 C 
ATOM     16  N   UNL     1       1.448  -0.162  -0.021  0.00  0.00    +0.000 N 
ATOM     17  C   UNL     1       0.604  -1.293  -0.430  0.00  0.00    +0.000 C 
ATOM     18  C   UNL     1      -0.741  -1.207   0.293  0.00  0.00    +0.000 C 
ENDBRANCH  11  16
ENDBRANCH   1  12
TORSDOF 3
