REMARK  Name = *****
REMARK  2 active torsions:
REMARK  status: ('A' for Active; 'I' for Inactive)
REMARK    1  A    between atoms: C_1  and  C_2
REMARK    2  A    between atoms: C_5  and  C_8
REMARK                            x       y       z     vdW  Elec       q    Type
REMARK                         _______ _______ _______ _____ _____    ______ ____
ROOT
ATOM      1  C   UNL     1      -3.194   0.163  -0.103  0.00  0.00    +0.000 C 
ATOM      2  C   UNL     1      -3.711   0.915  -1.328  0.00  0.00    +0.000 C 
ATOM      3  S   UNL     1      -5.456   0.533  -1.669  0.00  0.00    +0.000 S 
ATOM      4  C   UNL     1      -6.224   0.878  -0.089  0.00  0.00    +0.000 A 
ATOM      5  C   UNL     1      -7.628   0.975  -0.131  0.00  0.00    +0.000 A 
ATOM      6  C   UNL     1      -8.373   1.242   1.018  0.00  0.00    +0.000 A 
ATOM      7  C   UNL     1      -7.725   1.414   2.232  0.00  0.00    +0.000 A 
ATOM      8  C   UNL     1      -6.335   1.314   2.292  0.00  0.00    +0.000 A 
ATOM      9  C   UNL     1      -5.567   1.038   1.143  0.00  0.00    +0.000 A 
ATOM     10  S   UNL     1      -3.804   0.948   1.436  0.00  0.00    +0.000 S 
ENDROOT
BRANCH   1  15
ATOM     11  C   UNL     1       2.646  -0.174  -0.056  0.00  0.00    +0.000 C 
ATOM     12  C   UNL     1       1.149  -0.075  -0.039  0.00  0.00    +0.000 A 
ATOM     13  C   UNL     1       0.517   1.164  -0.179  0.00  0.00    +0.000 A 
ATOM     14  C   UNL     1      -0.878   1.252  -0.193  0.00  0.00    +0.000 A 
ATOM     15  C   UNL     1      -1.672   0.099  -0.082  0.00  0.00    +0.000 A 
ATOM     16  C   UNL     1      -1.030  -1.142   0.050  0.00  0.00    +0.000 A 
ATOM     17  C   UNL     1       0.365  -1.228   0.064  0.00  0.00    +0.000 A 
ENDBRANCH   1  15
TORSDOF 1
