REMARK  Name = *****
REMARK  2 active torsions:
REMARK  status: ('A' for Active; 'I' for Inactive)
REMARK    1  A    between atoms: C_6  and  C_7
REMARK    2  A    between atoms: C_8  and  C_9
REMARK                            x       y       z     vdW  Elec       q    Type
REMARK                         _______ _______ _______ _____ _____    ______ ____
ROOT
ATOM      1  C   UNL     1       3.889   0.071   0.049  0.00  0.00    +0.000 C 
ATOM      2  C   UNL     1       4.653   1.174   0.076  0.00  0.00    +0.000 C 
ENDROOT
BRANCH   1   8
ATOM      3  C   UNL     1       1.664   1.011   0.749  0.00  0.00    +0.000 A 
ATOM      4  C   UNL     1       0.266   0.978   0.706  0.00  0.00    +0.000 A 
ATOM      5  C   UNL     1      -0.382   0.019  -0.068  0.00  0.00    +0.000 A 
ATOM      6  C   UNL     1       0.355  -0.911  -0.796  0.00  0.00    +0.000 A 
ATOM      7  C   UNL     1       1.752  -0.878  -0.752  0.00  0.00    +0.000 A 
ATOM      8  C   UNL     1       2.420   0.092   0.009  0.00  0.00    +0.000 A 
ATOM      9 CL   UNL     1      -2.101  -0.020  -0.120  0.00  0.00    +0.000 Cl
ENDBRANCH   1   8
BRANCH   2  10
ATOM     10  C   UNL     1       6.073   1.081   0.101  0.00  0.00    +0.000 A 
ATOM     11  C   UNL     1       7.006   2.111   0.129  0.00  0.00    +0.000 A 
ATOM     12  C   UNL     1       8.296   1.530   0.146  0.00  0.00    +0.000 A 
ATOM     13  C   UNL     1       8.102   0.170   0.128  0.00  0.00    +0.000 A 
ATOM     14  O   UNL     1       6.773  -0.106   0.101  0.00  0.00    +0.000 OA
ATOM     15 CL   UNL     1       9.319  -1.042   0.135  0.00  0.00    +0.000 Cl
ENDBRANCH   2  10
TORSDOF 2
