REMARK  Name = *****
REMARK  5 active torsions:
REMARK  status: ('A' for Active; 'I' for Inactive)
REMARK    1  A    between atoms: C_6  and  C_7
REMARK    2  A    between atoms: C_7  and  C_8
REMARK    3  A    between atoms: C_7  and  O_11
REMARK    4  A    between atoms: C_8  and  C_9
REMARK    5  A    between atoms: O_11  and  C_12
REMARK                            x       y       z     vdW  Elec       q    Type
REMARK                         _______ _______ _______ _____ _____    ______ ____
ROOT
ATOM      1  C   UNL     1      -3.475  -0.086   0.044  0.00  0.00    +0.000 C 
ENDROOT
BRANCH   1   7
ATOM      2  C   UNL     1      -1.246   1.099   0.521  0.00  0.00    +0.000 A 
ATOM      3  C   UNL     1       0.148   1.149   0.454  0.00  0.00    +0.000 A 
ATOM      4  C   UNL     1       0.844   0.115  -0.158  0.00  0.00    +0.000 A 
ATOM      5  C   UNL     1       0.173  -0.970  -0.705  0.00  0.00    +0.000 A 
ATOM      6  C   UNL     1      -1.221  -1.024  -0.639  0.00  0.00    +0.000 A 
ATOM      7  C   UNL     1      -1.951   0.012  -0.025  0.00  0.00    +0.000 A 
ATOM      8  F   UNL     1       2.181   0.165  -0.221  0.00  0.00    +0.000 F 
ENDBRANCH   1   7
BRANCH   1   9
ATOM      9  C   UNL     1      -3.919  -1.060   1.151  0.00  0.00    +0.000 C 
BRANCH   9  10
ATOM     10  C   UNL     1      -3.626  -0.548   2.557  0.00  0.00    +0.000 C 
ATOM     11 CL   UNL     1      -4.221  -1.716   3.767  0.00  0.00    +0.000 Cl
ENDBRANCH   9  10
ENDBRANCH   1   9
BRANCH   1  12
ATOM     12  O   UNL     1      -4.027   1.218   0.267  0.00  0.00    +0.000 OA
BRANCH  12  13
ATOM     13  C   UNL     1      -5.284   1.511  -0.180  0.00  0.00    +0.000 A 
ATOM     14  C   UNL     1      -6.167   0.639  -0.820  0.00  0.00    +0.000 A 
ATOM     15  C   UNL     1      -7.432   1.088  -1.215  0.00  0.00    +0.000 A 
ATOM     16  C   UNL     1      -7.808   2.402  -0.968  0.00  0.00    +0.000 A 
ATOM     17  C   UNL     1      -6.943   3.281  -0.332  0.00  0.00    +0.000 A 
ATOM     18  C   UNL     1      -5.682   2.832   0.062  0.00  0.00    +0.000 A 
ATOM     19  F   UNL     1      -9.020   2.825  -1.348  0.00  0.00    +0.000 F 
ENDBRANCH  12  13
ENDBRANCH   1  12
TORSDOF 5
