REMARK  Name = *****
REMARK  4 active torsions:
REMARK  status: ('A' for Active; 'I' for Inactive)
REMARK    1  A    between atoms: C_1  and  C_2
REMARK    2  A    between atoms: C_7  and  C_8
REMARK    3  A    between atoms: C_8  and  O_10
REMARK    4  A    between atoms: O_10  and  C_11
REMARK                            x       y       z     vdW  Elec       q    Type
REMARK                         _______ _______ _______ _____ _____    ______ ____
ROOT
ATOM      1  C   UNL     1       0.700  -2.390  -0.650  0.00  0.00    +0.000 C 
ATOM      2  O   UNL     1       0.296  -3.454  -0.207  0.00  0.00    +0.000 OA
ENDROOT
BRANCH   1   9
ATOM      3  C   UNL     1       2.531  -0.025  -0.065  0.00  0.00    +0.000 C 
ATOM      4  C   UNL     1       1.036   0.029   0.081  0.00  0.00    +0.000 A 
ATOM      5  C   UNL     1       0.442   1.237   0.486  0.00  0.00    +0.000 A 
ATOM      6  C   UNL     1      -0.940   1.335   0.661  0.00  0.00    +0.000 A 
ATOM      7  C   UNL     1      -1.753   0.228   0.435  0.00  0.00    +0.000 A 
ATOM      8  C   UNL     1      -1.186  -0.974   0.018  0.00  0.00    +0.000 A 
ATOM      9  C   UNL     1       0.200  -1.074  -0.182  0.00  0.00    +0.000 A 
ENDBRANCH   1   9
BRANCH   1  10
ATOM     10  O   UNL     1       1.569  -2.182  -1.702  0.00  0.00    +0.000 OA
BRANCH  10  11
ATOM     11  C   UNL     1       2.038  -3.364  -2.280  0.00  0.00    +0.000 A 
ATOM     12  C   UNL     1       1.216  -4.101  -3.133  0.00  0.00    +0.000 A 
ATOM     13  C   UNL     1       1.722  -5.251  -3.741  0.00  0.00    +0.000 A 
ATOM     14  C   UNL     1       3.042  -5.637  -3.503  0.00  0.00    +0.000 A 
ATOM     15  C   UNL     1       3.865  -4.882  -2.664  0.00  0.00    +0.000 A 
ATOM     16  C   UNL     1       3.363  -3.732  -2.052  0.00  0.00    +0.000 A 
ATOM     17 CL   UNL     1       3.666  -7.052  -4.258  0.00  0.00    +0.000 Cl
ENDBRANCH  10  11
ENDBRANCH   1  10
TORSDOF 3
