REMARK  Name = *****
REMARK  3 active torsions:
REMARK  status: ('A' for Active; 'I' for Inactive)
REMARK    1  A    between atoms: C_4  and  C_7
REMARK    2  A    between atoms: C_7  and  C_9
REMARK    3  A    between atoms: C_10  and  C_11
REMARK                            x       y       z     vdW  Elec       q    Type
REMARK                         _______ _______ _______ _____ _____    ______ ____
ROOT
ATOM      1  C   UNL     1       0.653  -2.857   0.217  0.00  0.00    +0.000 C 
ATOM      2  O   UNL     1       1.822  -3.234   0.208  0.00  0.00    +0.000 OA
ENDROOT
BRANCH   1   6
ATOM      3  C   UNL     1      -0.397   1.389   0.301  0.00  0.00    +0.000 C 
ATOM      4  C   UNL     1      -1.171   0.508  -0.673  0.00  0.00    +0.000 C 
ATOM      5  C   UNL     1      -1.090  -0.967  -0.267  0.00  0.00    +0.000 C 
ATOM      6  C   UNL     1       0.293  -1.401   0.142  0.00  0.00    +0.000 C 
ATOM      7  C   UNL     1       1.270  -0.510   0.400  0.00  0.00    +0.000 C 
ATOM      8  C   UNL     1       1.074   0.978   0.359  0.00  0.00    +0.000 C 
ENDBRANCH   1   6
BRANCH   1   9
ATOM      9  C   UNL     1      -0.472  -3.828   0.308  0.00  0.00    +0.000 C 
ATOM     10  C   UNL     1      -0.227  -5.147   0.264  0.00  0.00    +0.000 C 
BRANCH  10  11
ATOM     11  C   UNL     1      -1.275  -6.174   0.348  0.00  0.00    +0.000 A 
ATOM     12  C   UNL     1      -2.528  -6.015  -0.259  0.00  0.00    +0.000 A 
ATOM     13  C   UNL     1      -3.489  -7.026  -0.183  0.00  0.00    +0.000 A 
ATOM     14  C   UNL     1      -3.203  -8.212   0.490  0.00  0.00    +0.000 A 
ATOM     15  C   UNL     1      -1.955  -8.389   1.082  0.00  0.00    +0.000 A 
ATOM     16  C   UNL     1      -0.994  -7.377   1.007  0.00  0.00    +0.000 A 
ENDBRANCH  10  11
ENDBRANCH   1   9
TORSDOF 3
