REMARK  Name = *****
REMARK  3 active torsions:
REMARK  status: ('A' for Active; 'I' for Inactive)
REMARK    1  A    between atoms: C_4  and  C_7
REMARK    2  A    between atoms: C_7  and  O_8
REMARK    3  A    between atoms: O_8  and  C_9
REMARK                            x       y       z     vdW  Elec       q    Type
REMARK                         _______ _______ _______ _____ _____    ______ ____
ROOT
ATOM      1  C   UNL     1      -2.879   0.540  -0.196  0.00  0.00    +0.000 C 
ENDROOT
BRANCH   1   5
ATOM      2  C   UNL     1       1.340  -0.256   0.212  0.00  0.00    +0.000 A 
ATOM      3  C   UNL     1       0.753  -0.237  -1.052  0.00  0.00    +0.000 A 
ATOM      4  C   UNL     1      -0.612   0.022  -1.185  0.00  0.00    +0.000 A 
ATOM      5  C   UNL     1      -1.402   0.273  -0.054  0.00  0.00    +0.000 A 
ATOM      6  C   UNL     1      -0.804   0.234   1.213  0.00  0.00    +0.000 A 
ATOM      7  C   UNL     1       0.561  -0.024   1.344  0.00  0.00    +0.000 A 
ENDBRANCH   1   5
BRANCH   1   8
ATOM      8  O   UNL     1      -3.568  -0.706  -0.169  0.00  0.00    +0.000 OA
BRANCH   8   9
ATOM      9  C   UNL     1      -4.902  -0.657  -0.277  0.00  0.00    +0.000 A 
ATOM     10  C   UNL     1      -5.774   0.410  -0.413  0.00  0.00    +0.000 A 
ATOM     11  C   UNL     1      -7.140   0.009  -0.494  0.00  0.00    +0.000 A 
ATOM     12  C   UNL     1      -7.278  -1.357  -0.419  0.00  0.00    +0.000 A 
ATOM     13  S   UNL     1      -5.770  -2.140  -0.252  0.00  0.00    +0.000 S 
ENDBRANCH   8   9
ENDBRANCH   1   8
TORSDOF 3
