REMARK  Name = *****
REMARK  1 active torsions:
REMARK  status: ('A' for Active; 'I' for Inactive)
REMARK    1  A    between atoms: C_8  and  C_11
REMARK                            x       y       z     vdW  Elec       q    Type
REMARK                         _______ _______ _______ _____ _____    ______ ____
ROOT
ATOM      1  C   UNL     1       2.525   0.696  -0.203  0.00  0.00    +0.000 C 
ATOM      2  C   UNL     1       1.279   1.507   0.177  0.00  0.00    +0.000 C 
ATOM      3  C   UNL     1      -0.007   0.741  -0.011  0.00  0.00    +0.000 A 
ATOM      4  C   UNL     1      -0.008  -0.659   0.094  0.00  0.00    +0.000 A 
ATOM      5  C   UNL     1       1.250  -1.380   0.320  0.00  0.00    +0.000 C 
ATOM      6  C   UNL     1       2.427  -0.755   0.171  0.00  0.00    +0.000 C 
ATOM      7  C   UNL     1      -1.216  -1.362  -0.010  0.00  0.00    +0.000 A 
ATOM      8  C   UNL     1      -2.435  -0.693  -0.221  0.00  0.00    +0.000 A 
ATOM      9  C   UNL     1      -2.412   0.707  -0.317  0.00  0.00    +0.000 A 
ATOM     10  C   UNL     1      -1.215   1.420  -0.206  0.00  0.00    +0.000 A 
ENDROOT
BRANCH   8  11
ATOM     11  C   UNL     1      -3.699  -1.440  -0.336  0.00  0.00    +0.000 A 
ATOM     12  C   UNL     1      -4.806  -1.121   0.468  0.00  0.00    +0.000 A 
ATOM     13  C   UNL     1      -6.005  -1.830   0.360  0.00  0.00    +0.000 A 
ATOM     14  C   UNL     1      -6.119  -2.871  -0.557  0.00  0.00    +0.000 A 
ATOM     15  C   UNL     1      -5.035  -3.205  -1.365  0.00  0.00    +0.000 A 
ATOM     16  C   UNL     1      -3.836  -2.495  -1.254  0.00  0.00    +0.000 A 
ENDBRANCH   8  11
TORSDOF 1
