REMARK  Name = *****
REMARK  4 active torsions:
REMARK  status: ('A' for Active; 'I' for Inactive)
REMARK    1  A    between atoms: C_1  and  C_2
REMARK    2  A    between atoms: C_3  and  C_7
REMARK    3  A    between atoms: C_7  and  O_9
REMARK    4  A    between atoms: O_9  and  C_10
REMARK                            x       y       z     vdW  Elec       q    Type
REMARK                         _______ _______ _______ _____ _____    ______ ____
ROOT
ATOM      1  C   UNL     1       0.476  -2.534   0.286  0.00  0.00    +0.000 C 
ATOM      2  O   UNL     1      -0.406  -3.385   0.224  0.00  0.00    +0.000 OA
ENDROOT
BRANCH   1   5
ATOM      3  C   UNL     1       2.690  -0.138   0.288  0.00  0.00    +0.000 C 
ATOM      4  C   UNL     1       1.226  -0.055  -0.008  0.00  0.00    +0.000 A 
ATOM      5  C   UNL     1       0.313  -1.110   0.001  0.00  0.00    +0.000 A 
ATOM      6  S   UNL     1      -1.272  -0.569  -0.406  0.00  0.00    +0.000 S 
ATOM      7  C   UNL     1      -0.763   1.044  -0.588  0.00  0.00    +0.000 A 
ATOM      8  C   UNL     1       0.583   1.185  -0.350  0.00  0.00    +0.000 A 
ENDBRANCH   1   5
BRANCH   1   9
ATOM      9  O   UNL     1       1.796  -2.798   0.647  0.00  0.00    +0.000 OA
BRANCH   9  10
ATOM     10  C   UNL     1       2.053  -4.136   0.956  0.00  0.00    +0.000 A 
ATOM     11  C   UNL     1       1.737  -4.630   2.218  0.00  0.00    +0.000 A 
ATOM     12  C   UNL     1       2.053  -5.951   2.509  0.00  0.00    +0.000 A 
ATOM     13  C   UNL     1       2.685  -6.765   1.572  0.00  0.00    +0.000 A 
ATOM     14  C   UNL     1       3.014  -6.250   0.316  0.00  0.00    +0.000 A 
ATOM     15  C   UNL     1       2.703  -4.926   0.006  0.00  0.00    +0.000 A 
ATOM     16  F   UNL     1       1.754  -6.449   3.716  0.00  0.00    +0.000 F 
ENDBRANCH   9  10
ENDBRANCH   1   9
TORSDOF 3
