REMARK  Name = *****
REMARK  5 active torsions:
REMARK  status: ('A' for Active; 'I' for Inactive)
REMARK    1  A    between atoms: C_1  and  C_2
REMARK    2  A    between atoms: C_5  and  C_8
REMARK    3  A    between atoms: C_8  and  C_10
REMARK    4  A    between atoms: C_10  and  C_11
REMARK    5  A    between atoms: C_11  and  C_12
REMARK                            x       y       z     vdW  Elec       q    Type
REMARK                         _______ _______ _______ _____ _____    ______ ____
ROOT
ATOM      1  C   UNL     1      -3.305  -0.006   0.132  0.00  0.00    +0.000 C 
ATOM      2  O   UNL     1      -3.884  -1.081   0.272  0.00  0.00    +0.000 OA
ENDROOT
BRANCH   1   7
ATOM      3  C   UNL     1       2.506  -0.052   0.061  0.00  0.00    +0.000 C 
ATOM      4  C   UNL     1       1.006  -0.032   0.048  0.00  0.00    +0.000 A 
ATOM      5  C   UNL     1       0.315   1.175  -0.108  0.00  0.00    +0.000 A 
ATOM      6  C   UNL     1      -1.084   1.203  -0.087  0.00  0.00    +0.000 A 
ATOM      7  C   UNL     1      -1.810   0.021   0.099  0.00  0.00    +0.000 A 
ATOM      8  C   UNL     1      -1.117  -1.185   0.269  0.00  0.00    +0.000 A 
ATOM      9  C   UNL     1       0.280  -1.210   0.249  0.00  0.00    +0.000 A 
ENDBRANCH   1   7
BRANCH   1  10
ATOM     10  C   UNL     1      -4.058   1.304  -0.007  0.00  0.00    +0.000 C 
BRANCH  10  11
ATOM     11  C   UNL     1      -5.570   1.097   0.074  0.00  0.00    +0.000 C 
BRANCH  11  12
ATOM     12  C   UNL     1      -6.311   2.407  -0.037  0.00  0.00    +0.000 A 
ATOM     13  C   UNL     1      -6.654   2.926  -1.294  0.00  0.00    +0.000 A 
ATOM     14  C   UNL     1      -7.319   4.149  -1.389  0.00  0.00    +0.000 A 
ATOM     15  C   UNL     1      -7.645   4.868  -0.241  0.00  0.00    +0.000 A 
ATOM     16  C   UNL     1      -7.304   4.361   1.012  0.00  0.00    +0.000 A 
ATOM     17  C   UNL     1      -6.638   3.138   1.114  0.00  0.00    +0.000 A 
ATOM     18 CL   UNL     1      -7.734   4.776  -2.937  0.00  0.00    +0.000 Cl
ENDBRANCH  11  12
ENDBRANCH  10  11
ENDBRANCH   1  10
TORSDOF 4
