REMARK  Name = *****
REMARK  3 active torsions:
REMARK  status: ('A' for Active; 'I' for Inactive)
REMARK    1  A    between atoms: C_4  and  C_7
REMARK    2  A    between atoms: C_7  and  C_9
REMARK    3  A    between atoms: C_9  and  C_10
REMARK                            x       y       z     vdW  Elec       q    Type
REMARK                         _______ _______ _______ _____ _____    ______ ____
ROOT
ATOM      1  C   UNL     1      -2.760   0.450  -0.074  0.00  0.00    +0.000 C 
ATOM      2  O   UNL     1      -2.384   0.699   1.073  0.00  0.00    +0.000 OA
ENDROOT
BRANCH   1   6
ATOM      3  C   UNL     1      -0.979   2.681  -3.287  0.00  0.00    +0.000 A 
ATOM      4  C   UNL     1      -0.452   2.742  -2.000  0.00  0.00    +0.000 A 
ATOM      5  C   UNL     1      -1.047   2.012  -0.968  0.00  0.00    +0.000 A 
ATOM      6  C   UNL     1      -2.171   1.212  -1.218  0.00  0.00    +0.000 A 
ATOM      7  C   UNL     1      -2.697   1.160  -2.514  0.00  0.00    +0.000 A 
ATOM      8  C   UNL     1      -2.100   1.894  -3.544  0.00  0.00    +0.000 A 
ENDBRANCH   1   6
BRANCH   1   9
ATOM      9  C   UNL     1      -3.804  -0.621  -0.333  0.00  0.00    +0.000 C 
BRANCH   9  10
ATOM     10  C   UNL     1      -5.215  -0.097  -0.463  0.00  0.00    +0.000 A 
ATOM     11  C   UNL     1      -6.061  -0.600  -1.464  0.00  0.00    +0.000 A 
ATOM     12  C   UNL     1      -7.376  -0.144  -1.578  0.00  0.00    +0.000 A 
ATOM     13  C   UNL     1      -7.860   0.807  -0.683  0.00  0.00    +0.000 A 
ATOM     14  C   UNL     1      -7.041   1.301   0.329  0.00  0.00    +0.000 A 
ATOM     15  C   UNL     1      -5.726   0.845   0.443  0.00  0.00    +0.000 A 
ATOM     16 CL   UNL     1      -9.481   1.367  -0.824  0.00  0.00    +0.000 Cl
ENDBRANCH   9  10
ENDBRANCH   1   9
TORSDOF 3
