REMARK  Name = *****
REMARK  3 active torsions:
REMARK  status: ('A' for Active; 'I' for Inactive)
REMARK    1  A    between atoms: C_6  and  C_7
REMARK    2  A    between atoms: C_7  and  S_8
REMARK    3  A    between atoms: S_8  and  C_9
REMARK                            x       y       z     vdW  Elec       q    Type
REMARK                         _______ _______ _______ _____ _____    ______ ____
ROOT
ATOM      1  C   UNL     1       0.849   1.048  -0.073  0.00  0.00    +0.000 C 
ATOM      2  C   UNL     1       1.360  -0.315   0.392  0.00  0.00    +0.000 C 
ATOM      3  C   UNL     1       0.492  -1.461  -0.136  0.00  0.00    +0.000 C 
ATOM      4  C   UNL     1      -0.995  -1.250   0.193  0.00  0.00    +0.000 C 
ATOM      5  C   UNL     1      -1.479   0.130  -0.269  0.00  0.00    +0.000 C 
ATOM      6  C   UNL     1      -0.628   1.287   0.289  0.00  0.00    +0.000 C 
ATOM      7 CL   UNL     1      -2.016  -2.500  -0.597  0.00  0.00    +0.000 Cl
ATOM      8 CL   UNL     1       1.105  -2.998   0.557  0.00  0.00    +0.000 Cl
ENDROOT
BRANCH   6   9
ATOM      9  C   UNL     1      -0.788   1.511   1.808  0.00  0.00    +0.000 C 
BRANCH   9  10
ATOM     10  S   UNL     1      -2.472   2.073   2.243  0.00  0.00    +0.000 S 
BRANCH  10  11
ATOM     11  C   UNL     1      -2.408   1.901   4.017  0.00  0.00    +0.000 A 
ATOM     12  C   UNL     1      -1.432   2.545   4.784  0.00  0.00    +0.000 A 
ATOM     13  C   UNL     1      -1.413   2.393   6.173  0.00  0.00    +0.000 A 
ATOM     14  C   UNL     1      -2.375   1.604   6.802  0.00  0.00    +0.000 A 
ATOM     15  C   UNL     1      -3.359   0.972   6.045  0.00  0.00    +0.000 A 
ATOM     16  C   UNL     1      -3.378   1.124   4.657  0.00  0.00    +0.000 A 
ENDBRANCH  10  11
ENDBRANCH   9  10
ENDBRANCH   6   9
TORSDOF 3
