REMARK  Name = *****
REMARK  6 active torsions:
REMARK  status: ('A' for Active; 'I' for Inactive)
REMARK    1  A    between atoms: C_1  and  C_2
REMARK    2  A    between atoms: C_4  and  C_9
REMARK    3  A    between atoms: C_5  and  C_8
REMARK    4  A    between atoms: C_9  and  C_10
REMARK    5  A    between atoms: C_10  and  C_11
REMARK    6  A    between atoms: C_11  and  C_13
REMARK                            x       y       z     vdW  Elec       q    Type
REMARK                         _______ _______ _______ _____ _____    ______ ____
ROOT
ATOM      1  C   UNL     1      -0.571   3.640  -0.380  0.00  0.00    +0.000 C 
ENDROOT
BRANCH   1   2
ATOM      2  C   UNL     1      -1.352   4.935  -0.501  0.00  0.00    +0.000 C 
ATOM      3  O   UNL     1      -2.572   4.983  -0.356  0.00  0.00    +0.000 OA
BRANCH   2   4
ATOM      4  C   UNL     1      -0.605   6.195  -0.808  0.00  0.00    +0.000 A 
ATOM      5  C   UNL     1      -1.338   7.384  -0.962  0.00  0.00    +0.000 A 
ATOM      6  C   UNL     1      -0.687   8.585  -1.251  0.00  0.00    +0.000 A 
ATOM      7  C   UNL     1       0.695   8.597  -1.385  0.00  0.00    +0.000 A 
ATOM      8  C   UNL     1       1.438   7.431  -1.236  0.00  0.00    +0.000 A 
ATOM      9  C   UNL     1       0.790   6.227  -0.946  0.00  0.00    +0.000 A 
ATOM     10  F   UNL     1       1.322   9.747  -1.663  0.00  0.00    +0.000 F 
ENDBRANCH   2   4
ENDBRANCH   1   2
BRANCH   1  11
ATOM     11  C   UNL     1      -1.490   2.447  -0.111  0.00  0.00    +0.000 C 
BRANCH  11  15
ATOM     12  C   UNL     1       0.628  -1.487  -2.405  0.00  0.00    +0.000 C 
ATOM     13  C   UNL     1       0.354  -0.727  -1.141  0.00  0.00    +0.000 A 
ATOM     14  C   UNL     1      -0.398   0.453  -1.172  0.00  0.00    +0.000 A 
ATOM     15  C   UNL     1      -0.700   1.161   0.007  0.00  0.00    +0.000 A 
ATOM     16  C   UNL     1      -0.234   0.671   1.242  0.00  0.00    +0.000 A 
ATOM     17  C   UNL     1       0.500  -0.526   1.268  0.00  0.00    +0.000 A 
ATOM     18  C   UNL     1       0.788  -1.218   0.091  0.00  0.00    +0.000 A 
ATOM     19  C   UNL     1      -0.532   1.367   2.542  0.00  0.00    +0.000 C 
ENDBRANCH  11  15
ENDBRANCH   1  11
TORSDOF 4
