REMARK  Name = *****
REMARK  5 active torsions:
REMARK  status: ('A' for Active; 'I' for Inactive)
REMARK    1  A    between atoms: C_4  and  C_7
REMARK    2  A    between atoms: C_7  and  N_8
REMARK    3  A    between atoms: N_8  and  C_9
REMARK    4  A    between atoms: C_9  and  C_11
REMARK    5  A    between atoms: C_16  and  S_17
REMARK                            x       y       z     vdW  Elec       q    Type
REMARK                         _______ _______ _______ _____ _____    ______ ____
ROOT
ATOM      1  C   UNL     1      -5.131  -0.655  -0.309  0.00  0.00    +0.000 C 
ATOM      2  S   UNL     1      -5.846   0.476  -1.323  0.00  0.00    +0.000 S 
ENDROOT
BRANCH   1   3
ATOM      3  C   UNL     1      -5.848  -1.894   0.096  0.00  0.00    +0.000 A 
ATOM      4  C   UNL     1      -6.921  -1.758   0.991  0.00  0.00    +0.000 A 
ATOM      5  C   UNL     1      -7.619  -2.884   1.424  0.00  0.00    +0.000 A 
ATOM      6  C   UNL     1      -7.247  -4.147   0.968  0.00  0.00    +0.000 A 
ATOM      7  C   UNL     1      -6.175  -4.287   0.082  0.00  0.00    +0.000 A 
ATOM      8  C   UNL     1      -5.456  -3.166  -0.359  0.00  0.00    +0.000 A 
BRANCH   8   9
ATOM      9  S   UNL     1      -4.109  -3.424  -1.506  0.00  0.00    +0.000 S 
ATOM     10  H   UNL     1      -3.539  -2.228  -1.813  0.00  0.00    +0.000 HD
ENDBRANCH   8   9
ENDBRANCH   1   3
BRANCH   1  11
ATOM     11  N   UNL     1      -3.876  -0.536   0.257  0.00  0.00    +0.000 N 
ATOM     12  H   UNL     1      -3.605  -1.233   0.898  0.00  0.00    +0.000 HD
BRANCH  11  13
ATOM     13  C   UNL     1      -2.921   0.526  -0.010  0.00  0.00    +0.000 C 
BRANCH  13  17
ATOM     14  C   UNL     1       0.677  -0.173   2.256  0.00  0.00    +0.000 A 
ATOM     15  C   UNL     1       0.574  -0.646   0.949  0.00  0.00    +0.000 A 
ATOM     16  C   UNL     1      -0.588  -0.413   0.211  0.00  0.00    +0.000 A 
ATOM     17  C   UNL     1      -1.654   0.304   0.772  0.00  0.00    +0.000 A 
ATOM     18  C   UNL     1      -1.544   0.764   2.092  0.00  0.00    +0.000 A 
ATOM     19  C   UNL     1      -0.382   0.529   2.828  0.00  0.00    +0.000 A 
ENDBRANCH  13  17
ENDBRANCH  11  13
ENDBRANCH   1  11
TORSDOF 5
