REMARK  Name = *****
REMARK  3 active torsions:
REMARK  status: ('A' for Active; 'I' for Inactive)
REMARK    1  A    between atoms: C_1  and  C_2
REMARK    2  A    between atoms: C_5  and  S_8
REMARK    3  A    between atoms: S_8  and  C_9
REMARK                            x       y       z     vdW  Elec       q    Type
REMARK                         _______ _______ _______ _____ _____    ______ ____
ROOT
ATOM      1  S   UNL     1      -3.618  -0.237   0.514  0.00  0.00    +0.000 S 
ENDROOT
BRANCH   1   6
ATOM      2  C   UNL     1      -2.896  -3.417  -4.639  0.00  0.00    +0.000 C 
ATOM      3  C   UNL     1      -3.077  -2.608  -3.389  0.00  0.00    +0.000 A 
ATOM      4  C   UNL     1      -1.988  -2.342  -2.551  0.00  0.00    +0.000 A 
ATOM      5  C   UNL     1      -2.165  -1.617  -1.369  0.00  0.00    +0.000 A 
ATOM      6  C   UNL     1      -3.431  -1.150  -1.007  0.00  0.00    +0.000 A 
ATOM      7  C   UNL     1      -4.524  -1.441  -1.826  0.00  0.00    +0.000 A 
ATOM      8  C   UNL     1      -4.349  -2.165  -3.009  0.00  0.00    +0.000 A 
ENDBRANCH   1   6
BRANCH   1   9
ATOM      9  C   UNL     1      -4.319   1.331  -0.128  0.00  0.00    +0.000 C 
ATOM     10  C   UNL     1      -3.304   2.138  -1.000  0.00  0.00    +0.000 C 
ATOM     11  C   UNL     1      -3.231   3.499  -0.272  0.00  0.00    +0.000 C 
ATOM     12  C   UNL     1      -3.281   3.054   1.192  0.00  0.00    +0.000 C 
ATOM     13  C   UNL     1      -4.621   2.326   1.027  0.00  0.00    +0.000 C 
ATOM     14  C   UNL     1      -5.421   3.466   0.426  0.00  0.00    +0.000 C 
ATOM     15  C   UNL     1      -4.587   4.160  -0.363  0.00  0.00    +0.000 C 
ENDBRANCH   1   9
TORSDOF 2
