REMARK  Name = *****
REMARK  4 active torsions:
REMARK  status: ('A' for Active; 'I' for Inactive)
REMARK    1  A    between atoms: C_4  and  C_7
REMARK    2  A    between atoms: C_7  and  O_8
REMARK    3  A    between atoms: O_8  and  C_9
REMARK    4  A    between atoms: C_9  and  C_11
REMARK                            x       y       z     vdW  Elec       q    Type
REMARK                         _______ _______ _______ _____ _____    ______ ____
ROOT
ATOM      1  C   UNL     1      -4.980  -0.705  -0.545  0.00  0.00    +0.000 C 
ATOM      2  O   UNL     1      -5.569   0.329  -0.819  0.00  0.00    +0.000 OA
ENDROOT
BRANCH   1   3
ATOM      3  C   UNL     1      -5.640  -2.024  -0.636  0.00  0.00    +0.000 A 
ATOM      4  C   UNL     1      -5.247  -3.122   0.130  0.00  0.00    +0.000 A 
ATOM      5  C   UNL     1      -5.940  -4.325   0.024  0.00  0.00    +0.000 A 
ATOM      6  C   UNL     1      -7.022  -4.437  -0.842  0.00  0.00    +0.000 A 
ATOM      7  C   UNL     1      -7.425  -3.353  -1.614  0.00  0.00    +0.000 A 
ATOM      8  C   UNL     1      -6.736  -2.143  -1.510  0.00  0.00    +0.000 A 
ATOM      9  F   UNL     1      -7.695  -5.591  -0.935  0.00  0.00    +0.000 F 
ATOM     10  F   UNL     1      -5.570  -5.377   0.769  0.00  0.00    +0.000 F 
ATOM     11  F   UNL     1      -4.227  -3.041   0.996  0.00  0.00    +0.000 F 
ENDBRANCH   1   3
BRANCH   1  12
ATOM     12  O   UNL     1      -3.676  -0.832  -0.222  0.00  0.00    +0.000 OA
BRANCH  12  13
ATOM     13  C   UNL     1      -2.919   0.387  -0.173  0.00  0.00    +0.000 C 
BRANCH  13  17
ATOM     14  C   UNL     1      -1.112   1.088   3.686  0.00  0.00    +0.000 A 
ATOM     15  C   UNL     1      -1.306  -0.219   3.243  0.00  0.00    +0.000 A 
ATOM     16  C   UNL     1      -1.903  -0.459   2.002  0.00  0.00    +0.000 A 
ATOM     17  C   UNL     1      -2.322   0.609   1.196  0.00  0.00    +0.000 A 
ATOM     18  C   UNL     1      -2.113   1.920   1.652  0.00  0.00    +0.000 A 
ATOM     19  C   UNL     1      -1.515   2.158   2.890  0.00  0.00    +0.000 A 
ENDBRANCH  13  17
ENDBRANCH  12  13
ENDBRANCH   1  12
TORSDOF 4
