REMARK  Name = *****
REMARK  3 active torsions:
REMARK  status: ('A' for Active; 'I' for Inactive)
REMARK    1  A    between atoms: C_4  and  S_7
REMARK    2  A    between atoms: S_7  and  C_8
REMARK    3  A    between atoms: C_8  and  C_9
REMARK                            x       y       z     vdW  Elec       q    Type
REMARK                         _______ _______ _______ _____ _____    ______ ____
ROOT
ATOM      1  C   UNL     1      -3.969  -0.959  -0.382  0.00  0.00    +0.000 C 
ENDROOT
BRANCH   1   2
ATOM      2  C   UNL     1      -5.459  -0.768  -0.532  0.00  0.00    +0.000 A 
ATOM      3  C   UNL     1      -6.013  -0.450  -1.781  0.00  0.00    +0.000 A 
ATOM      4  C   UNL     1      -7.390  -0.263  -1.911  0.00  0.00    +0.000 A 
ATOM      5  C   UNL     1      -8.228  -0.383  -0.805  0.00  0.00    +0.000 A 
ATOM      6  C   UNL     1      -7.685  -0.689   0.443  0.00  0.00    +0.000 A 
ATOM      7  C   UNL     1      -6.308  -0.878   0.580  0.00  0.00    +0.000 A 
ATOM      8 CL   UNL     1      -8.058   0.121  -3.450  0.00  0.00    +0.000 Cl
ENDBRANCH   1   2
BRANCH   1   9
ATOM      9  S   UNL     1      -3.138   0.618  -0.009  0.00  0.00    +0.000 S 
BRANCH   9  13
ATOM     10  C   UNL     1       1.343  -0.340   0.413  0.00  0.00    +0.000 A 
ATOM     11  C   UNL     1       0.470  -1.374   0.085  0.00  0.00    +0.000 A 
ATOM     12  C   UNL     1      -0.900  -1.124  -0.052  0.00  0.00    +0.000 A 
ATOM     13  C   UNL     1      -1.413   0.163   0.138  0.00  0.00    +0.000 A 
ATOM     14  C   UNL     1      -0.521   1.194   0.467  0.00  0.00    +0.000 A 
ATOM     15  C   UNL     1       0.848   0.946   0.604  0.00  0.00    +0.000 A 
ENDBRANCH   9  13
ENDBRANCH   1   9
TORSDOF 3
