REMARK  Name = *****
REMARK  3 active torsions:
REMARK  status: ('A' for Active; 'I' for Inactive)
REMARK    1  A    between atoms: C_4  and  P_6
REMARK    2  A    between atoms: P_6  and  P_7
REMARK    3  A    between atoms: P_7  and  C_8
REMARK                            x       y       z     vdW  Elec       q    Type
REMARK                         _______ _______ _______ _____ _____    ______ ____
ROOT
ATOM      1  P   UNL     1      -0.275  -3.028  -0.053  0.00  0.00    +0.000 P 
ENDROOT
BRANCH   1   5
ATOM      2  C   UNL     1       1.365   0.708   0.030  0.00  0.00    +0.000 A 
ATOM      3  C   UNL     1       0.067   1.161  -0.027  0.00  0.00    +0.000 A 
ATOM      4  S   UNL     1      -1.056  -0.127  -0.080  0.00  0.00    +0.000 S 
ATOM      5  C   UNL     1       0.191  -1.306  -0.027  0.00  0.00    +0.000 A 
ATOM      6  C   UNL     1       1.438  -0.720   0.030  0.00  0.00    +0.000 A 
ENDBRANCH   1   5
BRANCH   1   7
ATOM      7  P   UNL     1       1.430  -4.012   0.025  0.00  0.00    +0.000 P 
BRANCH   7   8
ATOM      8  C   UNL     1       0.986  -5.743  -0.021  0.00  0.00    +0.000 A 
ATOM      9  C   UNL     1       1.979  -6.705   0.019  0.00  0.00    +0.000 A 
ATOM     10  C   UNL     1       1.454  -8.032  -0.027  0.00  0.00    +0.000 A 
ATOM     11  C   UNL     1       0.080  -8.036  -0.100  0.00  0.00    +0.000 A 
ATOM     12  S   UNL     1      -0.561  -6.451  -0.113  0.00  0.00    +0.000 S 
ENDBRANCH   7   8
ENDBRANCH   1   7
TORSDOF 3
