REMARK  Name = *****
REMARK  3 active torsions:
REMARK  status: ('A' for Active; 'I' for Inactive)
REMARK    1  A    between atoms: C_4  and  C_7
REMARK    2  A    between atoms: C_7  and  S_9
REMARK    3  A    between atoms: S_9  and  C_10
REMARK                            x       y       z     vdW  Elec       q    Type
REMARK                         _______ _______ _______ _____ _____    ______ ____
ROOT
ATOM      1  C   UNL     1      -0.303   0.785   2.562  0.00  0.00    +0.000 C 
ATOM      2  O   UNL     1       0.496   0.002   3.066  0.00  0.00    +0.000 OA
ENDROOT
BRANCH   1   6
ATOM      3  C   UNL     1       1.550  -0.974  -0.335  0.00  0.00    +0.000 C 
ATOM      4  C   UNL     1       2.162   0.191   0.428  0.00  0.00    +0.000 C 
ATOM      5  S   UNL     1       1.155   1.702   0.369  0.00  0.00    +0.000 S 
ATOM      6  C   UNL     1      -0.412   1.101   1.070  0.00  0.00    +0.000 C 
ATOM      7  S   UNL     1      -1.112  -0.292   0.133  0.00  0.00    +0.000 S 
ATOM      8  C   UNL     1       0.247  -1.490   0.256  0.00  0.00    +0.000 C 
ENDBRANCH   1   6
BRANCH   1   9
ATOM      9  S   UNL     1      -1.482   1.614   3.592  0.00  0.00    +0.000 S 
BRANCH   9  10
ATOM     10  C   UNL     1      -0.721   3.223   3.684  0.00  0.00    +0.000 A 
ATOM     11  C   UNL     1      -1.447   4.350   3.284  0.00  0.00    +0.000 A 
ATOM     12  C   UNL     1      -0.865   5.618   3.342  0.00  0.00    +0.000 A 
ATOM     13  C   UNL     1       0.441   5.766   3.806  0.00  0.00    +0.000 A 
ATOM     14  C   UNL     1       1.165   4.649   4.217  0.00  0.00    +0.000 A 
ATOM     15  C   UNL     1       0.585   3.380   4.161  0.00  0.00    +0.000 A 
ENDBRANCH   9  10
ENDBRANCH   1   9
TORSDOF 3
