REMARK  Name = *****
REMARK  3 active torsions:
REMARK  status: ('A' for Active; 'I' for Inactive)
REMARK    1  A    between atoms: C_2  and  C_13
REMARK    2  A    between atoms: C_3  and  C_4
REMARK    3  A    between atoms: C_3  and  C_6
REMARK                            x       y       z     vdW  Elec       q    Type
REMARK                         _______ _______ _______ _____ _____    ______ ____
ROOT
ATOM      1  C   UNL     1       1.283  -0.788  -0.220  0.00  0.00    +0.000 C 
ATOM      2  C   UNL     1       1.458   0.701  -0.300  0.00  0.00    +0.000 C 
ATOM      3  C   UNL     1       0.260   0.108   0.477  0.00  0.00    +0.000 C 
ENDROOT
BRANCH   3   4
ATOM      4  C   UNL     1       0.269   0.104   2.017  0.00  0.00    +0.000 A 
ATOM      5  C   UNL     1       0.101   1.295   2.750  0.00  0.00    +0.000 A 
ATOM      6  C   UNL     1       0.092   1.302   4.148  0.00  0.00    +0.000 A 
ATOM      7  C   UNL     1       0.235   0.108   4.846  0.00  0.00    +0.000 A 
ATOM      8  C   UNL     1       0.378  -1.090   4.155  0.00  0.00    +0.000 A 
ATOM      9  C   UNL     1       0.387  -1.089   2.756  0.00  0.00    +0.000 A 
ATOM     10 CL   UNL     1       0.224   0.112   6.565  0.00  0.00    +0.000 Cl
ENDBRANCH   3   4
BRANCH   2  11
ATOM     11  C   UNL     1       2.589   1.425   0.404  0.00  0.00    +0.000 A 
ATOM     12  C   UNL     1       3.795   0.802   0.765  0.00  0.00    +0.000 A 
ATOM     13  C   UNL     1       4.822   1.506   1.402  0.00  0.00    +0.000 A 
ATOM     14  C   UNL     1       4.670   2.860   1.682  0.00  0.00    +0.000 A 
ATOM     15  C   UNL     1       3.496   3.510   1.317  0.00  0.00    +0.000 A 
ATOM     16  C   UNL     1       2.475   2.800   0.681  0.00  0.00    +0.000 A 
ENDBRANCH   2  11
BRANCH   3  17
ATOM     17  C   UNL     1      -1.022   0.237  -0.204  0.00  0.00    +0.000 C 
ATOM     18  N   UNL     1      -2.033   0.343  -0.764  0.00  0.00    +0.000 NA
ENDBRANCH   3  17
TORSDOF 3
