REMARK  Name = *****
REMARK  1 active torsions:
REMARK  status: ('A' for Active; 'I' for Inactive)
REMARK    1  A    between atoms: C_3  and  C_11
REMARK                            x       y       z     vdW  Elec       q    Type
REMARK                         _______ _______ _______ _____ _____    ______ ____
ROOT
ATOM      1  C   UNL     1      -1.172   1.532  -0.075  0.00  0.00    +0.000 C 
ATOM      2  C   UNL     1      -2.213   0.423  -0.120  0.00  0.00    +0.000 C 
ATOM      3  C   UNL     1      -2.331  -0.516  -1.306  0.00  0.00    +0.000 C 
ATOM      4  C   UNL     1      -1.523  -0.929  -0.089  0.00  0.00    +0.000 C 
ATOM      5  C   UNL     1      -0.065  -0.605  -0.003  0.00  0.00    +0.000 A 
ATOM      6  C   UNL     1       1.024  -1.463   0.056  0.00  0.00    +0.000 A 
ATOM      7  C   UNL     1       2.311  -0.921   0.131  0.00  0.00    +0.000 A 
ATOM      8  C   UNL     1       2.502   0.469   0.146  0.00  0.00    +0.000 A 
ATOM      9  C   UNL     1       1.411   1.336   0.085  0.00  0.00    +0.000 A 
ATOM     10  C   UNL     1       0.140   0.788   0.011  0.00  0.00    +0.000 A 
ENDROOT
BRANCH   3  11
ATOM     11  C   UNL     1      -3.651  -1.193  -1.595  0.00  0.00    +0.000 A 
ATOM     12  C   UNL     1      -4.826  -0.448  -1.784  0.00  0.00    +0.000 A 
ATOM     13  C   UNL     1      -6.046  -1.069  -2.067  0.00  0.00    +0.000 A 
ATOM     14  C   UNL     1      -6.112  -2.455  -2.173  0.00  0.00    +0.000 A 
ATOM     15  C   UNL     1      -4.960  -3.216  -2.001  0.00  0.00    +0.000 A 
ATOM     16  C   UNL     1      -3.744  -2.589  -1.719  0.00  0.00    +0.000 A 
ENDBRANCH   3  11
TORSDOF 1
