REMARK  Name = *****
REMARK  7 active torsions:
REMARK  status: ('A' for Active; 'I' for Inactive)
REMARK    1  A    between atoms: C_1  and  C_2
REMARK    2  A    between atoms: C_3  and  C_9
REMARK    3  A    between atoms: C_4  and  C_8
REMARK    4  A    between atoms: C_9  and  C_10
REMARK    5  A    between atoms: C_9  and  C_17
REMARK    6  A    between atoms: C_10  and  C_11
REMARK    7  A    between atoms: C_17  and  C_19
REMARK                            x       y       z     vdW  Elec       q    Type
REMARK                         _______ _______ _______ _____ _____    ______ ____
ROOT
ATOM      1  C   UNL     1      -0.088   2.478  -0.020  0.00  0.00    +0.000 C 
ENDROOT
BRANCH   1   4
ATOM      2  C   UNL     1      -1.724   0.805  -1.893  0.00  0.00    +0.000 C 
ATOM      3  C   UNL     1      -0.622   0.202  -1.058  0.00  0.00    +0.000 A 
ATOM      4  C   UNL     1       0.170   0.969  -0.154  0.00  0.00    +0.000 A 
ATOM      5  C   UNL     1       1.180   0.301   0.592  0.00  0.00    +0.000 A 
ATOM      6  C   UNL     1       1.358  -1.087   0.436  0.00  0.00    +0.000 A 
ATOM      7  C   UNL     1       0.582  -1.819  -0.452  0.00  0.00    +0.000 A 
ATOM      8  C   UNL     1      -0.399  -1.179  -1.194  0.00  0.00    +0.000 A 
ATOM      9  C   UNL     1       2.060   0.964   1.622  0.00  0.00    +0.000 C 
ENDBRANCH   1   4
BRANCH   1  10
ATOM     10  C   UNL     1       1.121   3.317  -0.447  0.00  0.00    +0.000 C 
ATOM     11  O   UNL     1       1.594   4.209   0.261  0.00  0.00    +0.000 OA
ATOM     12  C   UNL     1       1.697   3.052  -1.818  0.00  0.00    +0.000 C 
ENDBRANCH   1  10
BRANCH   1  13
ATOM     13  C   UNL     1      -0.628   2.913   1.361  0.00  0.00    +0.000 C 
BRANCH  13  14
ATOM     14  C   UNL     1      -2.031   2.419   1.637  0.00  0.00    +0.000 A 
ATOM     15  C   UNL     1      -2.243   1.179   2.254  0.00  0.00    +0.000 A 
ATOM     16  C   UNL     1      -3.539   0.715   2.484  0.00  0.00    +0.000 A 
ATOM     17  C   UNL     1      -4.635   1.486   2.100  0.00  0.00    +0.000 A 
ATOM     18  C   UNL     1      -4.436   2.720   1.486  0.00  0.00    +0.000 A 
ATOM     19  C   UNL     1      -3.141   3.185   1.253  0.00  0.00    +0.000 A 
ENDBRANCH  13  14
ENDBRANCH   1  13
TORSDOF 4
