REMARK  Name = *****
REMARK  3 active torsions:
REMARK  status: ('A' for Active; 'I' for Inactive)
REMARK    1  A    between atoms: C_3  and  C_5
REMARK    2  A    between atoms: C_5  and  O_7
REMARK    3  A    between atoms: O_7  and  C_8
REMARK                            x       y       z     vdW  Elec       q    Type
REMARK                         _______ _______ _______ _____ _____    ______ ____
ROOT
ATOM      1  C   UNL     1      -2.524  -1.425  -3.261  0.00  0.00    +0.000 A 
ATOM      2  C   UNL     1      -2.813  -0.299  -4.034  0.00  0.00    +0.000 A 
ATOM      3  C   UNL     1      -3.235  -0.467  -5.355  0.00  0.00    +0.000 A 
ATOM      4  C   UNL     1      -3.378  -1.758  -5.886  0.00  0.00    +0.000 A 
ATOM      5  C   UNL     1      -3.104  -2.880  -5.094  0.00  0.00    +0.000 A 
ATOM      6  C   UNL     1      -2.682  -2.714  -3.776  0.00  0.00    +0.000 A 
ATOM      7 CL   UNL     1      -2.380  -4.110  -2.812  0.00  0.00    +0.000 Cl
ATOM      8 CL   UNL     1      -3.901  -2.034  -7.510  0.00  0.00    +0.000 Cl
ATOM      9 CL   UNL     1      -3.571   0.955  -6.276  0.00  0.00    +0.000 Cl
ENDROOT
BRANCH   1  10
ATOM     10  O   UNL     1      -2.126  -1.229  -1.935  0.00  0.00    +0.000 OA
BRANCH  10  11
ATOM     11  C   UNL     1      -0.738  -1.168  -1.789  0.00  0.00    +0.000 C 
ATOM     12  O   UNL     1       0.052  -1.212  -2.731  0.00  0.00    +0.000 OA
BRANCH  11  15
ATOM     13  C   UNL     1       0.919   0.651   0.102  0.00  0.00    +0.000 C 
ATOM     14  C   UNL     1      -0.571   0.364   0.364  0.00  0.00    +0.000 C 
ATOM     15  C   UNL     1      -0.359  -1.029  -0.288  0.00  0.00    +0.000 C 
ATOM     16  C   UNL     1       1.143  -0.871   0.072  0.00  0.00    +0.000 C 
ENDBRANCH  11  15
ENDBRANCH  10  11
ENDBRANCH   1  10
TORSDOF 3
