REMARK  Name = *****
REMARK  4 active torsions:
REMARK  status: ('A' for Active; 'I' for Inactive)
REMARK    1  A    between atoms: C_3  and  C_7
REMARK    2  A    between atoms: C_7  and  C_9
REMARK    3  A    between atoms: C_9  and  S_10
REMARK    4  A    between atoms: S_10  and  C_11
REMARK                            x       y       z     vdW  Elec       q    Type
REMARK                         _______ _______ _______ _____ _____    ______ ____
ROOT
ATOM      1  C   UNL     1      -1.163   0.486  -1.868  0.00  0.00    +0.000 C 
ATOM      2  O   UNL     1      -0.894  -0.533  -2.515  0.00  0.00    +0.000 OA
ENDROOT
BRANCH   1   5
ATOM      3  C   UNL     1      -2.739  -1.636  -0.197  0.00  0.00    +0.000 C 
ATOM      4  C   UNL     1      -1.394  -1.000   0.177  0.00  0.00    +0.000 C 
ATOM      5  C   UNL     1      -1.268   0.447  -0.331  0.00  0.00    +0.000 C 
ATOM      6  C   UNL     1      -2.417   1.293   0.244  0.00  0.00    +0.000 C 
ATOM      7  C   UNL     1      -3.757   0.624   0.144  0.00  0.00    +0.000 C 
ATOM      8  C   UNL     1      -3.898  -0.692  -0.069  0.00  0.00    +0.000 C 
ENDBRANCH   1   5
BRANCH   1   9
ATOM      9  C   UNL     1      -1.326   1.806  -2.597  0.00  0.00    +0.000 C 
BRANCH   9  10
ATOM     10  S   UNL     1      -0.003   2.962  -2.124  0.00  0.00    +0.000 S 
BRANCH  10  11
ATOM     11  C   UNL     1      -0.537   4.413  -3.010  0.00  0.00    +0.000 A 
ATOM     12  C   UNL     1      -0.766   5.597  -2.302  0.00  0.00    +0.000 A 
ATOM     13  C   UNL     1      -1.175   6.752  -2.971  0.00  0.00    +0.000 A 
ATOM     14  C   UNL     1      -1.350   6.733  -4.353  0.00  0.00    +0.000 A 
ATOM     15  C   UNL     1      -1.109   5.561  -5.068  0.00  0.00    +0.000 A 
ATOM     16  C   UNL     1      -0.700   4.405  -4.399  0.00  0.00    +0.000 A 
ENDBRANCH  10  11
ENDBRANCH   9  10
ENDBRANCH   1   9
TORSDOF 4
