REMARK  Name = *****
REMARK  4 active torsions:
REMARK  status: ('A' for Active; 'I' for Inactive)
REMARK    1  A    between atoms: C_1  and  C_2
REMARK    2  A    between atoms: C_2  and  C_3
REMARK    3  A    between atoms: C_2  and  C_11
REMARK    4  A    between atoms: C_4  and  C_5
REMARK                            x       y       z     vdW  Elec       q    Type
REMARK                         _______ _______ _______ _____ _____    ______ ____
ROOT
ATOM      1  C   UNL     1       0.548  -0.205   0.650  0.00  0.00    +0.000 C 
ATOM      2  C   UNL     1       1.991   0.122   0.243  0.00  0.00    +0.000 C 
ENDROOT
BRANCH   2   3
ATOM      3  C   UNL     1       2.951  -1.033   0.493  0.00  0.00    +0.000 A 
ATOM      4  C   UNL     1       3.873  -1.390  -0.505  0.00  0.00    +0.000 A 
ATOM      5  C   UNL     1       4.778  -2.433  -0.304  0.00  0.00    +0.000 A 
ATOM      6  C   UNL     1       4.781  -3.131   0.901  0.00  0.00    +0.000 A 
ATOM      7  C   UNL     1       3.882  -2.782   1.907  0.00  0.00    +0.000 A 
ATOM      8  C   UNL     1       2.976  -1.738   1.707  0.00  0.00    +0.000 A 
ENDBRANCH   2   3
BRANCH   2   9
ATOM      9  C   UNL     1       2.458   1.378   0.950  0.00  0.00    +0.000 C 
ATOM     10  C   UNL     1       2.863   2.526   0.382  0.00  0.00    +0.000 C 
BRANCH  10  11
ATOM     11  C   UNL     1       2.931   2.759  -1.059  0.00  0.00    +0.000 A 
ATOM     12  C   UNL     1       1.814   3.240  -1.750  0.00  0.00    +0.000 A 
ATOM     13  C   UNL     1       1.879   3.447  -3.129  0.00  0.00    +0.000 A 
ATOM     14  C   UNL     1       3.058   3.172  -3.822  0.00  0.00    +0.000 A 
ATOM     15  C   UNL     1       4.173   2.691  -3.137  0.00  0.00    +0.000 A 
ATOM     16  C   UNL     1       4.111   2.484  -1.758  0.00  0.00    +0.000 A 
ENDBRANCH  10  11
ENDBRANCH   2   9
TORSDOF 3
