REMARK  Name = *****
REMARK  3 active torsions:
REMARK  status: ('A' for Active; 'I' for Inactive)
REMARK    1  A    between atoms: C_1  and  C_2
REMARK    2  A    between atoms: C_1  and  C_8
REMARK    3  A    between atoms: C_8  and  C_9
REMARK                            x       y       z     vdW  Elec       q    Type
REMARK                         _______ _______ _______ _____ _____    ______ ____
ROOT
ATOM      1  C   UNL     1       3.025  -0.184   1.224  0.00  0.00    +0.000 C 
ATOM      2  F   UNL     1       4.128  -0.704   0.599  0.00  0.00    +0.000 F 
ENDROOT
BRANCH   1   3
ATOM      3  C   UNL     1       2.473  -1.135   2.265  0.00  0.00    +0.000 A 
ATOM      4  C   UNL     1       2.747  -2.507   2.191  0.00  0.00    +0.000 A 
ATOM      5  C   UNL     1       2.226  -3.387   3.141  0.00  0.00    +0.000 A 
ATOM      6  C   UNL     1       1.424  -2.903   4.174  0.00  0.00    +0.000 A 
ATOM      7  C   UNL     1       1.144  -1.540   4.258  0.00  0.00    +0.000 A 
ATOM      8  C   UNL     1       1.665  -0.659   3.309  0.00  0.00    +0.000 A 
ENDBRANCH   1   3
BRANCH   1   9
ATOM      9  C   UNL     1       1.973   0.133   0.151  0.00  0.00    +0.000 C 
BRANCH   9  10
ATOM     10  C   UNL     1       2.355   1.326  -0.696  0.00  0.00    +0.000 A 
ATOM     11  C   UNL     1       3.345   1.210  -1.681  0.00  0.00    +0.000 A 
ATOM     12  C   UNL     1       3.707   2.313  -2.455  0.00  0.00    +0.000 A 
ATOM     13  C   UNL     1       3.084   3.543  -2.252  0.00  0.00    +0.000 A 
ATOM     14  C   UNL     1       2.099   3.670  -1.274  0.00  0.00    +0.000 A 
ATOM     15  C   UNL     1       1.736   2.568  -0.498  0.00  0.00    +0.000 A 
ENDBRANCH   9  10
ENDBRANCH   1   9
TORSDOF 3
