REMARK  Name = *****
REMARK  2 active torsions:
REMARK  status: ('A' for Active; 'I' for Inactive)
REMARK    1  A    between atoms: C_2  and  C_11
REMARK    2  A    between atoms: C_4  and  C_5
REMARK                            x       y       z     vdW  Elec       q    Type
REMARK                         _______ _______ _______ _____ _____    ______ ____
ROOT
ATOM      1  C   UNL     1       0.465   0.891  -0.327  0.00  0.00    +0.000 C 
ATOM      2  C   UNL     1      -0.968   0.421   0.054  0.00  0.00    +0.000 C 
ATOM      3  S   UNL     1      -0.424  -1.318  -0.180  0.00  0.00    +0.000 S 
ATOM      4  C   UNL     1       1.135  -0.410   0.212  0.00  0.00    +0.000 C 
ENDROOT
BRANCH   4   5
ATOM      5  C   UNL     1       1.506  -0.581   1.751  0.00  0.00    +0.000 A 
ATOM      6  C   UNL     1       1.869  -1.842   2.276  0.00  0.00    +0.000 A 
ATOM      7  C   UNL     1       2.217  -2.026   3.617  0.00  0.00    +0.000 A 
ATOM      8  C   UNL     1       2.221  -0.943   4.487  0.00  0.00    +0.000 A 
ATOM      9  C   UNL     1       1.881   0.318   4.012  0.00  0.00    +0.000 A 
ATOM     10  C   UNL     1       1.534   0.492   2.667  0.00  0.00    +0.000 A 
ENDBRANCH   4   5
BRANCH   2  11
ATOM     11  C   UNL     1      -2.199   0.778  -0.876  0.00  0.00    +0.000 A 
ATOM     12  C   UNL     1      -2.141   0.769  -2.286  0.00  0.00    +0.000 A 
ATOM     13  C   UNL     1      -3.242   1.103  -3.083  0.00  0.00    +0.000 A 
ATOM     14  C   UNL     1      -4.447   1.458  -2.490  0.00  0.00    +0.000 A 
ATOM     15  C   UNL     1      -4.550   1.476  -1.104  0.00  0.00    +0.000 A 
ATOM     16  C   UNL     1      -3.444   1.141  -0.317  0.00  0.00    +0.000 A 
ENDBRANCH   2  11
TORSDOF 2
