REMARK  Name = *****
REMARK  6 active torsions:
REMARK  status: ('A' for Active; 'I' for Inactive)
REMARK    1  A    between atoms: C_1  and  C_2
REMARK    2  A    between atoms: C_2  and  N_3
REMARK    3  A    between atoms: N_3  and  C_4
REMARK    4  A    between atoms: N_3  and  N_19
REMARK    5  A    between atoms: C_9  and  C_10
REMARK    6  A    between atoms: C_11  and  C_12
REMARK                            x       y       z     vdW  Elec       q    Type
REMARK                         _______ _______ _______ _____ _____    ______ ____
ROOT
ATOM      1  C   UNL     1       2.110   2.258  -1.354  0.00  0.00    +0.000 A 
ATOM      2  C   UNL     1       1.086   3.039  -0.780  0.00  0.00    +0.000 A 
ATOM      3  C   UNL     1       0.165   3.731  -1.570  0.00  0.00    +0.000 A 
ATOM      4  C   UNL     1       0.249   3.659  -2.956  0.00  0.00    +0.000 A 
ATOM      5  C   UNL     1       1.254   2.898  -3.551  0.00  0.00    +0.000 A 
ATOM      6  C   UNL     1       2.188   2.198  -2.768  0.00  0.00    +0.000 A 
ENDROOT
BRANCH   6   7
ATOM      7  C   UNL     1       3.189   1.384  -3.471  0.00  0.00    +0.000 C 
ATOM      8  C   UNL     1       2.875   0.203  -4.026  0.00  0.00    +0.000 C 
BRANCH   8   9
ATOM      9  C   UNL     1       3.847  -0.662  -4.707  0.00  0.00    +0.000 A 
ATOM     10  C   UNL     1       5.165  -0.809  -4.247  0.00  0.00    +0.000 A 
ATOM     11  C   UNL     1       6.052  -1.667  -4.900  0.00  0.00    +0.000 A 
ATOM     12  C   UNL     1       5.619  -2.387  -6.007  0.00  0.00    +0.000 A 
ATOM     13  C   UNL     1       4.315  -2.271  -6.469  0.00  0.00    +0.000 A 
ATOM     14  C   UNL     1       3.427  -1.412  -5.815  0.00  0.00    +0.000 A 
ATOM     15  F   UNL     1       6.470  -3.212  -6.632  0.00  0.00    +0.000 F 
ENDBRANCH   8   9
ENDBRANCH   6   7
BRANCH   1  16
ATOM     16  N   UNL     1       3.030   1.583  -0.498  0.00  0.00    +0.000 N 
BRANCH  16  18
ATOM     17  C   UNL     1       2.323  -0.785  -0.356  0.00  0.00    +0.000 C 
ATOM     18  C   UNL     1       2.394   0.560   0.355  0.00  0.00    +0.000 C 
ENDBRANCH  16  18
BRANCH  16  19
ATOM     19  N   UNL     1       4.365   1.761  -0.655  0.00  0.00    +0.000 NA
ATOM     20  O   UNL     1       5.051   1.042   0.080  0.00  0.00    +0.000 OA
ENDBRANCH  16  19
ENDBRANCH   1  16
TORSDOF 5
