REMARK  Name = *****
REMARK  4 active torsions:
REMARK  status: ('A' for Active; 'I' for Inactive)
REMARK    1  A    between atoms: C_1  and  C_2
REMARK    2  A    between atoms: N_6  and  O_7
REMARK    3  A    between atoms: O_7  and  C_8
REMARK    4  A    between atoms: C_8  and  C_9
REMARK                            x       y       z     vdW  Elec       q    Type
REMARK                         _______ _______ _______ _____ _____    ______ ____
ROOT
ATOM      1  C   UNL     1       1.093   0.047   0.354  0.00  0.00    +0.000 C 
ATOM      2  C   UNL     1       2.606   0.045   0.162  0.00  0.00    +0.000 C 
ATOM      3  S   UNL     1       3.165   1.317  -1.015  0.00  0.00    +0.000 S 
ATOM      4  C   UNL     1       2.499   0.654  -2.569  0.00  0.00    +0.000 C 
ATOM      5  C   UNL     1       3.063  -0.728  -2.826  0.00  0.00    +0.000 C 
ATOM      6  N   UNL     1       3.913  -1.038  -3.762  0.00  0.00    +0.000 NA
ATOM      7  C   UNL     1       2.584  -1.833  -1.912  0.00  0.00    +0.000 C 
ATOM      8  S   UNL     1       3.255  -1.608  -0.243  0.00  0.00    +0.000 S 
ENDROOT
BRANCH   6   9
ATOM      9  O   UNL     1       4.264   0.081  -4.529  0.00  0.00    +0.000 OA
BRANCH   9  10
ATOM     10  C   UNL     1       5.304  -0.284  -5.437  0.00  0.00    +0.000 C 
BRANCH  10  11
ATOM     11  C   UNL     1       5.693   0.931  -6.239  0.00  0.00    +0.000 A 
ATOM     12  C   UNL     1       6.351   2.004  -5.619  0.00  0.00    +0.000 A 
ATOM     13  C   UNL     1       6.712   3.134  -6.354  0.00  0.00    +0.000 A 
ATOM     14  C   UNL     1       6.417   3.205  -7.714  0.00  0.00    +0.000 A 
ATOM     15  C   UNL     1       5.758   2.148  -8.339  0.00  0.00    +0.000 A 
ATOM     16  C   UNL     1       5.396   1.016  -7.606  0.00  0.00    +0.000 A 
ENDBRANCH  10  11
ENDBRANCH   9  10
ENDBRANCH   6   9
TORSDOF 3
