REMARK  Name = *****
REMARK  2 active torsions:
REMARK  status: ('A' for Active; 'I' for Inactive)
REMARK    1  A    between atoms: C_6  and  S_9
REMARK    2  A    between atoms: S_9  and  C_10
REMARK                            x       y       z     vdW  Elec       q    Type
REMARK                         _______ _______ _______ _____ _____    ______ ____
ROOT
ATOM      1  C   UNL     1       1.077   0.368  -0.596  0.00  0.00    +0.000 C 
ATOM      2  C   UNL     1       1.565   0.754  -2.000  0.00  0.00    +0.000 C 
ATOM      3  C   UNL     1       2.706   1.664  -1.612  0.00  0.00    +0.000 C 
ATOM      4  C   UNL     1       3.203   1.281  -0.424  0.00  0.00    +0.000 C 
ATOM      5  C   UNL     1       2.422   0.085   0.095  0.00  0.00    +0.000 C 
ATOM      6  C   UNL     1       3.025  -1.250  -0.451  0.00  0.00    +0.000 C 
ATOM      7  C   UNL     1       2.781  -1.414  -1.954  0.00  0.00    +0.000 C 
ATOM      8  C   UNL     1       2.117  -0.485  -2.675  0.00  0.00    +0.000 C 
ENDROOT
BRANCH   6   9
ATOM      9  S   UNL     1       2.271  -2.718   0.373  0.00  0.00    +0.000 S 
BRANCH   9  10
ATOM     10  C   UNL     1       2.944  -2.554   2.016  0.00  0.00    +0.000 A 
ATOM     11  C   UNL     1       2.070  -2.430   3.100  0.00  0.00    +0.000 A 
ATOM     12  C   UNL     1       2.569  -2.306   4.399  0.00  0.00    +0.000 A 
ATOM     13  C   UNL     1       3.945  -2.314   4.621  0.00  0.00    +0.000 A 
ATOM     14  C   UNL     1       4.822  -2.455   3.546  0.00  0.00    +0.000 A 
ATOM     15  C   UNL     1       4.323  -2.579   2.248  0.00  0.00    +0.000 A 
ENDBRANCH   9  10
ENDBRANCH   6   9
TORSDOF 2
