REMARK  Name = *****
REMARK  3 active torsions:
REMARK  status: ('A' for Active; 'I' for Inactive)
REMARK    1  A    between atoms: C_6  and  C_7
REMARK    2  A    between atoms: C_7  and  O_8
REMARK    3  A    between atoms: O_8  and  C_9
REMARK                            x       y       z     vdW  Elec       q    Type
REMARK                         _______ _______ _______ _____ _____    ______ ____
ROOT
ATOM      1  C   UNL     1       3.931   0.018   0.050  0.00  0.00    +0.000 C 
ENDROOT
BRANCH   1   7
ATOM      2  C   UNL     1       1.678  -0.566   1.052  0.00  0.00    +0.000 A 
ATOM      3  C   UNL     1       0.281  -0.531   1.031  0.00  0.00    +0.000 A 
ATOM      4  C   UNL     1      -0.380   0.140   0.005  0.00  0.00    +0.000 A 
ATOM      5  C   UNL     1       0.342   0.778  -1.001  0.00  0.00    +0.000 A 
ATOM      6  C   UNL     1       1.738   0.743  -0.980  0.00  0.00    +0.000 A 
ATOM      7  C   UNL     1       2.420   0.071   0.047  0.00  0.00    +0.000 A 
ATOM      8 CL   UNL     1      -2.100   0.180  -0.021  0.00  0.00    +0.000 Cl
ENDBRANCH   1   7
BRANCH   1   9
ATOM      9  O   UNL     1       4.437   1.351   0.085  0.00  0.00    +0.000 OA
BRANCH   9  10
ATOM     10  C   UNL     1       5.795   1.504   0.053  0.00  0.00    +0.000 A 
ATOM     11  C   UNL     1       6.738   0.473   0.007  0.00  0.00    +0.000 A 
ATOM     12  C   UNL     1       8.103   0.775  -0.023  0.00  0.00    +0.000 A 
ATOM     13  C   UNL     1       8.518   2.101  -0.007  0.00  0.00    +0.000 A 
ATOM     14  C   UNL     1       7.593   3.135   0.040  0.00  0.00    +0.000 A 
ATOM     15  C   UNL     1       6.231   2.834   0.070  0.00  0.00    +0.000 A 
ATOM     16  F   UNL     1       9.826   2.384  -0.037  0.00  0.00    +0.000 F 
ENDBRANCH   9  10
ENDBRANCH   1   9
TORSDOF 3
