REMARK  Name = *****
REMARK  6 active torsions:
REMARK  status: ('A' for Active; 'I' for Inactive)
REMARK    1  A    between atoms: C_1  and  C_2
REMARK    2  A    between atoms: C_2  and  O_3
REMARK    3  A    between atoms: O_3  and  C_4
REMARK    4  A    between atoms: C_7  and  S_10
REMARK    5  A    between atoms: S_10  and  C_11
REMARK    6  A    between atoms: C_11  and  C_12
REMARK                            x       y       z     vdW  Elec       q    Type
REMARK                         _______ _______ _______ _____ _____    ______ ____
ROOT
ATOM      1  C   UNL     1       4.398   0.138  -1.760  0.00  0.00    +0.000 A 
ATOM      2  N   UNL     1       4.849   1.278  -2.323  0.00  0.00    +0.000 NA
ATOM      3  N   UNL     1       6.197   1.459  -2.499  0.00  0.00    +0.000 NA
ATOM      4  C   UNL     1       7.068   0.502  -2.113  0.00  0.00    +0.000 A 
ATOM      5  C   UNL     1       6.623  -0.677  -1.533  0.00  0.00    +0.000 A 
ATOM      6  C   UNL     1       5.256  -0.864  -1.352  0.00  0.00    +0.000 A 
ENDROOT
BRANCH   1   7
ATOM      7  O   UNL     1       3.049  -0.076  -1.569  0.00  0.00    +0.000 OA
BRANCH   7   9
ATOM      8  C   UNL     1       0.787   0.647  -1.768  0.00  0.00    +0.000 C 
ATOM      9  C   UNL     1       2.238   1.006  -2.030  0.00  0.00    +0.000 C 
ENDBRANCH   7   9
ENDBRANCH   1   7
BRANCH   4  10
ATOM     10  S   UNL     1       8.813   0.752  -2.355  0.00  0.00    +0.000 S 
BRANCH  10  11
ATOM     11  C   UNL     1       8.806   2.423  -3.084  0.00  0.00    +0.000 C 
BRANCH  11  12
ATOM     12  C   UNL     1      10.208   2.889  -3.393  0.00  0.00    +0.000 A 
ATOM     13  C   UNL     1      10.783   2.636  -4.647  0.00  0.00    +0.000 A 
ATOM     14  C   UNL     1      12.084   3.057  -4.928  0.00  0.00    +0.000 A 
ATOM     15  C   UNL     1      12.825   3.729  -3.958  0.00  0.00    +0.000 A 
ATOM     16  C   UNL     1      12.268   3.978  -2.705  0.00  0.00    +0.000 A 
ATOM     17  C   UNL     1      10.967   3.558  -2.421  0.00  0.00    +0.000 A 
ENDBRANCH  11  12
ENDBRANCH  10  11
ENDBRANCH   4  10
TORSDOF 5
