REMARK  Name = *****
REMARK  6 active torsions:
REMARK  status: ('A' for Active; 'I' for Inactive)
REMARK    1  A    between atoms: C_1  and  C_2
REMARK    2  A    between atoms: C_3  and  C_18
REMARK    3  A    between atoms: C_5  and  O_8
REMARK    4  A    between atoms: O_8  and  C_9
REMARK    5  A    between atoms: C_9  and  C_11
REMARK    6  A    between atoms: C_16  and  C_17
REMARK                            x       y       z     vdW  Elec       q    Type
REMARK                         _______ _______ _______ _____ _____    ______ ____
ROOT
ATOM      1  O   UNL     1      -3.149  -1.314  -0.253  0.00  0.00    +0.000 OA
ENDROOT
BRANCH   1   6
ATOM      2  C   UNL     1       1.764   1.498   0.366  0.00  0.00    +0.000 C 
ATOM      3  C   UNL     1       0.475   0.737   0.210  0.00  0.00    +0.000 A 
ATOM      4  C   UNL     1       0.468  -0.655  -0.028  0.00  0.00    +0.000 A 
ATOM      5  C   UNL     1      -0.760  -1.322  -0.162  0.00  0.00    +0.000 A 
ATOM      6  C   UNL     1      -1.954  -0.614  -0.052  0.00  0.00    +0.000 A 
ATOM      7  C   UNL     1      -1.959   0.761   0.153  0.00  0.00    +0.000 A 
ATOM      8  C   UNL     1      -0.745   1.432   0.292  0.00  0.00    +0.000 A 
ATOM      9  C   UNL     1       1.747  -1.439  -0.132  0.00  0.00    +0.000 C 
ENDBRANCH   1   6
BRANCH   1  10
ATOM     10  C   UNL     1      -3.973  -1.390   0.857  0.00  0.00    +0.000 C 
ATOM     11  O   UNL     1      -3.774  -0.921   1.966  0.00  0.00    +0.000 OA
BRANCH  10  12
ATOM     12  C   UNL     1      -5.208  -2.128   0.469  0.00  0.00    +0.000 A 
ATOM     13  C   UNL     1      -5.106  -3.220  -0.410  0.00  0.00    +0.000 A 
ATOM     14  C   UNL     1      -6.240  -3.947  -0.771  0.00  0.00    +0.000 A 
ATOM     15  C   UNL     1      -7.482  -3.595  -0.254  0.00  0.00    +0.000 A 
ATOM     16  C   UNL     1      -7.595  -2.516   0.624  0.00  0.00    +0.000 A 
ATOM     17  C   UNL     1      -6.466  -1.764   0.993  0.00  0.00    +0.000 A 
ATOM     18  C   UNL     1      -6.641  -0.614   1.946  0.00  0.00    +0.000 C 
ENDBRANCH  10  12
ENDBRANCH   1  10
TORSDOF 3
