REMARK  Name = *****
REMARK  4 active torsions:
REMARK  status: ('A' for Active; 'I' for Inactive)
REMARK    1  A    between atoms: C_1  and  O_2
REMARK    2  A    between atoms: O_2  and  C_3
REMARK    3  A    between atoms: C_8  and  C_9
REMARK    4  A    between atoms: C_10  and  C_11
REMARK                            x       y       z     vdW  Elec       q    Type
REMARK                         _______ _______ _______ _____ _____    ______ ____
ROOT
ATOM      1  C   UNL     1       3.339   1.055  -0.227  0.00  0.00    +0.000 A 
ATOM      2  C   UNL     1       2.948   2.343   0.164  0.00  0.00    +0.000 A 
ATOM      3  C   UNL     1       3.250   3.451  -0.633  0.00  0.00    +0.000 A 
ATOM      4  C   UNL     1       3.948   3.286  -1.824  0.00  0.00    +0.000 A 
ATOM      5  C   UNL     1       4.342   2.011  -2.225  0.00  0.00    +0.000 A 
ATOM      6  C   UNL     1       4.036   0.886  -1.442  0.00  0.00    +0.000 A 
ENDROOT
BRANCH   1   8
ATOM      7  C   UNL     1       2.382   0.061   1.726  0.00  0.00    +0.000 C 
ATOM      8  O   UNL     1       3.104  -0.078   0.510  0.00  0.00    +0.000 OA
ENDBRANCH   1   8
BRANCH   6   9
ATOM      9  C   UNL     1       4.503  -0.420  -1.938  0.00  0.00    +0.000 C 
ATOM     10  C   UNL     1       3.676  -1.457  -2.147  0.00  0.00    +0.000 C 
BRANCH  10  11
ATOM     11  C   UNL     1       4.107  -2.762  -2.666  0.00  0.00    +0.000 A 
ATOM     12  C   UNL     1       5.327  -3.347  -2.302  0.00  0.00    +0.000 A 
ATOM     13  C   UNL     1       5.688  -4.605  -2.794  0.00  0.00    +0.000 A 
ATOM     14  C   UNL     1       4.828  -5.294  -3.646  0.00  0.00    +0.000 A 
ATOM     15  C   UNL     1       3.604  -4.731  -4.001  0.00  0.00    +0.000 A 
ATOM     16  C   UNL     1       3.243  -3.474  -3.509  0.00  0.00    +0.000 A 
ENDBRANCH  10  11
ENDBRANCH   6   9
TORSDOF 3
