REMARK  Name = *****
REMARK  5 active torsions:
REMARK  status: ('A' for Active; 'I' for Inactive)
REMARK    1  A    between atoms: C_1  and  C_2
REMARK    2  A    between atoms: C_8  and  C_9
REMARK    3  A    between atoms: C_8  and  C_10
REMARK    4  A    between atoms: C_10  and  C_11
REMARK    5  A    between atoms: C_11  and  C_12
REMARK                            x       y       z     vdW  Elec       q    Type
REMARK                         _______ _______ _______ _____ _____    ______ ____
ROOT
ATOM      1  C   UNL     1       2.853   0.585   1.309  0.00  0.00    +0.000 C 
ATOM      2  C   UNL     1       2.434   0.069  -0.075  0.00  0.00    +0.000 C 
ATOM      3  C   UNL     1       2.853   1.113  -1.133  0.00  0.00    +0.000 C 
ATOM      4  C   UNL     1       2.425   0.711  -2.540  0.00  0.00    +0.000 C 
ATOM      5  C   UNL     1       2.921  -0.682  -2.904  0.00  0.00    +0.000 C 
ATOM      6  C   UNL     1       2.483  -1.694  -1.865  0.00  0.00    +0.000 C 
ATOM      7  C   UNL     1       1.730  -2.741  -2.248  0.00  0.00    +0.000 C 
ATOM      8  C   UNL     1       2.932  -1.392  -0.416  0.00  0.00    +0.000 C 
ATOM      9  C   UNL     1       2.302  -2.369   0.612  0.00  0.00    +0.000 C 
ENDROOT
BRANCH   8  10
ATOM     10  C   UNL     1       4.488  -1.503  -0.296  0.00  0.00    +0.000 C 
BRANCH  10  11
ATOM     11  C   UNL     1       5.087  -2.850  -0.732  0.00  0.00    +0.000 C 
BRANCH  11  12
ATOM     12  C   UNL     1       6.576  -2.861  -0.604  0.00  0.00    +0.000 A 
ATOM     13  C   UNL     1       7.499  -2.518  -1.571  0.00  0.00    +0.000 A 
ATOM     14  O   UNL     1       8.764  -2.647  -1.099  0.00  0.00    +0.000 OA
ATOM     15  C   UNL     1       8.664  -3.078   0.183  0.00  0.00    +0.000 A 
ATOM     16  C   UNL     1       7.344  -3.227   0.537  0.00  0.00    +0.000 A 
ENDBRANCH  11  12
ENDBRANCH  10  11
ENDBRANCH   8  10
TORSDOF 3
