REMARK  Name = *****
REMARK  2 active torsions:
REMARK  status: ('A' for Active; 'I' for Inactive)
REMARK    1  A    between atoms: N_5  and  S_6
REMARK    2  A    between atoms: S_6  and  C_7
REMARK                            x       y       z     vdW  Elec       q    Type
REMARK                         _______ _______ _______ _____ _____    ______ ____
ROOT
ATOM      1  S   UNL     1      -2.828   1.695  -0.328  0.00  0.00    +0.000 S 
ENDROOT
BRANCH   1   6
ATOM      2  C   UNL     1       1.362  -0.754  -0.236  0.00  0.00    +0.000 C 
ATOM      3  C   UNL     1       1.505   0.686   0.238  0.00  0.00    +0.000 C 
ATOM      4  C   UNL     1       0.189   1.351  -0.151  0.00  0.00    +0.000 C 
ATOM      5  C   UNL     1      -0.781   0.196  -0.059  0.00  0.00    +0.000 C 
ATOM      6  N   UNL     1      -2.074   0.222  -0.116  0.00  0.00    +0.000 NA
ATOM      7  C   UNL     1      -0.072  -1.125   0.112  0.00  0.00    +0.000 C 
ENDBRANCH   1   6
BRANCH   1   8
ATOM      8  C   UNL     1      -4.556   1.228  -0.306  0.00  0.00    +0.000 A 
ATOM      9  C   UNL     1      -4.995  -0.089  -0.126  0.00  0.00    +0.000 A 
ATOM     10  C   UNL     1      -6.361  -0.390  -0.117  0.00  0.00    +0.000 A 
ATOM     11  C   UNL     1      -7.301   0.624  -0.288  0.00  0.00    +0.000 A 
ATOM     12  C   UNL     1      -6.877   1.939  -0.468  0.00  0.00    +0.000 A 
ATOM     13  C   UNL     1      -5.512   2.238  -0.477  0.00  0.00    +0.000 A 
ENDBRANCH   1   8
TORSDOF 2
