REMARK  Name = *****
REMARK  3 active torsions:
REMARK  status: ('A' for Active; 'I' for Inactive)
REMARK    1  A    between atoms: C_4  and  S_7
REMARK    2  A    between atoms: S_7  and  C_8
REMARK    3  A    between atoms: C_8  and  C_10
REMARK                            x       y       z     vdW  Elec       q    Type
REMARK                         _______ _______ _______ _____ _____    ______ ____
ROOT
ATOM      1  C   UNL     1      -3.944  -0.885  -0.457  0.00  0.00    +0.000 C 
ATOM      2  O   UNL     1      -3.307  -1.923  -0.320  0.00  0.00    +0.000 OA
ENDROOT
BRANCH   1   3
ATOM      3  C   UNL     1      -5.423  -0.941  -0.673  0.00  0.00    +0.000 A 
ATOM      4  C   UNL     1      -6.270   0.174  -0.575  0.00  0.00    +0.000 A 
ATOM      5  C   UNL     1      -7.647   0.040  -0.793  0.00  0.00    +0.000 A 
ATOM      6  C   UNL     1      -8.185  -1.206  -1.107  0.00  0.00    +0.000 A 
ATOM      7  C   UNL     1      -7.361  -2.323  -1.202  0.00  0.00    +0.000 A 
ATOM      8  C   UNL     1      -5.986  -2.192  -0.982  0.00  0.00    +0.000 A 
ATOM      9 CL   UNL     1      -9.876  -1.363  -1.377  0.00  0.00    +0.000 Cl
ENDBRANCH   1   3
BRANCH   1  10
ATOM     10  S   UNL     1      -3.174   0.699  -0.430  0.00  0.00    +0.000 S 
BRANCH  10  14
ATOM     11  C   UNL     1       1.287  -0.191  -1.004  0.00  0.00    +0.000 A 
ATOM     12  C   UNL     1       0.366  -0.660  -1.939  0.00  0.00    +0.000 A 
ATOM     13  C   UNL     1      -0.997  -0.404  -1.768  0.00  0.00    +0.000 A 
ATOM     14  C   UNL     1      -1.449   0.312  -0.654  0.00  0.00    +0.000 A 
ATOM     15  C   UNL     1      -0.517   0.789   0.273  0.00  0.00    +0.000 A 
ATOM     16  C   UNL     1       0.846   0.535   0.101  0.00  0.00    +0.000 A 
ENDBRANCH  10  14
ENDBRANCH   1  10
TORSDOF 3
