REMARK  Name = *****
REMARK  5 active torsions:
REMARK  status: ('A' for Active; 'I' for Inactive)
REMARK    1  A    between atoms: C_1  and  O_2
REMARK    2  A    between atoms: O_2  and  C_3
REMARK    3  A    between atoms: C_6  and  C_9
REMARK    4  A    between atoms: C_9  and  S_10
REMARK    5  A    between atoms: S_10  and  C_11
REMARK                            x       y       z     vdW  Elec       q    Type
REMARK                         _______ _______ _______ _____ _____    ______ ____
ROOT
ATOM      1  C   UNL     1       4.942   2.982   4.238  0.00  0.00    +0.000 C 
ENDROOT
BRANCH   1   5
ATOM      2  C   UNL     1       3.274   0.623   1.017  0.00  0.00    +0.000 A 
ATOM      3  C   UNL     1       2.435   1.223   1.956  0.00  0.00    +0.000 A 
ATOM      4  C   UNL     1       2.976   1.989   2.996  0.00  0.00    +0.000 A 
ATOM      5  C   UNL     1       4.361   2.168   3.110  0.00  0.00    +0.000 A 
ATOM      6  C   UNL     1       5.198   1.555   2.169  0.00  0.00    +0.000 A 
ATOM      7  C   UNL     1       4.655   0.793   1.131  0.00  0.00    +0.000 A 
BRANCH   2   9
ATOM      8  C   UNL     1       1.482  -0.378  -0.181  0.00  0.00    +0.000 C 
ATOM      9  O   UNL     1       2.878  -0.145  -0.043  0.00  0.00    +0.000 OA
ENDBRANCH   2   9
ENDBRANCH   1   5
BRANCH   1  10
ATOM     10  S   UNL     1       5.174   1.971   5.738  0.00  0.00    +0.000 S 
BRANCH  10  11
ATOM     11  C   UNL     1       6.076   3.126   6.753  0.00  0.00    +0.000 A 
ATOM     12  C   UNL     1       5.549   4.378   7.087  0.00  0.00    +0.000 A 
ATOM     13  C   UNL     1       6.277   5.257   7.896  0.00  0.00    +0.000 A 
ATOM     14  C   UNL     1       7.528   4.879   8.378  0.00  0.00    +0.000 A 
ATOM     15  C   UNL     1       8.056   3.629   8.064  0.00  0.00    +0.000 A 
ATOM     16  C   UNL     1       7.327   2.751   7.256  0.00  0.00    +0.000 A 
ATOM     17 CL   UNL     1       8.423   5.960   9.373  0.00  0.00    +0.000 Cl
ENDBRANCH  10  11
ENDBRANCH   1  10
TORSDOF 4
