REMARK  Name = *****
REMARK  4 active torsions:
REMARK  status: ('A' for Active; 'I' for Inactive)
REMARK    1  A    between atoms: C_1  and  C_2
REMARK    2  A    between atoms: C_2  and  C_4
REMARK    3  A    between atoms: C_5  and  C_6
REMARK    4  A    between atoms: C_7  and  C_8
REMARK                            x       y       z     vdW  Elec       q    Type
REMARK                         _______ _______ _______ _____ _____    ______ ____
ROOT
ATOM      1  C   UNL     1       5.422   1.671   1.783  0.00  0.00    +0.000 C 
ATOM      2  C   UNL     1       6.759   1.687   1.902  0.00  0.00    +0.000 C 
ENDROOT
BRANCH   2   3
ATOM      3  C   UNL     1       7.492   2.556   2.835  0.00  0.00    +0.000 A 
ATOM      4  C   UNL     1       7.029   2.821   4.131  0.00  0.00    +0.000 A 
ATOM      5  C   UNL     1       7.771   3.627   4.999  0.00  0.00    +0.000 A 
ATOM      6  C   UNL     1       8.987   4.166   4.584  0.00  0.00    +0.000 A 
ATOM      7  C   UNL     1       9.465   3.896   3.304  0.00  0.00    +0.000 A 
ATOM      8  C   UNL     1       8.724   3.090   2.436  0.00  0.00    +0.000 A 
ENDBRANCH   2   3
BRANCH   1  10
ATOM      9  C   UNL     1       3.392   0.794   0.731  0.00  0.00    +0.000 C 
ATOM     10  C   UNL     1       4.729   0.808   0.850  0.00  0.00    +0.000 C 
BRANCH   9  12
ATOM     11  C   UNL     1       3.334  -0.991  -1.106  0.00  0.00    +0.000 C 
ATOM     12  C   UNL     1       2.620  -0.042  -0.181  0.00  0.00    +0.000 C 
ATOM     13  C   UNL     1       1.279   0.042  -0.189  0.00  0.00    +0.000 C 
ENDBRANCH   9  12
ENDBRANCH   1  10
TORSDOF 3
