REMARK  Name = *****
REMARK  2 active torsions:
REMARK  status: ('A' for Active; 'I' for Inactive)
REMARK    1  A    between atoms: C_1  and  C_2
REMARK    2  A    between atoms: C_5  and  C_8
REMARK                            x       y       z     vdW  Elec       q    Type
REMARK                         _______ _______ _______ _____ _____    ______ ____
ROOT
ATOM      1  C   UNL     1      -3.325   0.087  -0.170  0.00  0.00    +0.000 A 
ATOM      2  N   UNL     1      -4.113   1.142  -0.295  0.00  0.00    +0.000 NA
ATOM      3  C   UNL     1      -5.375   0.610  -0.311  0.00  0.00    +0.000 A 
ATOM      4  C   UNL     1      -5.307  -0.768  -0.190  0.00  0.00    +0.000 A 
ATOM      5  O   UNL     1      -3.992  -1.113  -0.099  0.00  0.00    +0.000 OA
ATOM      6  C   UNL     1      -6.404  -1.620  -0.170  0.00  0.00    +0.000 A 
ATOM      7  C   UNL     1      -7.648  -0.992  -0.284  0.00  0.00    +0.000 A 
ATOM      8  C   UNL     1      -7.768   0.398  -0.410  0.00  0.00    +0.000 A 
ATOM      9  C   UNL     1      -6.631   1.221  -0.425  0.00  0.00    +0.000 A 
ATOM     10 CL   UNL     1      -9.075  -1.959  -0.270  0.00  0.00    +0.000 Cl
ENDROOT
BRANCH   1  15
ATOM     11  C   UNL     1       2.456  -0.044   0.084  0.00  0.00    +0.000 C 
ATOM     12  C   UNL     1       0.957  -0.008   0.033  0.00  0.00    +0.000 A 
ATOM     13  C   UNL     1       0.270   1.205  -0.075  0.00  0.00    +0.000 A 
ATOM     14  C   UNL     1      -1.127   1.224  -0.138  0.00  0.00    +0.000 A 
ATOM     15  C   UNL     1      -1.867   0.033  -0.099  0.00  0.00    +0.000 A 
ATOM     16  C   UNL     1      -1.171  -1.180   0.004  0.00  0.00    +0.000 A 
ATOM     17  C   UNL     1       0.226  -1.201   0.067  0.00  0.00    +0.000 A 
ENDBRANCH   1  15
TORSDOF 1
