REMARK  Name = *****
REMARK  5 active torsions:
REMARK  status: ('A' for Active; 'I' for Inactive)
REMARK    1  A    between atoms: C_1  and  C_2
REMARK    2  A    between atoms: C_5  and  C_8
REMARK    3  A    between atoms: C_8  and  N_9
REMARK    4  A    between atoms: C_13  and  C_17
REMARK    5  A    between atoms: C_14  and  C_16
REMARK                            x       y       z     vdW  Elec       q    Type
REMARK                         _______ _______ _______ _____ _____    ______ ____
ROOT
ATOM      1  N   UNL     1      -5.358   1.129   0.213  0.00  0.00    +0.000 N 
ATOM      2  C   UNL     1      -6.605   1.686   0.338  0.00  0.00    +0.000 A 
ATOM      3  C   UNL     1      -6.689   1.957   1.696  0.00  0.00    +0.000 A 
ATOM      4  C   UNL     1      -7.864   2.515   2.216  0.00  0.00    +0.000 A 
ATOM      5  C   UNL     1      -8.941   2.793   1.350  0.00  0.00    +0.000 A 
ATOM      6  C   UNL     1      -8.821   2.533  -0.034  0.00  0.00    +0.000 A 
ATOM      7  C   UNL     1      -7.644   1.962  -0.557  0.00  0.00    +0.000 A 
ATOM      8  C   UNL     1      -9.957   2.828  -0.981  0.00  0.00    +0.000 C 
ATOM      9  C   UNL     1     -10.197   3.388   1.929  0.00  0.00    +0.000 C 
ATOM     10  N   UNL     1      -5.520   1.600   2.312  0.00  0.00    +0.000 NA
ATOM     11  N   UNL     1      -4.701   1.107   1.391  0.00  0.00    +0.000 NA
ENDROOT
BRANCH   1  12
ATOM     12  C   UNL     1      -4.706   0.655  -0.996  0.00  0.00    +0.000 C 
BRANCH  12  17
ATOM     13  C   UNL     1      -4.906  -5.124  -1.791  0.00  0.00    +0.000 C 
ATOM     14  C   UNL     1      -4.858  -3.643  -1.556  0.00  0.00    +0.000 A 
ATOM     15  C   UNL     1      -6.013  -2.942  -1.200  0.00  0.00    +0.000 A 
ATOM     16  C   UNL     1      -5.973  -1.558  -1.007  0.00  0.00    +0.000 A 
ATOM     17  C   UNL     1      -4.774  -0.846  -1.161  0.00  0.00    +0.000 A 
ATOM     18  C   UNL     1      -3.625  -1.552  -1.546  0.00  0.00    +0.000 A 
ATOM     19  C   UNL     1      -3.667  -2.935  -1.743  0.00  0.00    +0.000 A 
ENDBRANCH  12  17
ENDBRANCH   1  12
TORSDOF 2
