REMARK  Name = *****
REMARK  4 active torsions:
REMARK  status: ('A' for Active; 'I' for Inactive)
REMARK    1  A    between atoms: C_6  and  O_7
REMARK    2  A    between atoms: O_7  and  C_8
REMARK    3  A    between atoms: C_8  and  C_10
REMARK    4  A    between atoms: C_11  and  C_17
REMARK                            x       y       z     vdW  Elec       q    Type
REMARK                         _______ _______ _______ _____ _____    ______ ____
ROOT
ATOM      1  C   UNL     1       6.068   1.472   0.119  0.00  0.00    +0.000 A 
ATOM      2  C   UNL     1       6.612   0.458  -0.692  0.00  0.00    +0.000 A 
ATOM      3  C   UNL     1       7.989   0.185  -0.589  0.00  0.00    +0.000 A 
ATOM      4  C   UNL     1       8.784   0.898   0.303  0.00  0.00    +0.000 A 
ATOM      5  C   UNL     1       8.243   1.893   1.107  0.00  0.00    +0.000 A 
ATOM      6  C   UNL     1       6.883   2.186   1.015  0.00  0.00    +0.000 A 
ATOM      7  F   UNL     1      10.090   0.620   0.388  0.00  0.00    +0.000 F 
ENDROOT
BRANCH   2   8
ATOM      8  C   UNL     1       5.761  -0.339  -1.649  0.00  0.00    +0.000 C 
ATOM      9  F   UNL     1       4.574  -0.731  -1.109  0.00  0.00    +0.000 F 
ATOM     10  F   UNL     1       5.482   0.326  -2.798  0.00  0.00    +0.000 F 
ATOM     11  F   UNL     1       6.370  -1.498  -2.039  0.00  0.00    +0.000 F 
ENDBRANCH   2   8
BRANCH   1  12
ATOM     12  C   UNL     1       4.637   1.836   0.008  0.00  0.00    +0.000 C 
ATOM     13  O   UNL     1       4.076   1.997  -1.060  0.00  0.00    +0.000 OA
BRANCH  12  14
ATOM     14  O   UNL     1       4.111   1.904   1.283  0.00  0.00    +0.000 OA
BRANCH  14  20
ATOM     15  C   UNL     1       1.802   1.312   0.761  0.00  0.00    +0.000 A 
ATOM     16  C   UNL     1       0.440   1.579   0.914  0.00  0.00    +0.000 A 
ATOM     17  C   UNL     1       0.030   2.674   1.676  0.00  0.00    +0.000 A 
ATOM     18  C   UNL     1       0.968   3.504   2.292  0.00  0.00    +0.000 A 
ATOM     19  C   UNL     1       2.331   3.242   2.139  0.00  0.00    +0.000 A 
ATOM     20  C   UNL     1       2.736   2.160   1.359  0.00  0.00    +0.000 A 
ATOM     21 CL   UNL     1      -1.650   2.998   1.868  0.00  0.00    +0.000 Cl
ENDBRANCH  14  20
ENDBRANCH  12  14
ENDBRANCH   1  12
TORSDOF 4
