REMARK  Name = *****
REMARK  3 active torsions:
REMARK  status: ('A' for Active; 'I' for Inactive)
REMARK    1  A    between atoms: C_4  and  C_7
REMARK    2  A    between atoms: C_7  and  O_9
REMARK    3  A    between atoms: O_9  and  C_10
REMARK                            x       y       z     vdW  Elec       q    Type
REMARK                         _______ _______ _______ _____ _____    ______ ____
ROOT
ATOM      1  C   UNL     1      -2.840   0.449   0.320  0.00  0.00    +0.000 C 
ATOM      2  O   UNL     1      -3.233   1.509   0.782  0.00  0.00    +0.000 OA
ENDROOT
BRANCH   1   6
ATOM      3  C   UNL     1       1.357  -0.263  -0.251  0.00  0.00    +0.000 A 
ATOM      4  C   UNL     1       0.448  -1.271  -0.566  0.00  0.00    +0.000 A 
ATOM      5  C   UNL     1      -0.922  -1.062  -0.389  0.00  0.00    +0.000 A 
ATOM      6  C   UNL     1      -1.391   0.164   0.107  0.00  0.00    +0.000 A 
ATOM      7  C   UNL     1      -0.467   1.172   0.422  0.00  0.00    +0.000 A 
ATOM      8  C   UNL     1       0.901   0.958   0.243  0.00  0.00    +0.000 A 
ENDBRANCH   1   6
BRANCH   1   9
ATOM      9  O   UNL     1      -3.569  -0.608  -0.076  0.00  0.00    +0.000 OA
BRANCH   9  10
ATOM     10  C   UNL     1      -4.892  -0.645   0.006  0.00  0.00    +0.000 A 
ATOM     11  C   UNL     1      -5.822   0.243   0.520  0.00  0.00    +0.000 A 
ATOM     12  C   UNL     1      -7.168  -0.214   0.398  0.00  0.00    +0.000 A 
ATOM     13  C   UNL     1      -7.236  -1.445  -0.207  0.00  0.00    +0.000 A 
ATOM     14  S   UNL     1      -5.690  -2.038  -0.617  0.00  0.00    +0.000 S 
ENDBRANCH   9  10
ENDBRANCH   1   9
TORSDOF 3
