REMARK  Name = *****
REMARK  4 active torsions:
REMARK  status: ('A' for Active; 'I' for Inactive)
REMARK    1  A    between atoms: C_7  and  C_8
REMARK    2  A    between atoms: C_8  and  O_10
REMARK    3  A    between atoms: O_10  and  C_11
REMARK    4  A    between atoms: C_11  and  C_12
REMARK                            x       y       z     vdW  Elec       q    Type
REMARK                         _______ _______ _______ _____ _____    ______ ____
ROOT
ATOM      1  C   UNL     1      -2.050  -0.518  -1.645  0.00  0.00    +0.000 C 
ATOM      2  C   UNL     1      -2.474  -0.460  -0.166  0.00  0.00    +0.000 C 
ATOM      3  C   UNL     1      -3.434  -1.633  -0.172  0.00  0.00    +0.000 C 
ATOM      4  C   UNL     1      -2.933  -2.555  -1.006  0.00  0.00    +0.000 C 
ATOM      5  C   UNL     1      -1.644  -1.993  -1.560  0.00  0.00    +0.000 C 
ATOM      6  C   UNL     1      -0.598  -1.937  -0.427  0.00  0.00    +0.000 C 
ATOM      7  C   UNL     1      -1.132  -0.833   0.515  0.00  0.00    +0.000 C 
ATOM      8  F   UNL     1      -0.325   0.277   0.438  0.00  0.00    +0.000 F 
ATOM      9  F   UNL     1       0.614  -1.603  -0.937  0.00  0.00    +0.000 F 
ATOM     10  F   UNL     1      -0.455  -3.147   0.156  0.00  0.00    +0.000 F 
ENDROOT
BRANCH   7  11
ATOM     11  C   UNL     1      -1.256  -1.311   1.943  0.00  0.00    +0.000 C 
ATOM     12  O   UNL     1      -2.292  -1.327   2.597  0.00  0.00    +0.000 OA
BRANCH  11  13
ATOM     13  O   UNL     1      -0.033  -1.644   2.441  0.00  0.00    +0.000 OA
BRANCH  13  14
ATOM     14  C   UNL     1      -0.053  -2.084   3.803  0.00  0.00    +0.000 C 
BRANCH  14  15
ATOM     15  C   UNL     1       1.330  -2.555   4.172  0.00  0.00    +0.000 A 
ATOM     16  C   UNL     1       2.414  -1.664   4.144  0.00  0.00    +0.000 A 
ATOM     17  C   UNL     1       3.695  -2.096   4.490  0.00  0.00    +0.000 A 
ATOM     18  C   UNL     1       3.907  -3.420   4.867  0.00  0.00    +0.000 A 
ATOM     19  C   UNL     1       2.839  -4.314   4.898  0.00  0.00    +0.000 A 
ATOM     20  C   UNL     1       1.556  -3.885   4.553  0.00  0.00    +0.000 A 
ENDBRANCH  14  15
ENDBRANCH  13  14
ENDBRANCH  11  13
ENDBRANCH   7  11
TORSDOF 4
