REMARK  Name = *****
REMARK  5 active torsions:
REMARK  status: ('A' for Active; 'I' for Inactive)
REMARK    1  A    between atoms: C_4  and  C_7
REMARK    2  A    between atoms: C_7  and  C_8
REMARK    3  A    between atoms: C_8  and  C_9
REMARK    4  A    between atoms: C_12  and  C_15
REMARK    5  A    between atoms: C_15  and  C_17
REMARK                            x       y       z     vdW  Elec       q    Type
REMARK                         _______ _______ _______ _____ _____    ______ ____
ROOT
ATOM      1  C   UNL     1      -5.048  -0.335  -0.637  0.00  0.00    +0.000 A 
ATOM      2  C   UNL     1      -5.610   0.569  -1.547  0.00  0.00    +0.000 A 
ATOM      3  C   UNL     1      -6.982   0.845  -1.524  0.00  0.00    +0.000 A 
ATOM      4  C   UNL     1      -7.812   0.222  -0.586  0.00  0.00    +0.000 A 
ATOM      5  C   UNL     1      -7.248  -0.682   0.326  0.00  0.00    +0.000 A 
ATOM      6  C   UNL     1      -5.878  -0.955   0.303  0.00  0.00    +0.000 A 
ENDROOT
BRANCH   4   7
ATOM      7  C   UNL     1      -9.285   0.478  -0.503  0.00  0.00    +0.000 C 
ATOM      8  O   UNL     1      -9.960  -0.153   0.312  0.00  0.00    +0.000 OA
BRANCH   7   9
ATOM      9  C   UNL     1      -9.919   1.523  -1.390  0.00  0.00    +0.000 C 
ATOM     10 CL   UNL     1     -10.189   0.853  -3.007  0.00  0.00    +0.000 Cl
ENDBRANCH   7   9
ENDBRANCH   4   7
BRANCH   1  11
ATOM     11  C   UNL     1      -3.565  -0.616  -0.652  0.00  0.00    +0.000 C 
BRANCH  11  12
ATOM     12  C   UNL     1      -2.789   0.405   0.184  0.00  0.00    +0.000 C 
BRANCH  12  16
ATOM     13  C   UNL     1       1.434  -0.470   0.170  0.00  0.00    +0.000 A 
ATOM     14  C   UNL     1       0.879   0.307  -0.846  0.00  0.00    +0.000 A 
ATOM     15  C   UNL     1      -0.486   0.596  -0.839  0.00  0.00    +0.000 A 
ATOM     16  C   UNL     1      -1.309   0.112   0.187  0.00  0.00    +0.000 A 
ATOM     17  C   UNL     1      -0.743  -0.673   1.200  0.00  0.00    +0.000 A 
ATOM     18  C   UNL     1       0.623  -0.960   1.192  0.00  0.00    +0.000 A 
ENDBRANCH  12  16
ENDBRANCH  11  12
ENDBRANCH   1  11
TORSDOF 5
