REMARK  Name = *****
REMARK  5 active torsions:
REMARK  status: ('A' for Active; 'I' for Inactive)
REMARK    1  A    between atoms: C_1  and  C_2
REMARK    2  A    between atoms: C_4  and  C_16
REMARK    3  A    between atoms: C_5  and  S_7
REMARK    4  A    between atoms: S_7  and  C_9
REMARK    5  A    between atoms: C_9  and  C_10
REMARK                            x       y       z     vdW  Elec       q    Type
REMARK                         _______ _______ _______ _____ _____    ______ ____
ROOT
ATOM      1  S   UNL     1       1.977  -2.518  -0.637  0.00  0.00    +0.000 S 
ATOM      2  O   UNL     1       3.270  -2.269   0.084  0.00  0.00    +0.000 OA
ENDROOT
BRANCH   1   7
ATOM      3  C   UNL     1      -2.301   1.072  -0.177  0.00  0.00    +0.000 C 
ATOM      4  C   UNL     1      -0.944   0.458  -0.186  0.00  0.00    +0.000 A 
ATOM      5  C   UNL     1       0.267   1.046   0.105  0.00  0.00    +0.000 A 
ATOM      6  C   UNL     1       1.381   0.143  -0.012  0.00  0.00    +0.000 A 
ATOM      7  C   UNL     1       0.940  -1.126  -0.360  0.00  0.00    +0.000 A 
ATOM      8  S   UNL     1      -0.748  -1.180  -0.614  0.00  0.00    +0.000 S 
ATOM      9  C   UNL     1       2.793   0.573   0.229  0.00  0.00    +0.000 C 
ENDBRANCH   1   7
BRANCH   1  10
ATOM     10  C   UNL     1       1.038  -3.795   0.259  0.00  0.00    +0.000 C 
BRANCH  10  11
ATOM     11  C   UNL     1       1.719  -5.140   0.205  0.00  0.00    +0.000 A 
ATOM     12  C   UNL     1       2.768  -5.441   1.086  0.00  0.00    +0.000 A 
ATOM     13  C   UNL     1       3.405  -6.682   1.032  0.00  0.00    +0.000 A 
ATOM     14  C   UNL     1       3.003  -7.633   0.097  0.00  0.00    +0.000 A 
ATOM     15  C   UNL     1       1.967  -7.343  -0.789  0.00  0.00    +0.000 A 
ATOM     16  C   UNL     1       1.329  -6.102  -0.738  0.00  0.00    +0.000 A 
ENDBRANCH  10  11
ENDBRANCH   1  10
TORSDOF 3
