REMARK  Name = *****
REMARK  4 active torsions:
REMARK  status: ('A' for Active; 'I' for Inactive)
REMARK    1  A    between atoms: C_1  and  C_2
REMARK    2  A    between atoms: C_2  and  C_14
REMARK    3  A    between atoms: N_3  and  C_4
REMARK    4  A    between atoms: C_9  and  C_10
REMARK                            x       y       z     vdW  Elec       q    Type
REMARK                         _______ _______ _______ _____ _____    ______ ____
ROOT
ATOM      1  C   UNL     1       2.507   1.096  -2.032  0.00  0.00    +0.000 A 
ATOM      2  C   UNL     1       1.655   0.441  -2.932  0.00  0.00    +0.000 A 
ATOM      3  C   UNL     1       1.001   1.146  -3.942  0.00  0.00    +0.000 A 
ATOM      4  C   UNL     1       1.206   2.516  -4.072  0.00  0.00    +0.000 A 
ATOM      5  C   UNL     1       2.071   3.175  -3.199  0.00  0.00    +0.000 A 
ATOM      6  C   UNL     1       2.735   2.472  -2.175  0.00  0.00    +0.000 A 
ENDROOT
BRANCH   6   7
ATOM      7  C   UNL     1       3.679   3.188  -1.247  0.00  0.00    +0.000 C 
ATOM      8  F   UNL     1       3.323   3.078   0.066  0.00  0.00    +0.000 F 
ATOM      9  F   UNL     1       4.968   2.757  -1.335  0.00  0.00    +0.000 F 
ATOM     10  F   UNL     1       3.735   4.534  -1.484  0.00  0.00    +0.000 F 
ENDBRANCH   6   7
BRANCH   1  13
ATOM     11  C   UNL     1       1.167   0.450   0.440  0.00  0.00    +0.000 C 
ATOM     12  C   UNL     1       2.582   0.035   0.071  0.00  0.00    +0.000 C 
ATOM     13  N   UNL     1       3.166   0.346  -1.053  0.00  0.00    +0.000 NA
BRANCH  12  14
ATOM     14  C   UNL     1       3.351  -0.789   1.002  0.00  0.00    +0.000 A 
ATOM     15  C   UNL     1       4.694  -1.119   0.915  0.00  0.00    +0.000 A 
ATOM     16  C   UNL     1       5.132  -1.952   1.984  0.00  0.00    +0.000 A 
ATOM     17  C   UNL     1       4.109  -2.243   2.857  0.00  0.00    +0.000 A 
ATOM     18  S   UNL     1       2.638  -1.516   2.382  0.00  0.00    +0.000 S 
ENDBRANCH  12  14
ENDBRANCH   1  13
TORSDOF 3
