REMARK  Name = *****
REMARK  3 active torsions:
REMARK  status: ('A' for Active; 'I' for Inactive)
REMARK    1  A    between atoms: C_1  and  C_2
REMARK    2  A    between atoms: C_4  and  C_9
REMARK    3  A    between atoms: C_10  and  C_11
REMARK                            x       y       z     vdW  Elec       q    Type
REMARK                         _______ _______ _______ _____ _____    ______ ____
ROOT
ATOM      1  C   UNL     1       1.035   0.048   0.182  0.00  0.00    +0.000 C 
ATOM      2  C   UNL     1       2.530   0.064   0.061  0.00  0.00    +0.000 A 
ATOM      3  C   UNL     1       3.213   1.271  -0.151  0.00  0.00    +0.000 A 
ATOM      4  C   UNL     1       4.607   1.292  -0.298  0.00  0.00    +0.000 A 
ATOM      5  C   UNL     1       5.321   0.089  -0.244  0.00  0.00    +0.000 A 
ATOM      6  C   UNL     1       4.645  -1.119  -0.047  0.00  0.00    +0.000 A 
ATOM      7  C   UNL     1       3.256  -1.131   0.099  0.00  0.00    +0.000 A 
ATOM      8 BR   UNL     1       7.211   0.021  -0.436  0.00  0.00    +0.000 Br
ENDROOT
BRANCH   4   9
ATOM      9  C   UNL     1       5.249   2.557  -0.504  0.00  0.00    +0.000 C 
ATOM     10  C   UNL     1       5.790   3.616  -0.678  0.00  0.00    +0.000 C 
BRANCH  10  11
ATOM     11  C   UNL     1       6.448   4.868  -0.887  0.00  0.00    +0.000 A 
ATOM     12  C   UNL     1       5.848   6.055  -0.460  0.00  0.00    +0.000 A 
ATOM     13  C   UNL     1       6.492   7.277  -0.665  0.00  0.00    +0.000 A 
ATOM     14  C   UNL     1       7.736   7.312  -1.296  0.00  0.00    +0.000 A 
ATOM     15  C   UNL     1       8.337   6.128  -1.722  0.00  0.00    +0.000 A 
ATOM     16  C   UNL     1       7.693   4.905  -1.518  0.00  0.00    +0.000 A 
ENDBRANCH  10  11
ENDBRANCH   4   9
TORSDOF 2
