REMARK  Name = *****
REMARK  4 active torsions:
REMARK  status: ('A' for Active; 'I' for Inactive)
REMARK    1  A    between atoms: C_1  and  C_2
REMARK    2  A    between atoms: C_5  and  O_8
REMARK    3  A    between atoms: O_8  and  C_9
REMARK    4  A    between atoms: C_9  and  C_10
REMARK                            x       y       z     vdW  Elec       q    Type
REMARK                         _______ _______ _______ _____ _____    ______ ____
ROOT
ATOM      1  O   UNL     1      -3.116   0.112   0.073  0.00  0.00    +0.000 OA
ENDROOT
BRANCH   1   6
ATOM      2  C   UNL     1       2.529  -0.428   0.305  0.00  0.00    +0.000 C 
ATOM      3  C   UNL     1       1.043  -0.246   0.225  0.00  0.00    +0.000 A 
ATOM      4  C   UNL     1       0.457   0.980   0.559  0.00  0.00    +0.000 A 
ATOM      5  C   UNL     1      -0.932   1.143   0.516  0.00  0.00    +0.000 A 
ATOM      6  C   UNL     1      -1.750   0.079   0.138  0.00  0.00    +0.000 A 
ATOM      7  C   UNL     1      -1.172  -1.156  -0.158  0.00  0.00    +0.000 A 
ATOM      8  C   UNL     1       0.215  -1.320  -0.118  0.00  0.00    +0.000 A 
ENDBRANCH   1   6
BRANCH   1   9
ATOM      9  C   UNL     1      -3.725   1.380  -0.192  0.00  0.00    +0.000 C 
BRANCH   9  10
ATOM     10  C   UNL     1      -4.139   2.121   1.060  0.00  0.00    +0.000 A 
ATOM     11  C   UNL     1      -4.214   3.522   1.046  0.00  0.00    +0.000 A 
ATOM     12  C   UNL     1      -4.625   4.223   2.182  0.00  0.00    +0.000 A 
ATOM     13  C   UNL     1      -4.976   3.531   3.339  0.00  0.00    +0.000 A 
ATOM     14  C   UNL     1      -4.921   2.139   3.361  0.00  0.00    +0.000 A 
ATOM     15  C   UNL     1      -4.510   1.437   2.227  0.00  0.00    +0.000 A 
ENDBRANCH   9  10
ENDBRANCH   1   9
TORSDOF 3
