REMARK  Name = *****
REMARK  3 active torsions:
REMARK  status: ('A' for Active; 'I' for Inactive)
REMARK    1  A    between atoms: C_4  and  C_7
REMARK    2  A    between atoms: C_7  and  C_9
REMARK    3  A    between atoms: C_10  and  C_11
REMARK                            x       y       z     vdW  Elec       q    Type
REMARK                         _______ _______ _______ _____ _____    ______ ____
ROOT
ATOM      1  C   UNL     1       2.273  -2.223  -1.188  0.00  0.00    +0.000 C 
ATOM      2  O   UNL     1       1.723  -2.847  -2.095  0.00  0.00    +0.000 OA
ENDROOT
BRANCH   1   6
ATOM      3  C   UNL     1      -0.618   0.846  -0.127  0.00  0.00    +0.000 C 
ATOM      4  C   UNL     1      -0.133  -0.104   0.964  0.00  0.00    +0.000 C 
ATOM      5  C   UNL     1       0.547  -1.339   0.377  0.00  0.00    +0.000 C 
ATOM      6  C   UNL     1       1.682  -0.955  -0.580  0.00  0.00    +0.000 C 
ATOM      7  C   UNL     1       1.178  -0.012  -1.678  0.00  0.00    +0.000 C 
ATOM      8  C   UNL     1       0.507   1.225  -1.085  0.00  0.00    +0.000 C 
ENDBRANCH   1   6
BRANCH   1   9
ATOM      9  C   UNL     1       3.483  -2.814  -0.559  0.00  0.00    +0.000 C 
ATOM     10  C   UNL     1       4.680  -2.215  -0.469  0.00  0.00    +0.000 C 
BRANCH  10  11
ATOM     11  C   UNL     1       5.034  -0.900  -1.011  0.00  0.00    +0.000 A 
ATOM     12  C   UNL     1       5.543   0.084  -0.157  0.00  0.00    +0.000 A 
ATOM     13  C   UNL     1       5.896   1.338  -0.659  0.00  0.00    +0.000 A 
ATOM     14  C   UNL     1       5.753   1.612  -2.019  0.00  0.00    +0.000 A 
ATOM     15  C   UNL     1       5.263   0.631  -2.878  0.00  0.00    +0.000 A 
ATOM     16  C   UNL     1       4.908  -0.623  -2.378  0.00  0.00    +0.000 A 
ENDBRANCH  10  11
ENDBRANCH   1   9
TORSDOF 3
