REMARK  Name = *****
REMARK  4 active torsions:
REMARK  status: ('A' for Active; 'I' for Inactive)
REMARK    1  A    between atoms: C_1  and  C_2
REMARK    2  A    between atoms: C_4  and  C_9
REMARK    3  A    between atoms: C_9  and  O_11
REMARK    4  A    between atoms: O_11  and  C_12
REMARK                            x       y       z     vdW  Elec       q    Type
REMARK                         _______ _______ _______ _____ _____    ______ ____
ROOT
ATOM      1  C   UNL     1       5.285  -2.191   0.759  0.00  0.00    +0.000 C 
ATOM      2  O   UNL     1       6.313  -2.493   0.176  0.00  0.00    +0.000 OA
ENDROOT
BRANCH   1   6
ATOM      3  C   UNL     1       0.879  -0.131  -0.398  0.00  0.00    +0.000 C 
ATOM      4  C   UNL     1       2.346   0.007  -0.116  0.00  0.00    +0.000 A 
ATOM      5  C   UNL     1       3.113  -1.121   0.202  0.00  0.00    +0.000 A 
ATOM      6  C   UNL     1       4.482  -1.011   0.436  0.00  0.00    +0.000 A 
ATOM      7  C   UNL     1       5.098   0.229   0.329  0.00  0.00    +0.000 A 
ATOM      8  C   UNL     1       4.356   1.361  -0.001  0.00  0.00    +0.000 A 
ATOM      9  C   UNL     1       2.982   1.251  -0.228  0.00  0.00    +0.000 A 
ATOM     10  F   UNL     1       6.410   0.369   0.565  0.00  0.00    +0.000 F 
ATOM     11  F   UNL     1       2.514  -2.320   0.263  0.00  0.00    +0.000 F 
ENDBRANCH   1   6
BRANCH   1  12
ATOM     12  O   UNL     1       4.695  -2.823   1.837  0.00  0.00    +0.000 OA
BRANCH  12  13
ATOM     13  C   UNL     1       5.389  -3.967   2.235  0.00  0.00    +0.000 A 
ATOM     14  C   UNL     1       6.496  -3.851   3.073  0.00  0.00    +0.000 A 
ATOM     15  C   UNL     1       7.138  -5.011   3.491  0.00  0.00    +0.000 A 
ATOM     16  C   UNL     1       6.686  -6.266   3.100  0.00  0.00    +0.000 A 
ATOM     17  C   UNL     1       5.567  -6.353   2.279  0.00  0.00    +0.000 A 
ATOM     18  C   UNL     1       4.903  -5.212   1.844  0.00  0.00    +0.000 A 
ATOM     19  F   UNL     1       5.117  -7.558   1.908  0.00  0.00    +0.000 F 
ATOM     20  F   UNL     1       8.207  -4.919   4.293  0.00  0.00    +0.000 F 
ENDBRANCH  12  13
ENDBRANCH   1  12
TORSDOF 3
