REMARK  Name = *****
REMARK  5 active torsions:
REMARK  status: ('A' for Active; 'I' for Inactive)
REMARK    1  A    between atoms: C_1  and  C_2
REMARK    2  A    between atoms: C_7  and  C_8
REMARK    3  A    between atoms: C_8  and  O_9
REMARK    4  A    between atoms: O_9  and  C_10
REMARK    5  A    between atoms: C_10  and  C_12
REMARK                            x       y       z     vdW  Elec       q    Type
REMARK                         _______ _______ _______ _____ _____    ______ ____
ROOT
ATOM      1  O   UNL     1       2.313  -2.501  -0.313  0.00  0.00    +0.000 OA
ENDROOT
BRANCH   1   2
ATOM      2  C   UNL     1       3.295  -2.520   0.619  0.00  0.00    +0.000 C 
ATOM      3  O   UNL     1       3.149  -2.669   1.822  0.00  0.00    +0.000 OA
BRANCH   2   4
ATOM      4  C   UNL     1       4.625  -2.343  -0.025  0.00  0.00    +0.000 A 
ATOM      5  C   UNL     1       5.771  -2.515   0.764  0.00  0.00    +0.000 A 
ATOM      6  C   UNL     1       7.041  -2.353   0.207  0.00  0.00    +0.000 A 
ATOM      7  C   UNL     1       7.173  -2.015  -1.139  0.00  0.00    +0.000 A 
ATOM      8  C   UNL     1       6.039  -1.838  -1.930  0.00  0.00    +0.000 A 
ATOM      9  C   UNL     1       4.766  -2.001  -1.377  0.00  0.00    +0.000 A 
ENDBRANCH   2   4
ENDBRANCH   1   2
BRANCH   1  10
ATOM     10  C   UNL     1       0.974  -2.598   0.187  0.00  0.00    +0.000 C 
BRANCH  10  17
ATOM     11  C   UNL     1      -0.429  -1.550  -2.267  0.00  0.00    +0.000 C 
ATOM     12  C   UNL     1      -0.309  -0.732  -1.011  0.00  0.00    +0.000 A 
ATOM     13  C   UNL     1      -0.870   0.556  -0.980  0.00  0.00    +0.000 A 
ATOM     14  C   UNL     1      -0.776   1.351   0.162  0.00  0.00    +0.000 A 
ATOM     15  C   UNL     1      -0.122   0.871   1.290  0.00  0.00    +0.000 A 
ATOM     16  C   UNL     1       0.432  -0.409   1.280  0.00  0.00    +0.000 A 
ATOM     17  C   UNL     1       0.335  -1.229   0.142  0.00  0.00    +0.000 A 
ENDBRANCH  10  17
ENDBRANCH   1  10
TORSDOF 4
