REMARK  Name = *****
REMARK  7 active torsions:
REMARK  status: ('A' for Active; 'I' for Inactive)
REMARK    1  A    between atoms: C_1  and  C_2
REMARK    2  A    between atoms: C_3  and  O_9
REMARK    3  A    between atoms: C_4  and  C_8
REMARK    4  A    between atoms: O_9  and  C_10
REMARK    5  A    between atoms: C_10  and  C_11
REMARK    6  A    between atoms: C_11  and  C_12
REMARK    7  A    between atoms: C_12  and  C_13
REMARK                            x       y       z     vdW  Elec       q    Type
REMARK                         _______ _______ _______ _____ _____    ______ ____
ROOT
ATOM      1  O   UNL     1       2.832  -2.632  -0.567  0.00  0.00    +0.000 OA
ENDROOT
BRANCH   1   4
ATOM      2  C   UNL     1       0.191  -1.428  -1.520  0.00  0.00    +0.000 C 
ATOM      3  C   UNL     1       1.367  -0.695  -0.887  0.00  0.00    +0.000 C 
ATOM      4  C   UNL     1       2.688  -1.375  -1.109  0.00  0.00    +0.000 C 
ATOM      5  C   UNL     1       3.668  -0.684  -1.712  0.00  0.00    +0.000 C 
ATOM      6  C   UNL     1       3.211   0.658  -2.120  0.00  0.00    +0.000 C 
ATOM      7  O   UNL     1       3.899   1.471  -2.715  0.00  0.00    +0.000 OA
ATOM      8  S   UNL     1       1.552   0.947  -1.652  0.00  0.00    +0.000 S 
ATOM      9  C   UNL     1       5.084  -1.066  -1.949  0.00  0.00    +0.000 C 
ENDBRANCH   1   4
BRANCH   1  10
ATOM     10  C   UNL     1       2.911  -3.658  -1.566  0.00  0.00    +0.000 C 
BRANCH  10  11
ATOM     11  C   UNL     1       2.428  -4.962  -0.940  0.00  0.00    +0.000 C 
BRANCH  11  12
ATOM     12  C   UNL     1       2.526  -6.122  -1.927  0.00  0.00    +0.000 C 
BRANCH  12  13
ATOM     13  C   UNL     1       1.959  -7.395  -1.351  0.00  0.00    +0.000 A 
ATOM     14  C   UNL     1       0.651  -7.793  -1.660  0.00  0.00    +0.000 A 
ATOM     15  C   UNL     1       0.121  -8.963  -1.114  0.00  0.00    +0.000 A 
ATOM     16  C   UNL     1       0.889  -9.743  -0.253  0.00  0.00    +0.000 A 
ATOM     17  C   UNL     1       2.189  -9.353   0.065  0.00  0.00    +0.000 A 
ATOM     18  C   UNL     1       2.722  -8.184  -0.480  0.00  0.00    +0.000 A 
ENDBRANCH  12  13
ENDBRANCH  11  12
ENDBRANCH  10  11
ENDBRANCH   1  10
TORSDOF 5
