REMARK  Name = *****
REMARK  5 active torsions:
REMARK  status: ('A' for Active; 'I' for Inactive)
REMARK    1  A    between atoms: C_1  and  N_2
REMARK    2  A    between atoms: N_2  and  C_3
REMARK    3  A    between atoms: N_2  and  C_9
REMARK    4  A    between atoms: C_9  and  C_10
REMARK    5  A    between atoms: C_9  and  C_12
REMARK                            x       y       z     vdW  Elec       q    Type
REMARK                         _______ _______ _______ _____ _____    ______ ____
ROOT
ATOM      1  C   UNL     1       3.159  -0.907   0.758  0.00  0.00    +0.000 C 
ENDROOT
BRANCH   1   2
ATOM      2  C   UNL     1       3.576  -2.300   0.278  0.00  0.00    +0.000 A 
ATOM      3  C   UNL     1       4.719  -2.906   0.836  0.00  0.00    +0.000 A 
ATOM      4  C   UNL     1       5.124  -4.181   0.434  0.00  0.00    +0.000 A 
ATOM      5  C   UNL     1       4.394  -4.872  -0.529  0.00  0.00    +0.000 A 
ATOM      6  C   UNL     1       3.260  -4.292  -1.090  0.00  0.00    +0.000 A 
ATOM      7  C   UNL     1       2.852  -3.018  -0.689  0.00  0.00    +0.000 A 
ENDBRANCH   1   2
BRANCH   1   9
ATOM      8  C   UNL     1       0.898  -0.106  -0.068  0.00  0.00    +0.000 C 
ATOM      9  N   UNL     1       2.345  -0.185  -0.267  0.00  0.00    +0.000 N 
BRANCH   9  10
ATOM     10  C   UNL     1       2.981   0.784  -1.051  0.00  0.00    +0.000 A 
ATOM     11  C   UNL     1       2.365   1.999  -1.395  0.00  0.00    +0.000 A 
ATOM     12  C   UNL     1       3.011   2.958  -2.186  0.00  0.00    +0.000 A 
ATOM     13  C   UNL     1       4.293   2.720  -2.665  0.00  0.00    +0.000 A 
ATOM     14  C   UNL     1       4.924   1.522  -2.358  0.00  0.00    +0.000 A 
ATOM     15  C   UNL     1       4.272   0.569  -1.565  0.00  0.00    +0.000 A 
ENDBRANCH   9  10
ENDBRANCH   1   9
BRANCH   1  16
ATOM     16  C   UNL     1       2.511  -0.985   2.101  0.00  0.00    +0.000 C 
ATOM     17  N   UNL     1       2.001  -1.029   3.146  0.00  0.00    +0.000 NA
ENDBRANCH   1  16
TORSDOF 4
