REMARK  Name = *****
REMARK  3 active torsions:
REMARK  status: ('A' for Active; 'I' for Inactive)
REMARK    1  A    between atoms: C_1  and  C_2
REMARK    2  A    between atoms: C_5  and  C_18
REMARK    3  A    between atoms: N_10  and  C_11
REMARK                            x       y       z     vdW  Elec       q    Type
REMARK                         _______ _______ _______ _____ _____    ______ ____
ROOT
ATOM      1  C   UNL     1       1.324  -0.455  -0.239  0.00  0.00    +0.000 C 
ATOM      2  C   UNL     1       2.803  -0.301  -0.026  0.00  0.00    +0.000 C 
ATOM      3  C   UNL     1       3.479  -1.053   0.861  0.00  0.00    +0.000 C 
ATOM      4  C   UNL     1       4.943  -0.903   1.149  0.00  0.00    +0.000 C 
ATOM      5  C   UNL     1       5.621   0.297   0.480  0.00  0.00    +0.000 C 
ATOM      6  C   UNL     1       5.012   0.562  -0.917  0.00  0.00    +0.000 C 
ATOM      7  C   UNL     1       3.490   0.737  -0.877  0.00  0.00    +0.000 C 
ATOM      8  C   UNL     1       7.055  -0.204   0.353  0.00  0.00    +0.000 C 
ATOM      9  C   UNL     1       6.862  -1.682   0.240  0.00  0.00    +0.000 C 
ATOM     10  N   UNL     1       7.772  -2.483  -0.180  0.00  0.00    +0.000 NA
ATOM     11  O   UNL     1       5.625  -2.059   0.654  0.00  0.00    +0.000 OA
ATOM     12  C   UNL     1       5.546   1.558   1.349  0.00  0.00    +0.000 C 
ENDROOT
BRANCH  10  13
ATOM     13  C   UNL     1       7.428  -3.909  -0.235  0.00  0.00    +0.000 C 
ATOM     14  C   UNL     1       7.699  -4.555   1.129  0.00  0.00    +0.000 C 
ATOM     15  C   UNL     1       7.506  -6.069   1.081  0.00  0.00    +0.000 C 
ATOM     16  C   UNL     1       8.359  -6.710  -0.009  0.00  0.00    +0.000 C 
ATOM     17  C   UNL     1       8.110  -6.068  -1.370  0.00  0.00    +0.000 C 
ATOM     18  C   UNL     1       8.300  -4.554  -1.320  0.00  0.00    +0.000 C 
ENDBRANCH  10  13
TORSDOF 1
