REMARK  Name = *****
REMARK  4 active torsions:
REMARK  status: ('A' for Active; 'I' for Inactive)
REMARK    1  A    between atoms: C_5  and  C_6
REMARK    2  A    between atoms: C_6  and  C_7
REMARK    3  A    between atoms: C_7  and  C_8
REMARK    4  A    between atoms: C_8  and  C_9
REMARK                            x       y       z     vdW  Elec       q    Type
REMARK                         _______ _______ _______ _____ _____    ______ ____
ROOT
ATOM      1  C   UNL     1      -2.499  -2.473   0.046  0.00  0.00    +0.000 C 
ENDROOT
BRANCH   1   2
ATOM      2  C   UNL     1      -2.486  -0.943   0.051  0.00  0.00    +0.000 C 
BRANCH   2   7
ATOM      3  C   UNL     1      -0.077  -0.630   1.067  0.00  0.00    +0.000 C 
ATOM      4  C   UNL     1       1.094   0.160   0.559  0.00  0.00    +0.000 C 
ATOM      5  C   UNL     1       0.779   0.744  -0.607  0.00  0.00    +0.000 C 
ATOM      6  C   UNL     1      -0.579   0.409  -0.957  0.00  0.00    +0.000 C 
ATOM      7  C   UNL     1      -1.104  -0.384  -0.009  0.00  0.00    +0.000 C 
ENDBRANCH   2   7
ENDBRANCH   1   2
BRANCH   1   8
ATOM      8  C   UNL     1      -3.929  -3.017   0.069  0.00  0.00    +0.000 C 
BRANCH   8   9
ATOM      9  C   UNL     1      -3.939  -4.525   0.082  0.00  0.00    +0.000 A 
ATOM     10  C   UNL     1      -3.927  -5.226   1.296  0.00  0.00    +0.000 A 
ATOM     11  C   UNL     1      -3.895  -6.621   1.306  0.00  0.00    +0.000 A 
ATOM     12  C   UNL     1      -3.872  -7.328   0.105  0.00  0.00    +0.000 A 
ATOM     13  C   UNL     1      -3.880  -6.640  -1.107  0.00  0.00    +0.000 A 
ATOM     14  C   UNL     1      -3.912  -5.245  -1.120  0.00  0.00    +0.000 A 
ENDBRANCH   8   9
ENDBRANCH   1   8
TORSDOF 4
