REMARK  Name = *****
REMARK  4 active torsions:
REMARK  status: ('A' for Active; 'I' for Inactive)
REMARK    1  A    between atoms: C_1  and  O_2
REMARK    2  A    between atoms: O_2  and  C_3
REMARK    3  A    between atoms: C_6  and  C_9
REMARK    4  A    between atoms: C_10  and  C_11
REMARK                            x       y       z     vdW  Elec       q    Type
REMARK                         _______ _______ _______ _____ _____    ______ ____
ROOT
ATOM      1  C   UNL     1       5.373  -4.323  -2.307  0.00  0.00    +0.000 C 
ATOM      2  C   UNL     1       5.094  -4.908  -3.483  0.00  0.00    +0.000 C 
ENDROOT
BRANCH   2   3
ATOM      3  C   UNL     1       5.858  -6.035  -4.036  0.00  0.00    +0.000 A 
ATOM      4  C   UNL     1       6.328  -7.084  -3.234  0.00  0.00    +0.000 A 
ATOM      5  C   UNL     1       7.025  -8.156  -3.801  0.00  0.00    +0.000 A 
ATOM      6  C   UNL     1       7.244  -8.189  -5.176  0.00  0.00    +0.000 A 
ATOM      7  C   UNL     1       6.770  -7.163  -5.989  0.00  0.00    +0.000 A 
ATOM      8  C   UNL     1       6.073  -6.093  -5.420  0.00  0.00    +0.000 A 
ATOM      9 CL   UNL     1       8.100  -9.508  -5.874  0.00  0.00    +0.000 Cl
ENDBRANCH   2   3
BRANCH   1  13
ATOM     10  C   UNL     1       3.234  -1.002  -0.634  0.00  0.00    +0.000 A 
ATOM     11  C   UNL     1       2.539  -2.000  -1.315  0.00  0.00    +0.000 A 
ATOM     12  C   UNL     1       3.228  -3.086  -1.871  0.00  0.00    +0.000 A 
ATOM     13  C   UNL     1       4.621  -3.183  -1.764  0.00  0.00    +0.000 A 
ATOM     14  C   UNL     1       5.310  -2.187  -1.065  0.00  0.00    +0.000 A 
ATOM     15  C   UNL     1       4.621  -1.104  -0.511  0.00  0.00    +0.000 A 
BRANCH  10  17
ATOM     16  C   UNL     1       1.279   0.264  -0.163  0.00  0.00    +0.000 C 
ATOM     17  O   UNL     1       2.687   0.105  -0.047  0.00  0.00    +0.000 OA
ENDBRANCH  10  17
ENDBRANCH   1  13
TORSDOF 3
