REMARK  Name = *****
REMARK  3 active torsions:
REMARK  status: ('A' for Active; 'I' for Inactive)
REMARK    1  A    between atoms: C_4  and  C_7
REMARK    2  A    between atoms: C_7  and  C_8
REMARK    3  A    between atoms: C_8  and  C_9
REMARK                            x       y       z     vdW  Elec       q    Type
REMARK                         _______ _______ _______ _____ _____    ______ ____
ROOT
ATOM      1  C   UNL     1      -5.068  -0.586  -0.526  0.00  0.00    +0.000 A 
ATOM      2  C   UNL     1      -5.609  -0.388  -1.801  0.00  0.00    +0.000 A 
ATOM      3  C   UNL     1      -6.969  -0.146  -1.975  0.00  0.00    +0.000 A 
ATOM      4  C   UNL     1      -7.810  -0.092  -0.872  0.00  0.00    +0.000 A 
ATOM      5  C   UNL     1      -7.292  -0.276   0.402  0.00  0.00    +0.000 A 
ATOM      6  C   UNL     1      -5.931  -0.517   0.572  0.00  0.00    +0.000 A 
ATOM      7  F   UNL     1      -5.441  -0.680   1.809  0.00  0.00    +0.000 F 
ATOM      8  F   UNL     1      -8.100  -0.216   1.470  0.00  0.00    +0.000 F 
ATOM      9  F   UNL     1      -9.120   0.143  -1.037  0.00  0.00    +0.000 F 
ATOM     10  F   UNL     1      -7.464   0.039  -3.207  0.00  0.00    +0.000 F 
ATOM     11  F   UNL     1      -4.805  -0.426  -2.873  0.00  0.00    +0.000 F 
ENDROOT
BRANCH   1  12
ATOM     12  C   UNL     1      -3.594  -0.832  -0.341  0.00  0.00    +0.000 C 
BRANCH  12  13
ATOM     13  C   UNL     1      -2.816   0.479  -0.193  0.00  0.00    +0.000 C 
BRANCH  13  17
ATOM     14  C   UNL     1       1.395  -0.284   0.324  0.00  0.00    +0.000 A 
ATOM     15  C   UNL     1       0.869  -0.115  -0.955  0.00  0.00    +0.000 A 
ATOM     16  C   UNL     1      -0.493   0.138  -1.124  0.00  0.00    +0.000 A 
ATOM     17  C   UNL     1      -1.340   0.228  -0.011  0.00  0.00    +0.000 A 
ATOM     18  C   UNL     1      -0.803   0.051   1.271  0.00  0.00    +0.000 A 
ATOM     19  C   UNL     1       0.560  -0.202   1.436  0.00  0.00    +0.000 A 
ENDBRANCH  13  17
ENDBRANCH  12  13
ENDBRANCH   1  12
TORSDOF 3
