REMARK  Name = *****
REMARK  4 active torsions:
REMARK  status: ('A' for Active; 'I' for Inactive)
REMARK    1  A    between atoms: C_1  and  C_2
REMARK    2  A    between atoms: C_5  and  S_8
REMARK    3  A    between atoms: S_8  and  S_9
REMARK    4  A    between atoms: S_9  and  C_10
REMARK                            x       y       z     vdW  Elec       q    Type
REMARK                         _______ _______ _______ _____ _____    ______ ____
ROOT
ATOM      1  S   UNL     1      -3.451   0.331  -0.227  0.00  0.00    +0.000 S 
ENDROOT
BRANCH   1   6
ATOM      2  C   UNL     1       2.606   0.082   0.412  0.00  0.00    +0.000 C 
ATOM      3  C   UNL     1       1.118   0.167   0.237  0.00  0.00    +0.000 A 
ATOM      4  C   UNL     1       0.348   0.951   1.103  0.00  0.00    +0.000 A 
ATOM      5  C   UNL     1      -1.041   1.009   0.959  0.00  0.00    +0.000 A 
ATOM      6  C   UNL     1      -1.677   0.279  -0.049  0.00  0.00    +0.000 A 
ATOM      7  C   UNL     1      -0.913  -0.520  -0.903  0.00  0.00    +0.000 A 
ATOM      8  C   UNL     1       0.476  -0.578  -0.759  0.00  0.00    +0.000 A 
ENDBRANCH   1   6
BRANCH   1   9
ATOM      9  S   UNL     1      -3.723   2.142  -1.167  0.00  0.00    +0.000 S 
BRANCH   9  10
ATOM     10  C   UNL     1      -3.413   1.729  -2.873  0.00  0.00    +0.000 A 
ATOM     11  C   UNL     1      -4.299   0.922  -3.581  0.00  0.00    +0.000 A 
ATOM     12  C   UNL     1      -4.022   0.629  -4.914  0.00  0.00    +0.000 A 
ATOM     13  C   UNL     1      -2.876   1.151  -5.500  0.00  0.00    +0.000 A 
ATOM     14  C   UNL     1      -2.053   1.951  -4.726  0.00  0.00    +0.000 A 
ATOM     15  N   UNL     1      -2.298   2.253  -3.432  0.00  0.00    +0.000 NA
ENDBRANCH   9  10
ENDBRANCH   1   9
TORSDOF 3
