REMARK  Name = *****
REMARK  6 active torsions:
REMARK  status: ('A' for Active; 'I' for Inactive)
REMARK    1  A    between atoms: C_1  and  C_2
REMARK    2  A    between atoms: C_3  and  C_19
REMARK    3  A    between atoms: C_5  and  C_8
REMARK    4  A    between atoms: C_8  and  C_9
REMARK    5  A    between atoms: C_9  and  C_10
REMARK    6  A    between atoms: C_10  and  C_12
REMARK                            x       y       z     vdW  Elec       q    Type
REMARK                         _______ _______ _______ _____ _____    ______ ____
ROOT
ATOM      1  C   UNL     1      -4.374  -0.464  -0.604  0.00  0.00    +0.000 C 
ENDROOT
BRANCH   1   2
ATOM      2  C   UNL     1      -5.683  -1.225  -0.617  0.00  0.00    +0.000 C 
ATOM      3  O   UNL     1      -5.758  -2.412  -0.928  0.00  0.00    +0.000 OA
BRANCH   2   4
ATOM      4  C   UNL     1      -6.914  -0.534  -0.164  0.00  0.00    +0.000 A 
ATOM      5  C   UNL     1      -7.691  -1.207   0.792  0.00  0.00    +0.000 A 
ATOM      6  C   UNL     1      -8.859  -0.627   1.289  0.00  0.00    +0.000 A 
ATOM      7  C   UNL     1      -9.263   0.623   0.828  0.00  0.00    +0.000 A 
ATOM      8  C   UNL     1      -8.506   1.288  -0.139  0.00  0.00    +0.000 A 
ATOM      9  C   UNL     1      -7.334   0.712  -0.644  0.00  0.00    +0.000 A 
ATOM     10 CL   UNL     1      -6.513   1.571  -1.895  0.00  0.00    +0.000 Cl
ENDBRANCH   2   4
ENDBRANCH   1   2
BRANCH   1  11
ATOM     11  C   UNL     1      -3.237  -1.362  -0.118  0.00  0.00    +0.000 C 
BRANCH  11  16
ATOM     12  C   UNL     1       1.758   1.633   0.226  0.00  0.00    +0.000 C 
ATOM     13  C   UNL     1       0.475   0.855   0.110  0.00  0.00    +0.000 A 
ATOM     14  C   UNL     1       0.047   0.323  -1.121  0.00  0.00    +0.000 A 
ATOM     15  C   UNL     1      -1.157  -0.398  -1.177  0.00  0.00    +0.000 A 
ATOM     16  C   UNL     1      -1.936  -0.604  -0.030  0.00  0.00    +0.000 A 
ATOM     17  C   UNL     1      -1.502  -0.072   1.187  0.00  0.00    +0.000 A 
ATOM     18  C   UNL     1      -0.307   0.647   1.256  0.00  0.00    +0.000 A 
ATOM     19  C   UNL     1       0.845   0.519  -2.381  0.00  0.00    +0.000 C 
ENDBRANCH  11  16
ENDBRANCH   1  11
TORSDOF 4
