REMARK  Name = *****
REMARK  5 active torsions:
REMARK  status: ('A' for Active; 'I' for Inactive)
REMARK    1  A    between atoms: C_4  and  C_7
REMARK    2  A    between atoms: C_7  and  C_8
REMARK    3  A    between atoms: C_8  and  C_9
REMARK    4  A    between atoms: C_10  and  C_11
REMARK    5  A    between atoms: C_11  and  C_12
REMARK                            x       y       z     vdW  Elec       q    Type
REMARK                         _______ _______ _______ _____ _____    ______ ____
ROOT
ATOM      1  C   UNL     1      -2.836   0.467  -0.203  0.00  0.00    +0.000 C 
ENDROOT
BRANCH   1   5
ATOM      2  C   UNL     1       1.393  -0.257   0.235  0.00  0.00    +0.000 A 
ATOM      3  C   UNL     1       0.841  -0.093  -1.034  0.00  0.00    +0.000 A 
ATOM      4  C   UNL     1      -0.526   0.146  -1.177  0.00  0.00    +0.000 A 
ATOM      5  C   UNL     1      -1.354   0.229  -0.049  0.00  0.00    +0.000 A 
ATOM      6  C   UNL     1      -0.791   0.057   1.223  0.00  0.00    +0.000 A 
ATOM      7  C   UNL     1       0.577  -0.183   1.363  0.00  0.00    +0.000 A 
ENDBRANCH   1   5
BRANCH   1   8
ATOM      8  C   UNL     1      -3.616  -0.848  -0.290  0.00  0.00    +0.000 C 
BRANCH   8   9
ATOM      9  C   UNL     1      -5.093  -0.603  -0.440  0.00  0.00    +0.000 C 
ATOM     10  C   UNL     1      -5.814  -1.004  -1.499  0.00  0.00    +0.000 C 
BRANCH  10  11
ATOM     11  C   UNL     1      -7.295  -0.775  -1.641  0.00  0.00    +0.000 C 
BRANCH  11  12
ATOM     12  C   UNL     1      -7.609   0.107  -2.844  0.00  0.00    +0.000 C 
ATOM     13 CL   UNL     1      -9.367   0.337  -3.008  0.00  0.00    +0.000 Cl
ENDBRANCH  11  12
ENDBRANCH  10  11
ENDBRANCH   8   9
ENDBRANCH   1   8
TORSDOF 5
