REMARK  Name = *****
REMARK  4 active torsions:
REMARK  status: ('A' for Active; 'I' for Inactive)
REMARK    1  A    between atoms: C_1  and  C_2
REMARK    2  A    between atoms: C_2  and  C_4
REMARK    3  A    between atoms: C_9  and  C_10
REMARK    4  A    between atoms: C_11  and  C_12
REMARK                            x       y       z     vdW  Elec       q    Type
REMARK                         _______ _______ _______ _____ _____    ______ ____
ROOT
ATOM      1  C   UNL     1       3.383  -0.372  -1.227  0.00  0.00    +0.000 A 
ATOM      2  C   UNL     1       2.973   0.122  -2.474  0.00  0.00    +0.000 A 
ATOM      3  C   UNL     1       3.637  -0.276  -3.635  0.00  0.00    +0.000 A 
ATOM      4  C   UNL     1       4.709  -1.163  -3.555  0.00  0.00    +0.000 A 
ATOM      5  C   UNL     1       5.120  -1.655  -2.314  0.00  0.00    +0.000 A 
ATOM      6  C   UNL     1       4.462  -1.264  -1.141  0.00  0.00    +0.000 A 
ENDROOT
BRANCH   1   8
ATOM      7  C   UNL     1       1.158  -0.041  -0.014  0.00  0.00    +0.000 C 
ATOM      8  C   UNL     1       2.659   0.083  -0.014  0.00  0.00    +0.000 C 
ATOM      9  O   UNL     1       3.270   0.578   0.928  0.00  0.00    +0.000 OA
ENDBRANCH   1   8
BRANCH   6  10
ATOM     10  C   UNL     1       4.897  -1.822   0.104  0.00  0.00    +0.000 C 
ATOM     11  C   UNL     1       5.247  -2.275   1.160  0.00  0.00    +0.000 C 
BRANCH  11  12
ATOM     12  C   UNL     1       5.641  -2.780   2.438  0.00  0.00    +0.000 A 
ATOM     13  C   UNL     1       6.376  -3.963   2.533  0.00  0.00    +0.000 A 
ATOM     14  C   UNL     1       6.756  -4.450   3.786  0.00  0.00    +0.000 A 
ATOM     15  C   UNL     1       6.400  -3.755   4.942  0.00  0.00    +0.000 A 
ATOM     16  C   UNL     1       5.666  -2.572   4.848  0.00  0.00    +0.000 A 
ATOM     17  C   UNL     1       5.286  -2.084   3.596  0.00  0.00    +0.000 A 
ENDBRANCH  11  12
ENDBRANCH   6  10
TORSDOF 3
