REMARK  Name = *****
REMARK  4 active torsions:
REMARK  status: ('A' for Active; 'I' for Inactive)
REMARK    1  A    between atoms: C_1  and  C_2
REMARK    2  A    between atoms: C_5  and  O_8
REMARK    3  A    between atoms: O_8  and  S_9
REMARK    4  A    between atoms: S_9  and  C_11
REMARK                            x       y       z     vdW  Elec       q    Type
REMARK                         _______ _______ _______ _____ _____    ______ ____
ROOT
ATOM      1  O   UNL     1      -3.126   0.641   0.452  0.00  0.00    +0.000 OA
ENDROOT
BRANCH   1   6
ATOM      2  C   UNL     1       2.409  -0.393  -0.192  0.00  0.00    +0.000 C 
ATOM      3  C   UNL     1       0.944  -0.099  -0.053  0.00  0.00    +0.000 A 
ATOM      4  C   UNL     1       0.491   0.795   0.926  0.00  0.00    +0.000 A 
ATOM      5  C   UNL     1      -0.874   1.044   1.080  0.00  0.00    +0.000 A 
ATOM      6  C   UNL     1      -1.792   0.403   0.249  0.00  0.00    +0.000 A 
ATOM      7  C   UNL     1      -1.357  -0.520  -0.702  0.00  0.00    +0.000 A 
ATOM      8  C   UNL     1       0.009  -0.767  -0.854  0.00  0.00    +0.000 A 
ENDBRANCH   1   6
BRANCH   1   9
ATOM      9  S   UNL     1      -3.854   1.439  -0.749  0.00  0.00    +0.000 S 
ATOM     10  O   UNL     1      -4.454   0.418  -1.674  0.00  0.00    +0.000 OA
BRANCH   9  11
ATOM     11  C   UNL     1      -5.212   1.991   0.318  0.00  0.00    +0.000 A 
ATOM     12  C   UNL     1      -4.952   2.869   1.379  0.00  0.00    +0.000 A 
ATOM     13  C   UNL     1      -5.994   3.316   2.195  0.00  0.00    +0.000 A 
ATOM     14  C   UNL     1      -7.300   2.894   1.952  0.00  0.00    +0.000 A 
ATOM     15  C   UNL     1      -7.568   2.027   0.893  0.00  0.00    +0.000 A 
ATOM     16  C   UNL     1      -6.527   1.579   0.077  0.00  0.00    +0.000 A 
ENDBRANCH   9  11
ENDBRANCH   1   9
TORSDOF 3
