REMARK  Name = *****
REMARK  5 active torsions:
REMARK  status: ('A' for Active; 'I' for Inactive)
REMARK    1  A    between atoms: C_1  and  C_2
REMARK    2  A    between atoms: C_2  and  C_15
REMARK    3  A    between atoms: C_5  and  C_7
REMARK    4  A    between atoms: C_7  and  C_8
REMARK    5  A    between atoms: C_8  and  C_9
REMARK                            x       y       z     vdW  Elec       q    Type
REMARK                         _______ _______ _______ _____ _____    ______ ____
ROOT
ATOM      1  C   UNL     1       5.086   1.475   2.373  0.00  0.00    +0.000 C 
ENDROOT
BRANCH   1   6
ATOM      2  C   UNL     1       1.124   1.005  -0.908  0.00  0.00    +0.000 C 
ATOM      3  C   UNL     1       2.526   0.474  -0.590  0.00  0.00    +0.000 C 
ATOM      4  C   UNL     1       2.450  -0.580   0.519  0.00  0.00    +0.000 C 
ATOM      5  S   UNL     1       4.103  -0.869   1.207  0.00  0.00    +0.000 S 
ATOM      6  C   UNL     1       4.724   0.836   1.025  0.00  0.00    +0.000 C 
ATOM      7  S   UNL     1       3.532   1.847   0.081  0.00  0.00    +0.000 S 
ATOM      8  C   UNL     1       3.174  -0.059  -1.875  0.00  0.00    +0.000 C 
ENDBRANCH   1   6
BRANCH   1   9
ATOM      9  C   UNL     1       3.933   1.645   3.372  0.00  0.00    +0.000 C 
BRANCH   9  10
ATOM     10  C   UNL     1       4.412   2.286   4.654  0.00  0.00    +0.000 A 
ATOM     11  C   UNL     1       4.419   3.680   4.792  0.00  0.00    +0.000 A 
ATOM     12  C   UNL     1       4.880   4.271   5.969  0.00  0.00    +0.000 A 
ATOM     13  C   UNL     1       5.344   3.475   7.015  0.00  0.00    +0.000 A 
ATOM     14  C   UNL     1       5.348   2.087   6.885  0.00  0.00    +0.000 A 
ATOM     15  C   UNL     1       4.886   1.494   5.708  0.00  0.00    +0.000 A 
ENDBRANCH   9  10
ENDBRANCH   1   9
TORSDOF 3
