REMARK  Name = *****
REMARK  1 active torsions:
REMARK  status: ('A' for Active; 'I' for Inactive)
REMARK    1  A    between atoms: C_8  and  C_10
REMARK                            x       y       z     vdW  Elec       q    Type
REMARK                         _______ _______ _______ _____ _____    ______ ____
ROOT
ATOM      1  C   UNL     1       2.207   0.637  -0.048  0.00  0.00    +0.000 A 
ATOM      2  C   UNL     1       2.130  -0.761   0.015  0.00  0.00    +0.000 A 
ATOM      3  C   UNL     1       0.897  -1.422   0.061  0.00  0.00    +0.000 A 
ATOM      4  C   UNL     1      -0.225  -0.604   0.040  0.00  0.00    +0.000 A 
ATOM      5  C   UNL     1      -0.193   0.779  -0.024  0.00  0.00    +0.000 A 
ATOM      6  C   UNL     1       1.047   1.427  -0.069  0.00  0.00    +0.000 A 
ATOM      7  N   UNL     1      -1.473   1.275  -0.031  0.00  0.00    +0.000 NA
ATOM      8  C   UNL     1      -2.229   0.193   0.035  0.00  0.00    +0.000 A 
ATOM      9  O   UNL     1      -1.533  -0.989   0.079  0.00  0.00    +0.000 OA
ENDROOT
BRANCH   8  10
ATOM     10  C   UNL     1      -3.686   0.098   0.064  0.00  0.00    +0.000 A 
ATOM     11  C   UNL     1      -4.456   1.266  -0.047  0.00  0.00    +0.000 A 
ATOM     12  C   UNL     1      -5.849   1.201  -0.017  0.00  0.00    +0.000 A 
ATOM     13  C   UNL     1      -6.499  -0.021   0.124  0.00  0.00    +0.000 A 
ATOM     14  C   UNL     1      -5.741  -1.182   0.235  0.00  0.00    +0.000 A 
ATOM     15  C   UNL     1      -4.347  -1.131   0.205  0.00  0.00    +0.000 A 
ATOM     16 CL   UNL     1      -6.533  -2.700   0.414  0.00  0.00    +0.000 Cl
ATOM     17 CL   UNL     1      -6.773   2.646  -0.157  0.00  0.00    +0.000 Cl
ENDBRANCH   8  10
TORSDOF 1
