REMARK  Name = *****
REMARK  5 active torsions:
REMARK  status: ('A' for Active; 'I' for Inactive)
REMARK    1  A    between atoms: C_1  and  O_2
REMARK    2  A    between atoms: O_2  and  C_3
REMARK    3  A    between atoms: C_6  and  C_9
REMARK    4  A    between atoms: C_9  and  N_10
REMARK    5  A    between atoms: N_10  and  C_11
REMARK                            x       y       z     vdW  Elec       q    Type
REMARK                         _______ _______ _______ _____ _____    ______ ____
ROOT
ATOM      1  C   UNL     1       3.167  -0.953   0.844  0.00  0.00    +0.000 A 
ATOM      2  C   UNL     1       2.666  -2.227   1.115  0.00  0.00    +0.000 A 
ATOM      3  C   UNL     1       3.359  -3.086   1.977  0.00  0.00    +0.000 A 
ATOM      4  C   UNL     1       4.554  -2.675   2.569  0.00  0.00    +0.000 A 
ATOM      5  C   UNL     1       5.064  -1.408   2.291  0.00  0.00    +0.000 A 
ATOM      6  C   UNL     1       4.371  -0.553   1.429  0.00  0.00    +0.000 A 
ENDROOT
BRANCH   1   8
ATOM      7  C   UNL     1       1.290  -0.318  -0.467  0.00  0.00    +0.000 C 
ATOM      8  O   UNL     1       2.587  -0.018   0.032  0.00  0.00    +0.000 OA
ENDBRANCH   1   8
BRANCH   4   9
ATOM      9  C   UNL     1       5.245  -3.547   3.467  0.00  0.00    +0.000 C 
BRANCH   9  10
ATOM     10  N   UNL     1       5.774  -4.222   4.180  0.00  0.00    +0.000 NA
BRANCH  10  11
ATOM     11  C   UNL     1       6.421  -5.055   5.075  0.00  0.00    +0.000 A 
ATOM     12  C   UNL     1       7.366  -4.514   5.941  0.00  0.00    +0.000 A 
ATOM     13  C   UNL     1       8.008  -5.353   6.851  0.00  0.00    +0.000 A 
ATOM     14  C   UNL     1       7.698  -6.716   6.882  0.00  0.00    +0.000 A 
ATOM     15  C   UNL     1       6.747  -7.243   6.005  0.00  0.00    +0.000 A 
ATOM     16  C   UNL     1       6.102  -6.409   5.093  0.00  0.00    +0.000 A 
ENDBRANCH  10  11
ENDBRANCH   9  10
ENDBRANCH   4   9
TORSDOF 4
