REMARK  Name = *****
REMARK  6 active torsions:
REMARK  status: ('A' for Active; 'I' for Inactive)
REMARK    1  A    between atoms: C_1  and  N_2
REMARK    2  A    between atoms: N_2  and  C_3
REMARK    3  A    between atoms: N_2  and  C_4
REMARK    4  A    between atoms: C_7  and  C_10
REMARK    5  A    between atoms: C_10  and  S_11
REMARK    6  A    between atoms: S_11  and  C_12
REMARK                            x       y       z     vdW  Elec       q    Type
REMARK                         _______ _______ _______ _____ _____    ______ ____
ROOT
ATOM      1  C   UNL     1       3.118   0.687  -1.161  0.00  0.00    +0.000 A 
ATOM      2  C   UNL     1       2.389   1.755  -1.713  0.00  0.00    +0.000 A 
ATOM      3  C   UNL     1       2.899   2.565  -2.738  0.00  0.00    +0.000 A 
ATOM      4  C   UNL     1       4.167   2.326  -3.270  0.00  0.00    +0.000 A 
ATOM      5  C   UNL     1       4.911   1.269  -2.745  0.00  0.00    +0.000 A 
ATOM      6  C   UNL     1       4.389   0.465  -1.720  0.00  0.00    +0.000 A 
ENDROOT
BRANCH   1   8
ATOM      7  C   UNL     1       1.461   0.367   0.633  0.00  0.00    +0.000 C 
ATOM      8  N   UNL     1       2.593  -0.129  -0.149  0.00  0.00    +0.000 N 
ATOM      9  C   UNL     1       3.482  -1.056   0.548  0.00  0.00    +0.000 C 
ENDBRANCH   1   8
BRANCH   4  10
ATOM     10  C   UNL     1       4.723   3.197  -4.366  0.00  0.00    +0.000 C 
BRANCH  10  11
ATOM     11  S   UNL     1       5.629   4.626  -3.690  0.00  0.00    +0.000 S 
BRANCH  11  12
ATOM     12  C   UNL     1       6.004   5.476  -5.210  0.00  0.00    +0.000 A 
ATOM     13  C   UNL     1       5.448   6.737  -5.447  0.00  0.00    +0.000 A 
ATOM     14  C   UNL     1       5.733   7.421  -6.631  0.00  0.00    +0.000 A 
ATOM     15  C   UNL     1       6.582   6.852  -7.579  0.00  0.00    +0.000 A 
ATOM     16  C   UNL     1       7.150   5.601  -7.343  0.00  0.00    +0.000 A 
ATOM     17  C   UNL     1       6.865   4.916  -6.159  0.00  0.00    +0.000 A 
ENDBRANCH  11  12
ENDBRANCH  10  11
ENDBRANCH   4  10
TORSDOF 4
