REMARK  Name = *****
REMARK  4 active torsions:
REMARK  status: ('A' for Active; 'I' for Inactive)
REMARK    1  A    between atoms: C_1  and  C_2
REMARK    2  A    between atoms: C_5  and  N_8
REMARK    3  A    between atoms: N_8  and  O_18
REMARK    4  A    between atoms: C_9  and  C_11
REMARK                            x       y       z     vdW  Elec       q    Type
REMARK                         _______ _______ _______ _____ _____    ______ ____
ROOT
ATOM      1  N   UNL     1      -3.221  -0.088  -0.275  0.00  0.00    +0.000 N 
ATOM      2  C   UNL     1      -4.078  -1.124   0.085  0.00  0.00    +0.000 C 
ATOM      3  O   UNL     1      -3.764  -2.261   0.431  0.00  0.00    +0.000 OA
ENDROOT
BRANCH   1   8
ATOM      4  C   UNL     1       2.532  -0.172  -0.602  0.00  0.00    +0.000 C 
ATOM      5  C   UNL     1       1.034  -0.171  -0.539  0.00  0.00    +0.000 A 
ATOM      6  C   UNL     1       0.345  -1.206   0.098  0.00  0.00    +0.000 A 
ATOM      7  C   UNL     1      -1.053  -1.190   0.180  0.00  0.00    +0.000 A 
ATOM      8  C   UNL     1      -1.800  -0.137  -0.362  0.00  0.00    +0.000 A 
ATOM      9  C   UNL     1      -1.095   0.907  -0.983  0.00  0.00    +0.000 A 
ATOM     10  C   UNL     1       0.302   0.894  -1.068  0.00  0.00    +0.000 A 
ENDBRANCH   1   8
BRANCH   2  11
ATOM     11  C   UNL     1      -5.533  -0.840   0.049  0.00  0.00    +0.000 A 
ATOM     12  C   UNL     1      -6.351  -1.623  -0.773  0.00  0.00    +0.000 A 
ATOM     13  C   UNL     1      -7.729  -1.395  -0.800  0.00  0.00    +0.000 A 
ATOM     14  C   UNL     1      -8.281  -0.399   0.006  0.00  0.00    +0.000 A 
ATOM     15  C   UNL     1      -7.471   0.368   0.845  0.00  0.00    +0.000 A 
ATOM     16  C   UNL     1      -6.092   0.144   0.874  0.00  0.00    +0.000 A 
ATOM     17 CL   UNL     1      -9.979  -0.119  -0.026  0.00  0.00    +0.000 Cl
ENDBRANCH   2  11
BRANCH   1  18
ATOM     18  O   UNL     1      -3.817   1.063  -0.847  0.00  0.00    +0.000 OA
ATOM     19  H   UNL     1      -3.129   1.714  -1.056  0.00  0.00    +0.000 HD
ENDBRANCH   1  18
TORSDOF 3
