REMARK  Name = *****
REMARK  4 active torsions:
REMARK  status: ('A' for Active; 'I' for Inactive)
REMARK    1  A    between atoms: C_1  and  C_2
REMARK    2  A    between atoms: C_4  and  C_8
REMARK    3  A    between atoms: C_8  and  C_17
REMARK    4  A    between atoms: N_9  and  C_10
REMARK                            x       y       z     vdW  Elec       q    Type
REMARK                         _______ _______ _______ _____ _____    ______ ____
ROOT
ATOM      1  C   UNL     1      -1.871   2.315   0.050  0.00  0.00    +0.000 C 
ATOM      2  N   UNL     1      -3.159   2.402   0.214  0.00  0.00    +0.000 NA
ATOM      3  C   UNL     1      -1.079   3.602   0.078  0.00  0.00    +0.000 C 
ENDROOT
BRANCH   1   7
ATOM      4  C   UNL     1      -0.318  -2.183   1.625  0.00  0.00    +0.000 C 
ATOM      5  C   UNL     1      -0.316  -1.088   0.600  0.00  0.00    +0.000 A 
ATOM      6  C   UNL     1      -1.062   0.078   0.808  0.00  0.00    +0.000 A 
ATOM      7  C   UNL     1      -1.092   1.073  -0.174  0.00  0.00    +0.000 A 
ATOM      8  C   UNL     1      -0.378   0.921  -1.364  0.00  0.00    +0.000 A 
ATOM      9  C   UNL     1       0.356  -0.245  -1.579  0.00  0.00    +0.000 A 
ATOM     10  C   UNL     1       0.381  -1.246  -0.605  0.00  0.00    +0.000 A 
ENDBRANCH   1   7
BRANCH   2  11
ATOM     11  C   UNL     1      -3.977   1.268   0.148  0.00  0.00    +0.000 A 
ATOM     12  C   UNL     1      -4.592   0.798   1.313  0.00  0.00    +0.000 A 
ATOM     13  C   UNL     1      -5.430  -0.318   1.270  0.00  0.00    +0.000 A 
ATOM     14  C   UNL     1      -5.664  -0.949   0.054  0.00  0.00    +0.000 A 
ATOM     15  C   UNL     1      -5.085  -0.480  -1.119  0.00  0.00    +0.000 A 
ATOM     16  C   UNL     1      -4.248   0.636  -1.072  0.00  0.00    +0.000 A 
ATOM     17  F   UNL     1      -6.468  -2.019   0.011  0.00  0.00    +0.000 F 
ENDBRANCH   2  11
TORSDOF 2
