REMARK  Name = *****
REMARK  5 active torsions:
REMARK  status: ('A' for Active; 'I' for Inactive)
REMARK    1  A    between atoms: C_1  and  O_2
REMARK    2  A    between atoms: O_2  and  C_3
REMARK    3  A    between atoms: C_4  and  C_5
REMARK    4  A    between atoms: C_10  and  C_11
REMARK    5  A    between atoms: C_12  and  C_13
REMARK                            x       y       z     vdW  Elec       q    Type
REMARK                         _______ _______ _______ _____ _____    ______ ____
ROOT
ATOM      1  C   UNL     1       5.202  -1.041   2.277  0.00  0.00    +0.000 A 
ATOM      2  C   UNL     1       4.828  -2.245   2.899  0.00  0.00    +0.000 A 
ATOM      3  C   UNL     1       5.507  -2.712   4.026  0.00  0.00    +0.000 A 
ATOM      4  C   UNL     1       6.576  -1.987   4.545  0.00  0.00    +0.000 A 
ATOM      5  C   UNL     1       6.970  -0.796   3.934  0.00  0.00    +0.000 A 
ATOM      6  C   UNL     1       6.294  -0.321   2.801  0.00  0.00    +0.000 A 
ENDROOT
BRANCH   1   8
ATOM      7  C   UNL     1       3.154  -0.540   0.976  0.00  0.00    +0.000 C 
ATOM      8  C   UNL     1       4.487  -0.589   1.072  0.00  0.00    +0.000 C 
BRANCH   7  10
ATOM      9  C   UNL     1       1.137  -0.359  -0.163  0.00  0.00    +0.000 C 
ATOM     10  O   UNL     1       2.537  -0.093  -0.163  0.00  0.00    +0.000 OA
ENDBRANCH   7  10
ENDBRANCH   1   8
BRANCH   6  11
ATOM     11  C   UNL     1       6.739   0.912   2.218  0.00  0.00    +0.000 C 
ATOM     12  C   UNL     1       7.106   1.944   1.724  0.00  0.00    +0.000 C 
BRANCH  12  13
ATOM     13  C   UNL     1       7.529   3.171   1.125  0.00  0.00    +0.000 A 
ATOM     14  C   UNL     1       8.720   3.776   1.531  0.00  0.00    +0.000 A 
ATOM     15  C   UNL     1       9.131   4.975   0.943  0.00  0.00    +0.000 A 
ATOM     16  C   UNL     1       8.352   5.568  -0.050  0.00  0.00    +0.000 A 
ATOM     17  C   UNL     1       7.162   4.965  -0.457  0.00  0.00    +0.000 A 
ATOM     18  C   UNL     1       6.749   3.767   0.130  0.00  0.00    +0.000 A 
ENDBRANCH  12  13
ENDBRANCH   6  11
TORSDOF 4
