REMARK  Name = *****
REMARK  5 active torsions:
REMARK  status: ('A' for Active; 'I' for Inactive)
REMARK    1  A    between atoms: C_1  and  O_2
REMARK    2  A    between atoms: O_2  and  C_3
REMARK    3  A    between atoms: C_3  and  C_5
REMARK    4  A    between atoms: C_8  and  C_11
REMARK    5  A    between atoms: C_12  and  C_13
REMARK                            x       y       z     vdW  Elec       q    Type
REMARK                         _______ _______ _______ _____ _____    ______ ____
ROOT
ATOM      1  C   UNL     1       4.666   0.923   1.095  0.00  0.00    +0.000 A 
ATOM      2  C   UNL     1       5.402   1.324  -0.029  0.00  0.00    +0.000 A 
ATOM      3  C   UNL     1       6.800   1.339   0.015  0.00  0.00    +0.000 A 
ATOM      4  C   UNL     1       7.470   0.954   1.178  0.00  0.00    +0.000 A 
ATOM      5  C   UNL     1       6.742   0.552   2.300  0.00  0.00    +0.000 A 
ATOM      6  C   UNL     1       5.345   0.536   2.259  0.00  0.00    +0.000 A 
ENDROOT
BRANCH   1   7
ATOM      7  C   UNL     1       3.177   0.890   1.106  0.00  0.00    +0.000 C 
ATOM      8  O   UNL     1       2.519   0.532   2.070  0.00  0.00    +0.000 OA
BRANCH   7  10
ATOM      9  C   UNL     1       1.252   1.311  -0.146  0.00  0.00    +0.000 C 
ATOM     10  O   UNL     1       2.679   1.310  -0.083  0.00  0.00    +0.000 OA
ENDBRANCH   7  10
ENDBRANCH   1   7
BRANCH   4  11
ATOM     11  C   UNL     1       8.899   0.975   1.221  0.00  0.00    +0.000 C 
ATOM     12  C   UNL     1      10.100   0.995   1.259  0.00  0.00    +0.000 C 
BRANCH  12  13
ATOM     13  C   UNL     1      11.529   1.021   1.307  0.00  0.00    +0.000 A 
ATOM     14  C   UNL     1      12.195   0.746   2.504  0.00  0.00    +0.000 A 
ATOM     15  C   UNL     1      13.590   0.774   2.550  0.00  0.00    +0.000 A 
ATOM     16  C   UNL     1      14.321   1.077   1.401  0.00  0.00    +0.000 A 
ATOM     17  C   UNL     1      13.658   1.353   0.205  0.00  0.00    +0.000 A 
ATOM     18  C   UNL     1      12.263   1.325   0.157  0.00  0.00    +0.000 A 
ENDBRANCH  12  13
ENDBRANCH   4  11
TORSDOF 4
