REMARK  Name = *****
REMARK  5 active torsions:
REMARK  status: ('A' for Active; 'I' for Inactive)
REMARK    1  A    between atoms: C_1  and  O_2
REMARK    2  A    between atoms: O_2  and  C_3
REMARK    3  A    between atoms: C_6  and  P_9
REMARK    4  A    between atoms: P_9  and  O_10
REMARK    5  A    between atoms: O_10  and  C_11
REMARK                            x       y       z     vdW  Elec       q    Type
REMARK                         _______ _______ _______ _____ _____    ______ ____
ROOT
ATOM      1  P   UNL     1       5.363  -4.307  -3.367  0.00  0.00    +0.000 P 
ATOM      2  S   UNL     1       6.104  -5.779  -2.278  0.00  0.00    +0.000 S 
ATOM      3  S   UNL     1       4.237  -5.226  -4.707  0.00  0.00    +0.000 S 
ENDROOT
BRANCH   1   7
ATOM      4  C   UNL     1       3.229  -0.970  -0.924  0.00  0.00    +0.000 A 
ATOM      5  C   UNL     1       2.749  -1.334  -2.182  0.00  0.00    +0.000 A 
ATOM      6  C   UNL     1       3.389  -2.339  -2.916  0.00  0.00    +0.000 A 
ATOM      7  C   UNL     1       4.515  -3.001  -2.405  0.00  0.00    +0.000 A 
ATOM      8  C   UNL     1       5.001  -2.613  -1.149  0.00  0.00    +0.000 A 
ATOM      9  C   UNL     1       4.363  -1.607  -0.417  0.00  0.00    +0.000 A 
BRANCH   4  11
ATOM     10  C   UNL     1       1.436   0.524  -0.502  0.00  0.00    +0.000 C 
ATOM     11  O   UNL     1       2.692  -0.011  -0.107  0.00  0.00    +0.000 OA
ENDBRANCH   4  11
ENDBRANCH   1   7
BRANCH   1  12
ATOM     12  O   UNL     1       6.517  -3.375  -4.044  0.00  0.00    +0.000 OA
BRANCH  12  13
ATOM     13  C   UNL     1       7.523  -3.714  -4.903  0.00  0.00    +0.000 A 
ATOM     14  C   UNL     1       7.779  -4.993  -5.385  0.00  0.00    +0.000 A 
ATOM     15  C   UNL     1       8.844  -5.213  -6.264  0.00  0.00    +0.000 A 
ATOM     16  C   UNL     1       9.658  -4.154  -6.664  0.00  0.00    +0.000 A 
ATOM     17  C   UNL     1       9.406  -2.871  -6.183  0.00  0.00    +0.000 A 
ATOM     18  C   UNL     1       8.342  -2.655  -5.306  0.00  0.00    +0.000 A 
ENDBRANCH  12  13
ENDBRANCH   1  12
TORSDOF 4
