REMARK  Name = *****
REMARK  3 active torsions:
REMARK  status: ('A' for Active; 'I' for Inactive)
REMARK    1  A    between atoms: C_2  and  C_3
REMARK    2  A    between atoms: C_8  and  C_9
REMARK    3  A    between atoms: C_10  and  C_11
REMARK                            x       y       z     vdW  Elec       q    Type
REMARK                         _______ _______ _______ _____ _____    ______ ____
ROOT
ATOM      1  C   UNL     1       3.103   0.592   1.090  0.00  0.00    +0.000 A 
ATOM      2  C   UNL     1       2.862   0.570   2.475  0.00  0.00    +0.000 A 
ATOM      3  C   UNL     1       3.748   1.177   3.367  0.00  0.00    +0.000 A 
ATOM      4  C   UNL     1       4.891   1.809   2.890  0.00  0.00    +0.000 A 
ATOM      5  C   UNL     1       5.153   1.829   1.520  0.00  0.00    +0.000 A 
ATOM      6  C   UNL     1       4.276   1.214   0.610  0.00  0.00    +0.000 A 
ENDROOT
BRANCH   1   8
ATOM      7  C   UNL     1       0.836   0.039   0.240  0.00  0.00    +0.000 C 
ATOM      8  C   UNL     1       2.167  -0.094   0.180  0.00  0.00    +0.000 C 
ENDBRANCH   1   8
BRANCH   6   9
ATOM      9  C   UNL     1       4.577   1.289  -0.831  0.00  0.00    +0.000 C 
ATOM     10  C   UNL     1       5.721   0.821  -1.358  0.00  0.00    +0.000 C 
BRANCH  10  11
ATOM     11  C   UNL     1       6.092   0.837  -2.743  0.00  0.00    +0.000 A 
ATOM     12  C   UNL     1       5.374   1.438  -3.757  0.00  0.00    +0.000 A 
ATOM     13  S   UNL     1       6.122   1.258  -5.288  0.00  0.00    +0.000 S 
ATOM     14  C   UNL     1       7.418   0.374  -4.609  0.00  0.00    +0.000 A 
ATOM     15  C   UNL     1       7.282   0.223  -3.246  0.00  0.00    +0.000 A 
ENDBRANCH  10  11
ENDBRANCH   6   9
TORSDOF 3
