REMARK  Name = *****
REMARK  2 active torsions:
REMARK  status: ('A' for Active; 'I' for Inactive)
REMARK    1  A    between atoms: C_1  and  C_2
REMARK    2  A    between atoms: C_7  and  C_8
REMARK                            x       y       z     vdW  Elec       q    Type
REMARK                         _______ _______ _______ _____ _____    ______ ____
ROOT
ATOM      1  C   UNL     1       1.006  -2.532  -0.095  0.00  0.00    +0.000 A 
ATOM      2  N   UNL     1       2.300  -2.803  -0.041  0.00  0.00    +0.000 NA
ATOM      3  C   UNL     1       2.362  -4.169  -0.134  0.00  0.00    +0.000 A 
ATOM      4  C   UNL     1       3.454  -5.046  -0.134  0.00  0.00    +0.000 A 
ATOM      5  C   UNL     1       3.198  -6.421  -0.247  0.00  0.00    +0.000 A 
ATOM      6  C   UNL     1       1.888  -6.907  -0.357  0.00  0.00    +0.000 A 
ATOM      7  C   UNL     1       0.787  -6.042  -0.357  0.00  0.00    +0.000 A 
ATOM      8  C   UNL     1       1.085  -4.690  -0.244  0.00  0.00    +0.000 A 
ATOM      9  O   UNL     1       0.208  -3.648  -0.219  0.00  0.00    +0.000 OA
ENDROOT
BRANCH   1  16
ATOM     10  C   UNL     1       2.508   0.078  -0.008  0.00  0.00    +0.000 C 
ATOM     11  C   UNL     1       1.003  -0.005  -0.003  0.00  0.00    +0.000 A 
ATOM     12  C   UNL     1       0.276   1.201   0.047  0.00  0.00    +0.000 A 
ATOM     13  C   UNL     1      -1.117   1.201   0.054  0.00  0.00    +0.000 A 
ATOM     14  C   UNL     1      -1.807  -0.003   0.011  0.00  0.00    +0.000 A 
ATOM     15  C   UNL     1      -1.101  -1.206  -0.037  0.00  0.00    +0.000 A 
ATOM     16  C   UNL     1       0.310  -1.237  -0.045  0.00  0.00    +0.000 A 
ENDBRANCH   1  16
TORSDOF 1
