REMARK  Name = *****
REMARK  3 active torsions:
REMARK  status: ('A' for Active; 'I' for Inactive)
REMARK    1  A    between atoms: C_5  and  C_7
REMARK    2  A    between atoms: C_7  and  N_8
REMARK    3  A    between atoms: N_8  and  C_9
REMARK                            x       y       z     vdW  Elec       q    Type
REMARK                         _______ _______ _______ _____ _____    ______ ____
ROOT
ATOM      1  N   UNL     1      -1.732  -2.535  -0.056  0.00  0.00    +0.000 N 
ATOM      2  O   UNL     1      -2.391  -1.647   0.580  0.00  0.00    +0.000 OA
ENDROOT
BRANCH   1   3
ATOM      3  C   UNL     1      -2.357  -3.812  -0.369  0.00  0.00    +0.000 A 
ATOM      4  C   UNL     1      -3.148  -4.428   0.609  0.00  0.00    +0.000 A 
ATOM      5  C   UNL     1      -3.772  -5.646   0.329  0.00  0.00    +0.000 A 
ATOM      6  C   UNL     1      -3.610  -6.235  -0.925  0.00  0.00    +0.000 A 
ATOM      7  C   UNL     1      -2.836  -5.614  -1.907  0.00  0.00    +0.000 A 
ATOM      8  C   UNL     1      -2.211  -4.394  -1.635  0.00  0.00    +0.000 A 
ATOM      9 CL   UNL     1      -4.377  -7.736  -1.268  0.00  0.00    +0.000 Cl
ENDBRANCH   1   3
BRANCH   1  10
ATOM     10  C   UNL     1      -0.470  -2.371  -0.381  0.00  0.00    +0.000 C 
BRANCH  10  15
ATOM     11  C   UNL     1       2.002   0.000   1.095  0.00  0.00    +0.000 A 
ATOM     12  C   UNL     1       1.682   1.197   0.452  0.00  0.00    +0.000 A 
ATOM     13  C   UNL     1       0.650   1.234  -0.490  0.00  0.00    +0.000 A 
ATOM     14  C   UNL     1      -0.073   0.076  -0.783  0.00  0.00    +0.000 A 
ATOM     15  C   UNL     1       0.235  -1.115  -0.115  0.00  0.00    +0.000 A 
ATOM     16  C   UNL     1       1.283  -1.161   0.808  0.00  0.00    +0.000 A 
ATOM     17 CL   UNL     1      -1.268   0.153  -2.027  0.00  0.00    +0.000 Cl
ENDBRANCH  10  15
ENDBRANCH   1  10
TORSDOF 3
