REMARK  Name = *****
REMARK  6 active torsions:
REMARK  status: ('A' for Active; 'I' for Inactive)
REMARK    1  A    between atoms: C_1  and  C_2
REMARK    2  A    between atoms: C_4  and  C_18
REMARK    3  A    between atoms: C_5  and  C_9
REMARK    4  A    between atoms: C_6  and  C_8
REMARK    5  A    between atoms: C_9  and  O_11
REMARK    6  A    between atoms: O_11  and  C_12
REMARK                            x       y       z     vdW  Elec       q    Type
REMARK                         _______ _______ _______ _____ _____    ______ ____
ROOT
ATOM      1  C   UNL     1       2.132   1.946   0.533  0.00  0.00    +0.000 C 
ATOM      2  C   UNL     1       1.023   0.972   0.258  0.00  0.00    +0.000 A 
ATOM      3  C   UNL     1       1.310  -0.337  -0.144  0.00  0.00    +0.000 A 
ATOM      4  C   UNL     1       0.282  -1.261  -0.388  0.00  0.00    +0.000 A 
ATOM      5  C   UNL     1      -1.056  -0.858  -0.196  0.00  0.00    +0.000 A 
ATOM      6  C   UNL     1      -1.361   0.446   0.249  0.00  0.00    +0.000 A 
ATOM      7  C   UNL     1      -0.309   1.351   0.458  0.00  0.00    +0.000 A 
ATOM      8  C   UNL     1      -2.774   0.907   0.483  0.00  0.00    +0.000 C 
ATOM      9  C   UNL     1       0.639  -2.656  -0.823  0.00  0.00    +0.000 C 
ENDROOT
BRANCH   5  10
ATOM     10  C   UNL     1      -2.140  -1.839  -0.441  0.00  0.00    +0.000 C 
ATOM     11  O   UNL     1      -2.233  -2.916   0.122  0.00  0.00    +0.000 OA
BRANCH  10  12
ATOM     12  O   UNL     1      -2.938  -1.359  -1.425  0.00  0.00    +0.000 OA
BRANCH  12  13
ATOM     13  C   UNL     1      -4.010  -2.225  -1.824  0.00  0.00    +0.000 C 
ATOM     14  C   UNL     1      -3.483  -3.263  -2.826  0.00  0.00    +0.000 C 
ATOM     15  C   UNL     1      -4.622  -3.916  -3.604  0.00  0.00    +0.000 C 
ATOM     16  C   UNL     1      -5.438  -2.874  -4.374  0.00  0.00    +0.000 C 
ATOM     17  C   UNL     1      -5.711  -1.634  -3.574  0.00  0.00    +0.000 C 
ATOM     18  C   UNL     1      -5.079  -1.350  -2.424  0.00  0.00    +0.000 C 
ENDBRANCH  12  13
ENDBRANCH  10  12
ENDBRANCH   5  10
TORSDOF 3
