REMARK  Name = *****
REMARK  2 active torsions:
REMARK  status: ('A' for Active; 'I' for Inactive)
REMARK    1  A    between atoms: C_5  and  C_7
REMARK    2  A    between atoms: C_8  and  C_9
REMARK                            x       y       z     vdW  Elec       q    Type
REMARK                         _______ _______ _______ _____ _____    ______ ____
ROOT
ATOM      1  C   UNL     1      -1.610  -1.090   1.523  0.00  0.00    +0.000 C 
ATOM      2  C   UNL     1      -2.657  -1.869   1.843  0.00  0.00    +0.000 C 
ENDROOT
BRANCH   2   3
ATOM      3  C   UNL     1      -3.160  -2.072   3.210  0.00  0.00    +0.000 A 
ATOM      4  C   UNL     1      -3.113  -1.069   4.185  0.00  0.00    +0.000 A 
ATOM      5  C   UNL     1      -3.633  -1.307   5.454  0.00  0.00    +0.000 A 
ATOM      6  C   UNL     1      -4.214  -2.527   5.777  0.00  0.00    +0.000 A 
ATOM      7  C   UNL     1      -4.281  -3.528   4.811  0.00  0.00    +0.000 A 
ATOM      8  C   UNL     1      -3.761  -3.298   3.533  0.00  0.00    +0.000 A 
ATOM      9  F   UNL     1      -3.578  -0.340   6.380  0.00  0.00    +0.000 F 
ENDBRANCH   2   3
BRANCH   1  14
ATOM     10  C   UNL     1      -0.194   1.482   0.145  0.00  0.00    +0.000 C 
ATOM     11  C   UNL     1       1.189   0.995  -0.293  0.00  0.00    +0.000 C 
ATOM     12  C   UNL     1       1.359  -0.491  -0.174  0.00  0.00    +0.000 C 
ATOM     13  C   UNL     1       0.336  -1.337   0.020  0.00  0.00    +0.000 C 
ATOM     14  C   UNL     1      -1.106  -0.901   0.110  0.00  0.00    +0.000 C 
ATOM     15  C   UNL     1      -1.299   0.555  -0.360  0.00  0.00    +0.000 C 
ENDBRANCH   1  14
TORSDOF 2
