REMARK  Name = *****
REMARK  3 active torsions:
REMARK  status: ('A' for Active; 'I' for Inactive)
REMARK    1  A    between atoms: C_4  and  N_7
REMARK    2  A    between atoms: C_8  and  C_9
REMARK    3  A    between atoms: C_14  and  C_15
REMARK                            x       y       z     vdW  Elec       q    Type
REMARK                         _______ _______ _______ _____ _____    ______ ____
ROOT
ATOM      1  C   UNL     1      -5.061  -0.239  -0.429  0.00  0.00    +0.000 A 
ATOM      2  C   UNL     1      -5.486   0.779  -1.296  0.00  0.00    +0.000 A 
ATOM      3  C   UNL     1      -6.842   0.957  -1.571  0.00  0.00    +0.000 A 
ATOM      4  C   UNL     1      -7.784   0.119  -0.984  0.00  0.00    +0.000 A 
ATOM      5  C   UNL     1      -7.370  -0.897  -0.121  0.00  0.00    +0.000 A 
ATOM      6  C   UNL     1      -6.005  -1.092   0.169  0.00  0.00    +0.000 A 
ENDROOT
BRANCH   6   7
ATOM      7  C   UNL     1      -5.596  -2.200   1.102  0.00  0.00    +0.000 C 
ATOM      8  F   UNL     1      -4.945  -1.740   2.205  0.00  0.00    +0.000 F 
ATOM      9  F   UNL     1      -6.643  -2.934   1.572  0.00  0.00    +0.000 F 
ATOM     10  F   UNL     1      -4.756  -3.096   0.514  0.00  0.00    +0.000 F 
ENDBRANCH   6   7
BRANCH   1  12
ATOM     11  N   UNL     1      -2.734   0.383  -0.745  0.00  0.00    +0.000 NA
ATOM     12  C   UNL     1      -3.607  -0.383  -0.168  0.00  0.00    +0.000 C 
BRANCH  11  16
ATOM     13  C   UNL     1       1.292  -0.307   0.240  0.00  0.00    +0.000 A 
ATOM     14  C   UNL     1       0.682  -1.062  -0.761  0.00  0.00    +0.000 A 
ATOM     15  C   UNL     1      -0.656  -0.833  -1.089  0.00  0.00    +0.000 A 
ATOM     16  C   UNL     1      -1.393   0.142  -0.412  0.00  0.00    +0.000 A 
ATOM     17  C   UNL     1      -0.770   0.905   0.579  0.00  0.00    +0.000 A 
ATOM     18  C   UNL     1       0.567   0.679   0.909  0.00  0.00    +0.000 A 
ENDBRANCH  11  16
ENDBRANCH   1  12
TORSDOF 3
