REMARK  Name = *****
REMARK  3 active torsions:
REMARK  status: ('A' for Active; 'I' for Inactive)
REMARK    1  A    between atoms: C_4  and  C_8
REMARK    2  A    between atoms: C_9  and  C_10
REMARK    3  A    between atoms: C_13  and  C_16
REMARK                            x       y       z     vdW  Elec       q    Type
REMARK                         _______ _______ _______ _____ _____    ______ ____
ROOT
ATOM      1  C   UNL     1      -1.557  -5.387  -0.162  0.00  0.00    +0.000 A 
ATOM      2  C   UNL     1      -0.585  -6.371   0.026  0.00  0.00    +0.000 A 
ATOM      3  C   UNL     1      -0.933  -7.723  -0.045  0.00  0.00    +0.000 A 
ATOM      4  C   UNL     1      -2.260  -8.105  -0.298  0.00  0.00    +0.000 A 
ATOM      5  C   UNL     1      -3.227  -7.106  -0.494  0.00  0.00    +0.000 A 
ATOM      6  C   UNL     1      -2.878  -5.755  -0.423  0.00  0.00    +0.000 A 
ENDROOT
BRANCH   4   7
ATOM      7  C   UNL     1      -2.637  -9.563  -0.398  0.00  0.00    +0.000 C 
ATOM      8  F   UNL     1      -1.799 -10.386   0.292  0.00  0.00    +0.000 F 
ATOM      9  F   UNL     1      -3.887  -9.823   0.079  0.00  0.00    +0.000 F 
ATOM     10  F   UNL     1      -2.628 -10.013  -1.683  0.00  0.00    +0.000 F 
ENDBRANCH   4   7
BRANCH   1  12
ATOM     11  C   UNL     1      -0.873  -2.850  -0.025  0.00  0.00    +0.000 C 
ATOM     12  C   UNL     1      -1.196  -4.006  -0.089  0.00  0.00    +0.000 C 
BRANCH  11  16
ATOM     13  C   UNL     1       0.378   1.244  -0.317  0.00  0.00    +0.000 C 
ATOM     14  C   UNL     1      -1.068   0.960   0.073  0.00  0.00    +0.000 C 
ATOM     15  C   UNL     1      -1.388  -0.504   0.029  0.00  0.00    +0.000 C 
ATOM     16  C   UNL     1      -0.472  -1.487   0.052  0.00  0.00    +0.000 C 
ATOM     17  C   UNL     1       0.979  -1.135   0.196  0.00  0.00    +0.000 C 
ATOM     18  O   UNL     1       1.848  -2.007   0.210  0.00  0.00    +0.000 OA
ATOM     19  C   UNL     1       1.338   0.321   0.415  0.00  0.00    +0.000 C 
ENDBRANCH  11  16
ENDBRANCH   1  12
TORSDOF 3
