REMARK  Name = *****
REMARK  4 active torsions:
REMARK  status: ('A' for Active; 'I' for Inactive)
REMARK    1  A    between atoms: C_5  and  O_7
REMARK    2  A    between atoms: O_7  and  C_8
REMARK    3  A    between atoms: C_8  and  C_10
REMARK    4  A    between atoms: C_12  and  C_16
REMARK                            x       y       z     vdW  Elec       q    Type
REMARK                         _______ _______ _______ _____ _____    ______ ____
ROOT
ATOM      1  C   UNL     1      -2.189  -2.402   0.445  0.00  0.00    +0.000 C 
ATOM      2  O   UNL     1      -2.430  -1.439  -0.268  0.00  0.00    +0.000 OA
ENDROOT
BRANCH   1   3
ATOM      3  C   UNL     1      -2.691  -3.775   0.155  0.00  0.00    +0.000 A 
ATOM      4  C   UNL     1      -2.434  -4.871   0.992  0.00  0.00    +0.000 A 
ATOM      5  C   UNL     1      -2.926  -6.150   0.673  0.00  0.00    +0.000 A 
ATOM      6  C   UNL     1      -3.695  -6.312  -0.489  0.00  0.00    +0.000 A 
ATOM      7  C   UNL     1      -3.957  -5.225  -1.324  0.00  0.00    +0.000 A 
ATOM      8  C   UNL     1      -3.456  -3.963  -1.004  0.00  0.00    +0.000 A 
BRANCH   5   9
ATOM      9  C   UNL     1      -2.661  -7.320   1.590  0.00  0.00    +0.000 C 
ATOM     10  F   UNL     1      -1.431  -7.264   2.174  0.00  0.00    +0.000 F 
ATOM     11  F   UNL     1      -3.558  -7.390   2.610  0.00  0.00    +0.000 F 
ATOM     12  F   UNL     1      -2.716  -8.523   0.956  0.00  0.00    +0.000 F 
ENDBRANCH   5   9
ENDBRANCH   1   3
BRANCH   1  13
ATOM     13  O   UNL     1      -1.426  -2.417   1.596  0.00  0.00    +0.000 OA
BRANCH  13  18
ATOM     14  C   UNL     1       0.727   0.539   1.935  0.00  0.00    +0.000 A 
ATOM     15  C   UNL     1      -0.057   1.354   2.755  0.00  0.00    +0.000 A 
ATOM     16  C   UNL     1      -1.310   0.914   3.193  0.00  0.00    +0.000 A 
ATOM     17  C   UNL     1      -1.782  -0.340   2.806  0.00  0.00    +0.000 A 
ATOM     18  C   UNL     1      -0.999  -1.140   1.969  0.00  0.00    +0.000 A 
ATOM     19  C   UNL     1       0.261  -0.716   1.544  0.00  0.00    +0.000 A 
ATOM     20 CL   UNL     1      -3.315  -0.875   3.388  0.00  0.00    +0.000 Cl
ENDBRANCH  13  18
ENDBRANCH   1  13
TORSDOF 4
