REMARK  Name = *****
REMARK  3 active torsions:
REMARK  status: ('A' for Active; 'I' for Inactive)
REMARK    1  A    between atoms: C_1  and  C_2
REMARK    2  A    between atoms: C_5  and  S_8
REMARK    3  A    between atoms: S_8  and  C_9
REMARK                            x       y       z     vdW  Elec       q    Type
REMARK                         _______ _______ _______ _____ _____    ______ ____
ROOT
ATOM      1  S   UNL     1      -3.692  -0.054  -0.347  0.00  0.00    +0.000 S 
ENDROOT
BRANCH   1   6
ATOM      2  C   UNL     1       2.395   0.069  -0.247  0.00  0.00    +0.000 C 
ATOM      3  C   UNL     1       0.896   0.014  -0.272  0.00  0.00    +0.000 A 
ATOM      4  C   UNL     1       0.169  -0.139   0.914  0.00  0.00    +0.000 A 
ATOM      5  C   UNL     1      -1.228  -0.159   0.891  0.00  0.00    +0.000 A 
ATOM      6  C   UNL     1      -1.917   0.002  -0.314  0.00  0.00    +0.000 A 
ATOM      7  C   UNL     1      -1.194   0.144  -1.501  0.00  0.00    +0.000 A 
ATOM      8  C   UNL     1       0.203   0.164  -1.479  0.00  0.00    +0.000 A 
ENDBRANCH   1   6
BRANCH   1   9
ATOM      9  C   UNL     1      -4.184   1.692  -0.063  0.00  0.00    +0.000 C 
ATOM     10  C   UNL     1      -3.913   2.669  -1.246  0.00  0.00    +0.000 C 
ATOM     11  C   UNL     1      -3.337   3.912  -0.529  0.00  0.00    +0.000 C 
ATOM     12  C   UNL     1      -2.426   3.253   0.509  0.00  0.00    +0.000 C 
ATOM     13  C   UNL     1      -3.563   2.443   1.146  0.00  0.00    +0.000 C 
ATOM     14  C   UNL     1      -4.499   3.605   1.433  0.00  0.00    +0.000 C 
ATOM     15  C   UNL     1      -4.380   4.470   0.413  0.00  0.00    +0.000 C 
ENDBRANCH   1   9
TORSDOF 2
