REMARK  Name = *****
REMARK  4 active torsions:
REMARK  status: ('A' for Active; 'I' for Inactive)
REMARK    1  A    between atoms: C_1  and  C_2
REMARK    2  A    between atoms: C_7  and  O_8
REMARK    3  A    between atoms: O_8  and  C_9
REMARK    4  A    between atoms: C_9  and  C_11
REMARK                            x       y       z     vdW  Elec       q    Type
REMARK                         _______ _______ _______ _____ _____    ______ ____
ROOT
ATOM      1  C   UNL     1       2.116  -2.578  -0.145  0.00  0.00    +0.000 C 
ATOM      2  O   UNL     1       2.341  -2.271   1.016  0.00  0.00    +0.000 OA
ENDROOT
BRANCH   1   3
ATOM      3  C   UNL     1       2.833  -3.682  -0.844  0.00  0.00    +0.000 A 
ATOM      4  C   UNL     1       3.833  -4.369  -0.136  0.00  0.00    +0.000 A 
ATOM      5  C   UNL     1       4.537  -5.412  -0.742  0.00  0.00    +0.000 A 
ATOM      6  C   UNL     1       4.240  -5.767  -2.052  0.00  0.00    +0.000 A 
ATOM      7  C   UNL     1       3.253  -5.101  -2.769  0.00  0.00    +0.000 A 
ATOM      8  C   UNL     1       2.546  -4.056  -2.167  0.00  0.00    +0.000 A 
ATOM      9  F   UNL     1       4.915  -6.767  -2.634  0.00  0.00    +0.000 F 
ENDBRANCH   1   3
BRANCH   1  10
ATOM     10  O   UNL     1       1.210  -1.994  -1.009  0.00  0.00    +0.000 OA
BRANCH  10  17
ATOM     11  C   UNL     1       2.184   0.690  -1.390  0.00  0.00    +0.000 C 
ATOM     12  C   UNL     1       0.924   0.382  -0.638  0.00  0.00    +0.000 A 
ATOM     13  C   UNL     1       0.161   1.416  -0.079  0.00  0.00    +0.000 A 
ATOM     14  C   UNL     1      -1.009   1.132   0.633  0.00  0.00    +0.000 A 
ATOM     15  C   UNL     1      -1.430  -0.187   0.798  0.00  0.00    +0.000 A 
ATOM     16  C   UNL     1      -0.679  -1.229   0.258  0.00  0.00    +0.000 A 
ATOM     17  C   UNL     1       0.497  -0.936  -0.435  0.00  0.00    +0.000 A 
ENDBRANCH  10  17
ENDBRANCH   1  10
TORSDOF 3
