REMARK  Name = *****
REMARK  5 active torsions:
REMARK  status: ('A' for Active; 'I' for Inactive)
REMARK    1  A    between atoms: C_1  and  C_2
REMARK    2  A    between atoms: C_2  and  C_3
REMARK    3  A    between atoms: C_2  and  C_9
REMARK    4  A    between atoms: C_9  and  C_10
REMARK    5  A    between atoms: C_9  and  C_16
REMARK                            x       y       z     vdW  Elec       q    Type
REMARK                         _______ _______ _______ _____ _____    ______ ____
ROOT
ATOM      1  C   UNL     1       3.233  -0.722  -1.456  0.00  0.00    +0.000 C 
ENDROOT
BRANCH   1   2
ATOM      2  C   UNL     1       2.488  -1.927  -2.019  0.00  0.00    +0.000 A 
ATOM      3  C   UNL     1       1.315  -1.786  -2.777  0.00  0.00    +0.000 A 
ATOM      4  C   UNL     1       0.656  -2.908  -3.282  0.00  0.00    +0.000 A 
ATOM      5  C   UNL     1       1.157  -4.184  -3.036  0.00  0.00    +0.000 A 
ATOM      6  C   UNL     1       2.319  -4.340  -2.285  0.00  0.00    +0.000 A 
ATOM      7  C   UNL     1       2.981  -3.220  -1.780  0.00  0.00    +0.000 A 
ENDBRANCH   1   2
BRANCH   1   8
ATOM      8  C   UNL     1       3.375   0.401  -2.492  0.00  0.00    +0.000 C 
ATOM      9  O   UNL     1       2.685   1.418  -2.474  0.00  0.00    +0.000 OA
ATOM     10 CL   UNL     1       4.611   0.065  -3.683  0.00  0.00    +0.000 Cl
ENDBRANCH   1   8
BRANCH   1  12
ATOM     11  C   UNL     1       1.178   0.085  -0.048  0.00  0.00    +0.000 C 
ATOM     12  C   UNL     1       2.692  -0.172  -0.099  0.00  0.00    +0.000 C 
BRANCH  12  13
ATOM     13  C   UNL     1       3.172  -1.030   1.071  0.00  0.00    +0.000 A 
ATOM     14  C   UNL     1       4.368  -0.691   1.726  0.00  0.00    +0.000 A 
ATOM     15  C   UNL     1       4.851  -1.467   2.781  0.00  0.00    +0.000 A 
ATOM     16  C   UNL     1       4.149  -2.597   3.194  0.00  0.00    +0.000 A 
ATOM     17  C   UNL     1       2.966  -2.950   2.552  0.00  0.00    +0.000 A 
ATOM     18  C   UNL     1       2.481  -2.174   1.497  0.00  0.00    +0.000 A 
ENDBRANCH  12  13
ENDBRANCH   1  12
TORSDOF 4
