REMARK  Name = *****
REMARK  3 active torsions:
REMARK  status: ('A' for Active; 'I' for Inactive)
REMARK    1  A    between atoms: C_4  and  C_7
REMARK    2  A    between atoms: C_8  and  C_9
REMARK    3  A    between atoms: C_8  and  C_11
REMARK                            x       y       z     vdW  Elec       q    Type
REMARK                         _______ _______ _______ _____ _____    ______ ____
ROOT
ATOM      1  C   UNL     1      -2.833   0.218  -0.359  0.00  0.00    +0.000 C 
ATOM      2  C   UNL     1      -3.733  -0.772  -0.190  0.00  0.00    +0.000 C 
ENDROOT
BRANCH   2   3
ATOM      3  C   UNL     1      -5.162  -0.472  -0.392  0.00  0.00    +0.000 A 
ATOM      4  C   UNL     1      -5.665  -0.132  -1.651  0.00  0.00    +0.000 A 
ATOM      5  C   UNL     1      -7.019   0.140  -1.846  0.00  0.00    +0.000 A 
ATOM      6  C   UNL     1      -7.902   0.072  -0.770  0.00  0.00    +0.000 A 
ATOM      7  C   UNL     1      -7.423  -0.267   0.494  0.00  0.00    +0.000 A 
ATOM      8  C   UNL     1      -6.066  -0.536   0.673  0.00  0.00    +0.000 A 
ATOM      9  F   UNL     1      -5.635  -0.848   1.904  0.00  0.00    +0.000 F 
ATOM     10  F   UNL     1      -4.843  -0.064  -2.710  0.00  0.00    +0.000 F 
ENDBRANCH   2   3
BRANCH   1  14
ATOM     11  C   UNL     1       1.396  -0.080   0.140  0.00  0.00    +0.000 A 
ATOM     12  C   UNL     1       0.763  -0.834  -0.847  0.00  0.00    +0.000 A 
ATOM     13  C   UNL     1      -0.621  -0.746  -1.016  0.00  0.00    +0.000 A 
ATOM     14  C   UNL     1      -1.380   0.092  -0.191  0.00  0.00    +0.000 A 
ATOM     15  C   UNL     1      -0.736   0.854   0.790  0.00  0.00    +0.000 A 
ATOM     16  C   UNL     1       0.647   0.765   0.957  0.00  0.00    +0.000 A 
ENDBRANCH   1  14
BRANCH   2  17
ATOM     17  C   UNL     1      -3.367  -2.098   0.202  0.00  0.00    +0.000 C 
ATOM     18  N   UNL     1      -3.093  -3.186   0.501  0.00  0.00    +0.000 NA
ENDBRANCH   2  17
TORSDOF 3
