REMARK  Name = *****
REMARK  2 active torsions:
REMARK  status: ('A' for Active; 'I' for Inactive)
REMARK    1  A    between atoms: C_1  and  C_2
REMARK    2  A    between atoms: C_3  and  C_11
REMARK                            x       y       z     vdW  Elec       q    Type
REMARK                         _______ _______ _______ _____ _____    ______ ____
ROOT
ATOM      1  C   UNL     1       0.903   0.081   0.055  0.00  0.00    +0.000 C 
ATOM      2  C   UNL     1       2.383  -0.045   0.054  0.00  0.00    +0.000 C 
ATOM      3  C   UNL     1       3.163  -1.145   0.046  0.00  0.00    +0.000 C 
ATOM      4  C   UNL     1       4.642  -0.829   0.048  0.00  0.00    +0.000 C 
ATOM      5  C   UNL     1       4.608   0.669   0.059  0.00  0.00    +0.000 A 
ATOM      6  C   UNL     1       5.670   1.559   0.065  0.00  0.00    +0.000 A 
ATOM      7  C   UNL     1       5.383   2.925   0.074  0.00  0.00    +0.000 A 
ATOM      8  C   UNL     1       4.053   3.377   0.077  0.00  0.00    +0.000 A 
ATOM      9  C   UNL     1       2.990   2.469   0.071  0.00  0.00    +0.000 A 
ATOM     10  C   UNL     1       3.278   1.114   0.062  0.00  0.00    +0.000 A 
ENDROOT
BRANCH   3  11
ATOM     11  C   UNL     1       2.709  -2.529   0.037  0.00  0.00    +0.000 A 
ATOM     12  C   UNL     1       2.484  -3.188  -1.179  0.00  0.00    +0.000 A 
ATOM     13  C   UNL     1       2.038  -4.510  -1.186  0.00  0.00    +0.000 A 
ATOM     14  C   UNL     1       1.817  -5.166   0.020  0.00  0.00    +0.000 A 
ATOM     15  C   UNL     1       2.031  -4.524   1.234  0.00  0.00    +0.000 A 
ATOM     16  C   UNL     1       2.477  -3.201   1.244  0.00  0.00    +0.000 A 
ATOM     17  F   UNL     1       1.388  -6.434   0.011  0.00  0.00    +0.000 F 
ENDBRANCH   3  11
TORSDOF 1
