REMARK  Name = *****
REMARK  2 active torsions:
REMARK  status: ('A' for Active; 'I' for Inactive)
REMARK    1  A    between atoms: C_4  and  O_7
REMARK    2  A    between atoms: O_7  and  C_8
REMARK                            x       y       z     vdW  Elec       q    Type
REMARK                         _______ _______ _______ _____ _____    ______ ____
ROOT
ATOM      1  O   UNL     1       2.757  -0.421  -0.307  0.00  0.00    +0.000 OA
ENDROOT
BRANCH   1   2
ATOM      2  C   UNL     1       3.559  -1.320   0.341  0.00  0.00    +0.000 C 
ATOM      3  C   UNL     1       4.631  -1.882  -0.237  0.00  0.00    +0.000 C 
ATOM      4  C   UNL     1       5.509  -2.864   0.499  0.00  0.00    +0.000 C 
ATOM      5  C   UNL     1       5.618  -4.192  -0.260  0.00  0.00    +0.000 C 
ATOM      6  C   UNL     1       5.810  -4.012  -1.740  0.00  0.00    +0.000 C 
ATOM      7  C   UNL     1       5.563  -2.848  -2.362  0.00  0.00    +0.000 C 
ATOM      8  C   UNL     1       5.041  -1.616  -1.668  0.00  0.00    +0.000 C 
ENDBRANCH   1   2
BRANCH   1  12
ATOM      9  C   UNL     1      -1.457   0.075  -0.244  0.00  0.00    +0.000 C 
ATOM     10  C   UNL     1      -0.898  -1.266   0.222  0.00  0.00    +0.000 C 
ATOM     11  C   UNL     1       0.551  -1.455  -0.215  0.00  0.00    +0.000 C 
ATOM     12  C   UNL     1       1.441  -0.295   0.248  0.00  0.00    +0.000 C 
ATOM     13  C   UNL     1       0.872   1.043  -0.236  0.00  0.00    +0.000 C 
ATOM     14  C   UNL     1      -0.575   1.238   0.202  0.00  0.00    +0.000 C 
ENDBRANCH   1  12
TORSDOF 2
