REMARK  Name = *****
REMARK  6 active torsions:
REMARK  status: ('A' for Active; 'I' for Inactive)
REMARK    1  A    between atoms: C_1  and  C_2
REMARK    2  A    between atoms: C_2  and  O_3
REMARK    3  A    between atoms: O_3  and  C_4
REMARK    4  A    between atoms: C_7  and  C_9
REMARK    5  A    between atoms: C_9  and  C_10
REMARK    6  A    between atoms: C_10  and  C_11
REMARK                            x       y       z     vdW  Elec       q    Type
REMARK                         _______ _______ _______ _____ _____    ______ ____
ROOT
ATOM      1  C   UNL     1       4.260  -1.012   1.298  0.00  0.00    +0.000 C 
ATOM      2  C   UNL     1       5.140  -0.003   1.312  0.00  0.00    +0.000 C 
ATOM      3  C   UNL     1       6.541  -0.512   1.420  0.00  0.00    +0.000 C 
ATOM      4  C   UNL     1       6.358  -1.981   1.853  0.00  0.00    +0.000 C 
ATOM      5  C   UNL     1       4.933  -2.345   1.397  0.00  0.00    +0.000 C 
ENDROOT
BRANCH   1   6
ATOM      6  O   UNL     1       2.901  -0.996   1.202  0.00  0.00    +0.000 OA
BRANCH   6   8
ATOM      7  C   UNL     1       0.785   0.089   1.028  0.00  0.00    +0.000 C 
ATOM      8  C   UNL     1       2.286   0.289   1.116  0.00  0.00    +0.000 C 
ENDBRANCH   6   8
ENDBRANCH   1   6
BRANCH   4   9
ATOM      9  C   UNL     1       6.555  -2.132   3.376  0.00  0.00    +0.000 C 
BRANCH   9  10
ATOM     10  C   UNL     1       6.569  -3.597   3.829  0.00  0.00    +0.000 C 
BRANCH  10  11
ATOM     11  C   UNL     1       6.838  -3.717   5.309  0.00  0.00    +0.000 A 
ATOM     12  C   UNL     1       5.794  -3.572   6.233  0.00  0.00    +0.000 A 
ATOM     13  C   UNL     1       6.043  -3.666   7.603  0.00  0.00    +0.000 A 
ATOM     14  C   UNL     1       7.338  -3.902   8.062  0.00  0.00    +0.000 A 
ATOM     15  C   UNL     1       8.384  -4.042   7.152  0.00  0.00    +0.000 A 
ATOM     16  C   UNL     1       8.137  -3.947   5.781  0.00  0.00    +0.000 A 
ENDBRANCH  10  11
ENDBRANCH   9  10
ENDBRANCH   4   9
TORSDOF 5
