REMARK  Name = *****
REMARK  3 active torsions:
REMARK  status: ('A' for Active; 'I' for Inactive)
REMARK    1  A    between atoms: C_5  and  C_7
REMARK    2  A    between atoms: C_7  and  C_8
REMARK    3  A    between atoms: C_8  and  C_10
REMARK                            x       y       z     vdW  Elec       q    Type
REMARK                         _______ _______ _______ _____ _____    ______ ____
ROOT
ATOM      1  C   UNL     1      -1.287  -0.282  -2.241  0.00  0.00    +0.000 C 
ATOM      2 CL   UNL     1       0.316  -0.381  -3.026  0.00  0.00    +0.000 Cl
ENDROOT
BRANCH   1   7
ATOM      3  C   UNL     1       0.710   1.287  -0.029  0.00  0.00    +0.000 C 
ATOM      4  C   UNL     1       1.387   0.154   0.731  0.00  0.00    +0.000 C 
ATOM      5  C   UNL     1       1.038  -1.218   0.163  0.00  0.00    +0.000 C 
ATOM      6  C   UNL     1      -0.475  -1.411   0.053  0.00  0.00    +0.000 C 
ATOM      7  C   UNL     1      -1.240  -0.285  -0.684  0.00  0.00    +0.000 C 
ATOM      8  C   UNL     1      -0.801   1.089  -0.122  0.00  0.00    +0.000 C 
ATOM      9 CL   UNL     1      -0.849  -3.040  -0.561  0.00  0.00    +0.000 Cl
ENDBRANCH   1   7
BRANCH   1  10
ATOM     10  C   UNL     1      -2.228  -1.325  -2.866  0.00  0.00    +0.000 C 
ATOM     11  O   UNL     1      -1.874  -2.168  -3.689  0.00  0.00    +0.000 OA
BRANCH  10  12
ATOM     12  C   UNL     1      -3.670  -1.310  -2.486  0.00  0.00    +0.000 A 
ATOM     13  C   UNL     1      -4.356  -0.123  -2.202  0.00  0.00    +0.000 A 
ATOM     14  C   UNL     1      -5.707  -0.168  -1.847  0.00  0.00    +0.000 A 
ATOM     15  C   UNL     1      -6.375  -1.390  -1.782  0.00  0.00    +0.000 A 
ATOM     16  C   UNL     1      -5.699  -2.572  -2.079  0.00  0.00    +0.000 A 
ATOM     17  C   UNL     1      -4.351  -2.533  -2.435  0.00  0.00    +0.000 A 
ENDBRANCH  10  12
ENDBRANCH   1  10
TORSDOF 3
