REMARK  Name = *****
REMARK  2 active torsions:
REMARK  status: ('A' for Active; 'I' for Inactive)
REMARK    1  A    between atoms: C_4  and  C_7
REMARK    2  A    between atoms: C_8  and  C_9
REMARK                            x       y       z     vdW  Elec       q    Type
REMARK                         _______ _______ _______ _____ _____    ______ ____
ROOT
ATOM      1  C   UNL     1      -2.773   0.416  -0.296  0.00  0.00    +0.000 C 
ATOM      2  C   UNL     1      -3.702  -0.554  -0.318  0.00  0.00    +0.000 C 
ENDROOT
BRANCH   2   3
ATOM      3  C   UNL     1      -5.131  -0.317  -0.514  0.00  0.00    +0.000 A 
ATOM      4  C   UNL     1      -5.730   0.895  -0.618  0.00  0.00    +0.000 A 
ATOM      5  C   UNL     1      -7.010   1.447  -0.803  0.00  0.00    +0.000 A 
ATOM      6  C   UNL     1      -7.801   0.344  -0.886  0.00  0.00    +0.000 A 
ATOM      7  C   UNL     1      -7.390  -1.022  -0.800  0.00  0.00    +0.000 A 
ATOM      8  C   UNL     1      -6.045  -1.346  -0.611  0.00  0.00    +0.000 A 
ATOM      9  O   UNL     1      -5.863   2.138  -0.661  0.00  0.00    +0.000 OA
ENDBRANCH   2   3
BRANCH   1  13
ATOM     10  C   UNL     1       1.438  -0.155   0.220  0.00  0.00    +0.000 A 
ATOM     11  C   UNL     1       0.697  -1.110  -0.472  0.00  0.00    +0.000 A 
ATOM     12  C   UNL     1      -0.680  -0.942  -0.640  0.00  0.00    +0.000 A 
ATOM     13  C   UNL     1      -1.333   0.177  -0.107  0.00  0.00    +0.000 A 
ATOM     14  C   UNL     1      -0.573   1.138   0.574  0.00  0.00    +0.000 A 
ATOM     15  C   UNL     1       0.804   0.970   0.742  0.00  0.00    +0.000 A 
ENDBRANCH   1  13
TORSDOF 2
