REMARK  Name = *****
REMARK  5 active torsions:
REMARK  status: ('A' for Active; 'I' for Inactive)
REMARK    1  A    between atoms: C_1  and  C_2
REMARK    2  A    between atoms: C_4  and  C_8
REMARK    3  A    between atoms: C_8  and  C_9
REMARK    4  A    between atoms: C_8  and  C_10
REMARK    5  A    between atoms: C_10  and  C_11
REMARK                            x       y       z     vdW  Elec       q    Type
REMARK                         _______ _______ _______ _____ _____    ______ ____
ROOT
ATOM      1  C   UNL     1      -1.750   2.496  -0.038  0.00  0.00    +0.000 C 
ATOM      2  C   UNL     1      -2.447   2.425   1.335  0.00  0.00    +0.000 C 
ENDROOT
BRANCH   1   6
ATOM      3  C   UNL     1      -2.468  -2.497  -0.604  0.00  0.00    +0.000 C 
ATOM      4  C   UNL     1      -1.631  -1.274  -0.840  0.00  0.00    +0.000 A 
ATOM      5  C   UNL     1      -2.034  -0.020  -0.352  0.00  0.00    +0.000 A 
ATOM      6  C   UNL     1      -1.267   1.142  -0.565  0.00  0.00    +0.000 A 
ATOM      7  C   UNL     1      -0.100   1.011  -1.336  0.00  0.00    +0.000 A 
ATOM      8  C   UNL     1       0.306  -0.231  -1.833  0.00  0.00    +0.000 A 
ATOM      9  C   UNL     1      -0.455  -1.369  -1.585  0.00  0.00    +0.000 A 
ENDBRANCH   1   6
BRANCH   1  10
ATOM     10  C   UNL     1      -0.734   3.674  -0.049  0.00  0.00    +0.000 C 
BRANCH  10  11
ATOM     11  C   UNL     1       0.409   3.719   0.948  0.00  0.00    +0.000 A 
ATOM     12  C   UNL     1       0.932   2.592   1.593  0.00  0.00    +0.000 A 
ATOM     13  C   UNL     1       2.008   2.706   2.479  0.00  0.00    +0.000 A 
ATOM     14  C   UNL     1       2.583   3.949   2.727  0.00  0.00    +0.000 A 
ATOM     15  C   UNL     1       2.087   5.079   2.087  0.00  0.00    +0.000 A 
ATOM     16  C   UNL     1       1.013   4.963   1.201  0.00  0.00    +0.000 A 
ENDBRANCH  10  11
ENDBRANCH   1  10
TORSDOF 3
