REMARK  Name = *****
REMARK  4 active torsions:
REMARK  status: ('A' for Active; 'I' for Inactive)
REMARK    1  A    between atoms: C_1  and  C_2
REMARK    2  A    between atoms: C_5  and  C_8
REMARK    3  A    between atoms: C_8  and  C_10
REMARK    4  A    between atoms: C_10  and  C_11
REMARK                            x       y       z     vdW  Elec       q    Type
REMARK                         _______ _______ _______ _____ _____    ______ ____
ROOT
ATOM      1  C   UNL     1      -3.215   0.006  -0.388  0.00  0.00    +0.000 C 
ATOM      2  O   UNL     1      -3.667  -1.049  -0.826  0.00  0.00    +0.000 OA
ENDROOT
BRANCH   1   7
ATOM      3  C   UNL     1       2.552   0.563   0.115  0.00  0.00    +0.000 C 
ATOM      4  C   UNL     1       1.065   0.414  -0.017  0.00  0.00    +0.000 A 
ATOM      5  C   UNL     1       0.485  -0.818  -0.339  0.00  0.00    +0.000 A 
ATOM      6  C   UNL     1      -0.904  -0.938  -0.457  0.00  0.00    +0.000 A 
ATOM      7  C   UNL     1      -1.733   0.172  -0.250  0.00  0.00    +0.000 A 
ATOM      8  C   UNL     1      -1.151   1.404   0.073  0.00  0.00    +0.000 A 
ATOM      9  C   UNL     1       0.237   1.522   0.189  0.00  0.00    +0.000 A 
ENDBRANCH   1   7
BRANCH   1  10
ATOM     10  C   UNL     1      -4.099   1.179   0.010  0.00  0.00    +0.000 C 
BRANCH  10  11
ATOM     11  C   UNL     1      -5.615   0.920  -0.033  0.00  0.00    +0.000 C 
ATOM     12  C   UNL     1      -6.345   2.262   0.169  0.00  0.00    +0.000 C 
ATOM     13  C   UNL     1      -7.860   2.107   0.242  0.00  0.00    +0.000 C 
ATOM     14  C   UNL     1      -8.267   1.096   1.306  0.00  0.00    +0.000 C 
ATOM     15  C   UNL     1      -7.581  -0.246   1.082  0.00  0.00    +0.000 C 
ATOM     16  C   UNL     1      -6.060  -0.098   1.032  0.00  0.00    +0.000 C 
ENDBRANCH  10  11
ENDBRANCH   1  10
TORSDOF 3
