REMARK  Name = *****
REMARK  4 active torsions:
REMARK  status: ('A' for Active; 'I' for Inactive)
REMARK    1  A    between atoms: C_1  and  C_2
REMARK    2  A    between atoms: C_2  and  C_8
REMARK    3  A    between atoms: C_8  and  S_11
REMARK    4  A    between atoms: S_11  and  C_12
REMARK                            x       y       z     vdW  Elec       q    Type
REMARK                         _______ _______ _______ _____ _____    ______ ____
ROOT
ATOM      1  C   UNL     1       2.331   0.068  -1.458  0.00  0.00    +0.000 C 
ATOM      2  C   UNL     1       1.886  -1.215  -2.168  0.00  0.00    +0.000 C 
ATOM      3  C   UNL     1       3.261  -0.686  -2.411  0.00  0.00    +0.000 C 
ENDROOT
BRANCH   1   5
ATOM      4  C   UNL     1       1.120  -0.206   0.765  0.00  0.00    +0.000 C 
ATOM      5  C   UNL     1       2.487  -0.004   0.090  0.00  0.00    +0.000 C 
ATOM      6  C   UNL     1       3.472  -1.050   0.610  0.00  0.00    +0.000 C 
ATOM      7  C   UNL     1       4.796  -0.323   0.625  0.00  0.00    +0.000 C 
ATOM      8  C   UNL     1       4.371   1.093   0.835  0.00  0.00    +0.000 C 
ATOM      9  O   UNL     1       5.110   2.010   1.153  0.00  0.00    +0.000 OA
ATOM     10  O   UNL     1       3.041   1.234   0.583  0.00  0.00    +0.000 OA
ENDBRANCH   1   5
BRANCH   1  11
ATOM     11  S   UNL     1       1.487   1.544  -2.039  0.00  0.00    +0.000 S 
BRANCH  11  12
ATOM     12  C   UNL     1       2.750   2.298  -3.045  0.00  0.00    +0.000 A 
ATOM     13  C   UNL     1       2.566   2.354  -4.432  0.00  0.00    +0.000 A 
ATOM     14  C   UNL     1       3.532   2.942  -5.251  0.00  0.00    +0.000 A 
ATOM     15  C   UNL     1       4.684   3.487  -4.687  0.00  0.00    +0.000 A 
ATOM     16  C   UNL     1       4.864   3.452  -3.304  0.00  0.00    +0.000 A 
ATOM     17  C   UNL     1       3.896   2.867  -2.485  0.00  0.00    +0.000 A 
ENDBRANCH  11  12
ENDBRANCH   1  11
TORSDOF 3
