REMARK  Name = *****
REMARK  4 active torsions:
REMARK  status: ('A' for Active; 'I' for Inactive)
REMARK    1  A    between atoms: C_6  and  O_7
REMARK    2  A    between atoms: O_7  and  C_8
REMARK    3  A    between atoms: C_8  and  O_10
REMARK    4  A    between atoms: O_10  and  C_11
REMARK                            x       y       z     vdW  Elec       q    Type
REMARK                         _______ _______ _______ _____ _____    ______ ____
ROOT
ATOM      1  C   UNL     1      -3.989   0.515   0.985  0.00  0.00    +0.000 C 
ATOM      2  O   UNL     1      -3.654   1.677   1.175  0.00  0.00    +0.000 OA
ENDROOT
BRANCH   1   3
ATOM      3  O   UNL     1      -3.179  -0.506   0.505  0.00  0.00    +0.000 OA
BRANCH   3   9
ATOM      4  C   UNL     1      -0.992   0.218   1.288  0.00  0.00    +0.000 A 
ATOM      5  C   UNL     1       0.339   0.513   0.996  0.00  0.00    +0.000 A 
ATOM      6  C   UNL     1       0.791   0.422  -0.318  0.00  0.00    +0.000 A 
ATOM      7  C   UNL     1      -0.061   0.036  -1.349  0.00  0.00    +0.000 A 
ATOM      8  C   UNL     1      -1.394  -0.259  -1.065  0.00  0.00    +0.000 A 
ATOM      9  C   UNL     1      -1.852  -0.147   0.249  0.00  0.00    +0.000 A 
ATOM     10  F   UNL     1       2.072   0.701  -0.594  0.00  0.00    +0.000 F 
ENDBRANCH   3   9
ENDBRANCH   1   3
BRANCH   1  11
ATOM     11  O   UNL     1      -5.246  -0.027   1.211  0.00  0.00    +0.000 OA
BRANCH  11  12
ATOM     12  C   UNL     1      -6.156   0.897   1.726  0.00  0.00    +0.000 A 
ATOM     13  C   UNL     1      -6.958   1.627   0.849  0.00  0.00    +0.000 A 
ATOM     14  C   UNL     1      -7.899   2.514   1.371  0.00  0.00    +0.000 A 
ATOM     15  C   UNL     1      -8.029   2.643   2.751  0.00  0.00    +0.000 A 
ATOM     16  C   UNL     1      -7.241   1.898   3.624  0.00  0.00    +0.000 A 
ATOM     17  C   UNL     1      -6.298   1.009   3.110  0.00  0.00    +0.000 A 
ATOM     18  F   UNL     1      -8.937   3.494   3.249  0.00  0.00    +0.000 F 
ENDBRANCH  11  12
ENDBRANCH   1  11
TORSDOF 4
