REMARK  Name = *****
REMARK  5 active torsions:
REMARK  status: ('A' for Active; 'I' for Inactive)
REMARK    1  A    between atoms: C_1  and  C_2
REMARK    2  A    between atoms: C_7  and  C_8
REMARK    3  A    between atoms: C_8  and  C_9
REMARK    4  A    between atoms: C_9  and  C_10
REMARK    5  A    between atoms: C_9  and  C_11
REMARK                            x       y       z     vdW  Elec       q    Type
REMARK                         _______ _______ _______ _____ _____    ______ ____
ROOT
ATOM      1  C   UNL     1       1.112  -2.389   0.036  0.00  0.00    +0.000 C 
ENDROOT
BRANCH   1   8
ATOM      2  C   UNL     1      -1.143  -1.428  -1.758  0.00  0.00    +0.000 C 
ATOM      3  C   UNL     1      -0.570  -0.572  -0.661  0.00  0.00    +0.000 A 
ATOM      4  C   UNL     1      -1.107   0.711  -0.460  0.00  0.00    +0.000 A 
ATOM      5  C   UNL     1      -0.626   1.541   0.553  0.00  0.00    +0.000 A 
ATOM      6  C   UNL     1       0.395   1.098   1.384  0.00  0.00    +0.000 A 
ATOM      7  C   UNL     1       0.937  -0.173   1.200  0.00  0.00    +0.000 A 
ATOM      8  C   UNL     1       0.470  -1.022   0.179  0.00  0.00    +0.000 A 
ENDBRANCH   1   8
BRANCH   1   9
ATOM      9  C   UNL     1       2.555  -2.348  -0.519  0.00  0.00    +0.000 C 
ATOM     10  C   UNL     1       2.610  -1.896  -1.983  0.00  0.00    +0.000 C 
BRANCH   9  11
ATOM     11  C   UNL     1       3.236  -3.700  -0.349  0.00  0.00    +0.000 A 
ATOM     12  C   UNL     1       2.762  -4.851  -0.997  0.00  0.00    +0.000 A 
ATOM     13  C   UNL     1       3.399  -6.081  -0.822  0.00  0.00    +0.000 A 
ATOM     14  C   UNL     1       4.518  -6.177   0.003  0.00  0.00    +0.000 A 
ATOM     15  C   UNL     1       5.000  -5.044   0.653  0.00  0.00    +0.000 A 
ATOM     16  C   UNL     1       4.364  -3.813   0.479  0.00  0.00    +0.000 A 
ENDBRANCH   9  11
ENDBRANCH   1   9
TORSDOF 3
