REMARK  Name = *****
REMARK  3 active torsions:
REMARK  status: ('A' for Active; 'I' for Inactive)
REMARK    1  A    between atoms: C_1  and  C_2
REMARK    2  A    between atoms: C_3  and  N_9
REMARK    3  A    between atoms: C_10  and  C_11
REMARK                            x       y       z     vdW  Elec       q    Type
REMARK                         _______ _______ _______ _____ _____    ______ ____
ROOT
ATOM      1  C   UNL     1       2.969  -0.162   0.343  0.00  0.00    +0.000 C 
ATOM      2  C   UNL     1       1.494  -0.069   0.068  0.00  0.00    +0.000 A 
ATOM      3  C   UNL     1       0.794  -1.169  -0.464  0.00  0.00    +0.000 A 
ATOM      4  C   UNL     1      -0.571  -1.052  -0.740  0.00  0.00    +0.000 A 
ATOM      5  C   UNL     1      -1.236   0.135  -0.459  0.00  0.00    +0.000 A 
ATOM      6  C   UNL     1      -0.563   1.221   0.087  0.00  0.00    +0.000 A 
ATOM      7  C   UNL     1       0.802   1.121   0.350  0.00  0.00    +0.000 A 
ATOM      8  F   UNL     1      -2.546   0.235  -0.717  0.00  0.00    +0.000 F 
ENDROOT
BRANCH   3   9
ATOM      9  N   UNL     1       1.457  -2.370  -0.763  0.00  0.00    +0.000 NA
ATOM     10  C   UNL     1       1.373  -3.303   0.134  0.00  0.00    +0.000 C 
BRANCH  10  11
ATOM     11  C   UNL     1       2.022  -4.616  -0.041  0.00  0.00    +0.000 A 
ATOM     12  C   UNL     1       2.768  -4.899  -1.188  0.00  0.00    +0.000 A 
ATOM     13  C   UNL     1       3.374  -6.149  -1.330  0.00  0.00    +0.000 A 
ATOM     14  C   UNL     1       3.232  -7.111  -0.329  0.00  0.00    +0.000 A 
ATOM     15  C   UNL     1       2.486  -6.827   0.816  0.00  0.00    +0.000 A 
ATOM     16  C   UNL     1       1.879  -5.578   0.963  0.00  0.00    +0.000 A 
ENDBRANCH  10  11
ENDBRANCH   3   9
TORSDOF 2
