REMARK  Name = *****
REMARK  6 active torsions:
REMARK  status: ('A' for Active; 'I' for Inactive)
REMARK    1  A    between atoms: C_1  and  C_2
REMARK    2  A    between atoms: C_2  and  N_3
REMARK    3  A    between atoms: N_3  and  C_4
REMARK    4  A    between atoms: N_3  and  N_18
REMARK    5  A    between atoms: C_9  and  C_10
REMARK    6  A    between atoms: C_11  and  C_12
REMARK                            x       y       z     vdW  Elec       q    Type
REMARK                         _______ _______ _______ _____ _____    ______ ____
ROOT
ATOM      1  C   UNL     1       2.369  -1.952  -2.201  0.00  0.00    +0.000 A 
ATOM      2  C   UNL     1       1.440  -1.526  -3.174  0.00  0.00    +0.000 A 
ATOM      3  C   UNL     1       0.304  -2.280  -3.469  0.00  0.00    +0.000 A 
ATOM      4  C   UNL     1       0.081  -3.484  -2.811  0.00  0.00    +0.000 A 
ATOM      5  C   UNL     1       0.998  -3.940  -1.862  0.00  0.00    +0.000 A 
ATOM      6  C   UNL     1       2.142  -3.187  -1.544  0.00  0.00    +0.000 A 
ENDROOT
BRANCH   6   7
ATOM      7  C   UNL     1       3.141  -3.753  -0.618  0.00  0.00    +0.000 C 
ATOM      8  C   UNL     1       2.831  -4.244   0.593  0.00  0.00    +0.000 C 
BRANCH   8   9
ATOM      9  C   UNL     1       3.815  -4.797   1.537  0.00  0.00    +0.000 A 
ATOM     10  C   UNL     1       5.125  -4.309   1.632  0.00  0.00    +0.000 A 
ATOM     11  C   UNL     1       6.018  -4.842   2.567  0.00  0.00    +0.000 A 
ATOM     12  C   UNL     1       5.607  -5.861   3.423  0.00  0.00    +0.000 A 
ATOM     13  C   UNL     1       4.302  -6.344   3.350  0.00  0.00    +0.000 A 
ATOM     14  C   UNL     1       3.410  -5.811   2.415  0.00  0.00    +0.000 A 
ENDBRANCH   8   9
ENDBRANCH   6   7
BRANCH   1  15
ATOM     15  N   UNL     1       3.507  -1.140  -1.913  0.00  0.00    +0.000 N 
BRANCH  15  17
ATOM     16  C   UNL     1       2.724   0.824  -0.609  0.00  0.00    +0.000 C 
ATOM     17  C   UNL     1       3.436  -0.524  -0.569  0.00  0.00    +0.000 C 
ENDBRANCH  15  17
BRANCH  15  18
ATOM     18  N   UNL     1       4.285  -0.698  -2.933  0.00  0.00    +0.000 NA
ATOM     19  O   UNL     1       5.195   0.054  -2.566  0.00  0.00    +0.000 OA
ENDBRANCH  15  18
ENDBRANCH   1  15
TORSDOF 5
