REMARK  Name = *****
REMARK  3 active torsions:
REMARK  status: ('A' for Active; 'I' for Inactive)
REMARK    1  A    between atoms: C_4  and  C_7
REMARK    2  A    between atoms: C_7  and  P_8
REMARK    3  A    between atoms: P_8  and  C_9
REMARK                            x       y       z     vdW  Elec       q    Type
REMARK                         _______ _______ _______ _____ _____    ______ ____
ROOT
ATOM      1  P   UNL     1      -3.690  -1.081  -0.707  0.00  0.00    +0.000 P 
ATOM      2 BR   UNL     1      -3.490  -1.152  -2.888  0.00  0.00    +0.000 Br
ENDROOT
BRANCH   1   3
ATOM      3  C   UNL     1      -5.444  -0.591  -0.581  0.00  0.00    +0.000 A 
ATOM      4  C   UNL     1      -5.952   0.605  -1.110  0.00  0.00    +0.000 A 
ATOM      5  C   UNL     1      -7.304   0.932  -0.973  0.00  0.00    +0.000 A 
ATOM      6  C   UNL     1      -8.168   0.067  -0.305  0.00  0.00    +0.000 A 
ATOM      7  C   UNL     1      -7.682  -1.125   0.224  0.00  0.00    +0.000 A 
ATOM      8  C   UNL     1      -6.330  -1.451   0.087  0.00  0.00    +0.000 A 
ENDBRANCH   1   3
BRANCH   1   9
ATOM      9  C   UNL     1      -2.831   0.493  -0.323  0.00  0.00    +0.000 C 
BRANCH   9  13
ATOM     10  C   UNL     1       1.303  -0.600   0.299  0.00  0.00    +0.000 A 
ATOM     11  C   UNL     1       0.883  -0.139  -0.947  0.00  0.00    +0.000 A 
ATOM     12  C   UNL     1      -0.453   0.212  -1.150  0.00  0.00    +0.000 A 
ATOM     13  C   UNL     1      -1.391   0.097  -0.110  0.00  0.00    +0.000 A 
ATOM     14  C   UNL     1      -0.949  -0.360   1.143  0.00  0.00    +0.000 A 
ATOM     15  C   UNL     1       0.388  -0.709   1.344  0.00  0.00    +0.000 A 
ENDBRANCH   9  13
ENDBRANCH   1   9
TORSDOF 3
