REMARK  Name = *****
REMARK  4 active torsions:
REMARK  status: ('A' for Active; 'I' for Inactive)
REMARK    1  A    between atoms: C_1  and  O_2
REMARK    2  A    between atoms: O_2  and  C_3
REMARK    3  A    between atoms: C_6  and  C_9
REMARK    4  A    between atoms: C_10  and  C_11
REMARK                            x       y       z     vdW  Elec       q    Type
REMARK                         _______ _______ _______ _____ _____    ______ ____
ROOT
ATOM      1  C   UNL     1       5.241   3.543   3.450  0.00  0.00    +0.000 C 
ATOM      2  C   UNL     1       4.852   3.902   4.685  0.00  0.00    +0.000 C 
ENDROOT
BRANCH   2   3
ATOM      3  C   UNL     1       5.596   4.840   5.537  0.00  0.00    +0.000 A 
ATOM      4  C   UNL     1       6.226   5.981   5.021  0.00  0.00    +0.000 A 
ATOM      5  C   UNL     1       6.897   6.868   5.869  0.00  0.00    +0.000 A 
ATOM      6  C   UNL     1       6.932   6.624   7.240  0.00  0.00    +0.000 A 
ATOM      7  C   UNL     1       6.297   5.504   7.770  0.00  0.00    +0.000 A 
ATOM      8  C   UNL     1       5.626   4.618   6.921  0.00  0.00    +0.000 A 
ATOM      9 CL   UNL     1       7.756   7.715   8.283  0.00  0.00    +0.000 Cl
ENDBRANCH   2   3
BRANCH   1  13
ATOM     10  C   UNL     1       3.168   0.784   0.901  0.00  0.00    +0.000 A 
ATOM     11  C   UNL     1       2.442   1.654   1.713  0.00  0.00    +0.000 A 
ATOM     12  C   UNL     1       3.109   2.555   2.555  0.00  0.00    +0.000 A 
ATOM     13  C   UNL     1       4.508   2.591   2.605  0.00  0.00    +0.000 A 
ATOM     14  C   UNL     1       5.229   1.727   1.774  0.00  0.00    +0.000 A 
ATOM     15  C   UNL     1       4.563   0.829   0.935  0.00  0.00    +0.000 A 
BRANCH  10  17
ATOM     16  C   UNL     1       1.228  -0.233  -0.020  0.00  0.00    +0.000 C 
ATOM     17  O   UNL     1       2.645  -0.138   0.038  0.00  0.00    +0.000 OA
ENDBRANCH  10  17
ENDBRANCH   1  13
TORSDOF 3
