REMARK  Name = *****
REMARK  5 active torsions:
REMARK  status: ('A' for Active; 'I' for Inactive)
REMARK    1  A    between atoms: C_4  and  C_6
REMARK    2  A    between atoms: C_6  and  C_7
REMARK    3  A    between atoms: C_7  and  O_9
REMARK    4  A    between atoms: O_9  and  C_10
REMARK    5  A    between atoms: C_10  and  C_11
REMARK                            x       y       z     vdW  Elec       q    Type
REMARK                         _______ _______ _______ _____ _____    ______ ____
ROOT
ATOM      1  C   UNL     1      -2.799   0.916   1.827  0.00  0.00    +0.000 C 
ATOM      2  O   UNL     1      -3.479   0.106   1.214  0.00  0.00    +0.000 OA
ENDROOT
BRANCH   1   3
ATOM      3  C   UNL     1      -1.361   1.231   1.492  0.00  0.00    +0.000 C 
BRANCH   3   7
ATOM      4  C   UNL     1       0.516   2.623  -0.781  0.00  0.00    +0.000 C 
ATOM      5  C   UNL     1      -0.750   3.143  -1.437  0.00  0.00    +0.000 C 
ATOM      6  C   UNL     1      -1.862   2.832  -0.437  0.00  0.00    +0.000 C 
ATOM      7  C   UNL     1      -1.181   2.649   0.934  0.00  0.00    +0.000 C 
ATOM      8  C   UNL     1       0.300   2.963   0.684  0.00  0.00    +0.000 C 
ENDBRANCH   3   7
ENDBRANCH   1   3
BRANCH   1   9
ATOM      9  O   UNL     1      -3.211   1.646   2.899  0.00  0.00    +0.000 OA
BRANCH   9  10
ATOM     10  C   UNL     1      -4.581   1.466   3.302  0.00  0.00    +0.000 C 
BRANCH  10  11
ATOM     11  C   UNL     1      -4.671   0.473   4.475  0.00  0.00    +0.000 C 
ATOM     12  C   UNL     1      -6.133   0.112   4.789  0.00  0.00    +0.000 C 
ATOM     13  C   UNL     1      -6.933   1.307   5.320  0.00  0.00    +0.000 C 
ATOM     14  C   UNL     1      -6.160   2.145   6.296  0.00  0.00    +0.000 C 
ATOM     15  C   UNL     1      -4.841   2.008   6.499  0.00  0.00    +0.000 C 
ATOM     16  C   UNL     1      -3.991   1.024   5.745  0.00  0.00    +0.000 C 
ENDBRANCH  10  11
ENDBRANCH   9  10
ENDBRANCH   1   9
TORSDOF 5
