REMARK  Name = *****
REMARK  4 active torsions:
REMARK  status: ('A' for Active; 'I' for Inactive)
REMARK    1  A    between atoms: C_4  and  C_7
REMARK    2  A    between atoms: C_7  and  C_8
REMARK    3  A    between atoms: C_8  and  C_9
REMARK    4  A    between atoms: C_9  and  C_11
REMARK                            x       y       z     vdW  Elec       q    Type
REMARK                         _______ _______ _______ _____ _____    ______ ____
ROOT
ATOM      1  C   UNL     1      -5.135  -0.404  -0.002  0.00  0.00    +0.000 C 
ATOM      2  O   UNL     1      -5.572   0.721  -0.235  0.00  0.00    +0.000 OA
ENDROOT
BRANCH   1   3
ATOM      3  C   UNL     1      -6.101  -1.531   0.177  0.00  0.00    +0.000 A 
ATOM      4  C   UNL     1      -5.681  -2.847   0.403  0.00  0.00    +0.000 A 
ATOM      5  C   UNL     1      -6.631  -3.854   0.563  0.00  0.00    +0.000 A 
ATOM      6  C   UNL     1      -7.990  -3.568   0.501  0.00  0.00    +0.000 A 
ATOM      7  C   UNL     1      -8.422  -2.267   0.276  0.00  0.00    +0.000 A 
ATOM      8  C   UNL     1      -7.478  -1.249   0.114  0.00  0.00    +0.000 A 
ATOM      9  F   UNL     1      -8.893  -4.544   0.657  0.00  0.00    +0.000 F 
ATOM     10  F   UNL     1      -6.218  -5.110   0.779  0.00  0.00    +0.000 F 
ENDBRANCH   1   3
BRANCH   1  11
ATOM     11  C   UNL     1      -3.650  -0.691   0.111  0.00  0.00    +0.000 C 
BRANCH  11  12
ATOM     12  C   UNL     1      -2.814   0.578  -0.051  0.00  0.00    +0.000 C 
BRANCH  12  16
ATOM     13  C   UNL     1       1.386  -0.323   0.329  0.00  0.00    +0.000 A 
ATOM     14  C   UNL     1       0.776  -0.356  -0.924  0.00  0.00    +0.000 A 
ATOM     15  C   UNL     1      -0.582  -0.058  -1.049  0.00  0.00    +0.000 A 
ATOM     16  C   UNL     1      -1.341   0.281   0.079  0.00  0.00    +0.000 A 
ATOM     17  C   UNL     1      -0.719   0.307   1.335  0.00  0.00    +0.000 A 
ATOM     18  C   UNL     1       0.639   0.008   1.458  0.00  0.00    +0.000 A 
ENDBRANCH  12  16
ENDBRANCH  11  12
ENDBRANCH   1  11
TORSDOF 4
