REMARK  Name = *****
REMARK  2 active torsions:
REMARK  status: ('A' for Active; 'I' for Inactive)
REMARK    1  A    between atoms: N_5  and  S_6
REMARK    2  A    between atoms: S_6  and  C_7
REMARK                            x       y       z     vdW  Elec       q    Type
REMARK                         _______ _______ _______ _____ _____    ______ ____
ROOT
ATOM      1  C   UNL     1       1.841  -0.047   0.004  0.00  0.00    +0.000 C 
ATOM      2  C   UNL     1       1.178   1.319   0.175  0.00  0.00    +0.000 C 
ATOM      3  C   UNL     1      -0.144   1.410  -0.584  0.00  0.00    +0.000 C 
ATOM      4  C   UNL     1      -1.039   0.251  -0.174  0.00  0.00    +0.000 C 
ATOM      5  N   UNL     1      -2.261   0.299   0.258  0.00  0.00    +0.000 NA
ATOM      6  C   UNL     1      -0.416  -1.126  -0.328  0.00  0.00    +0.000 C 
ATOM      7  C   UNL     1       0.904  -1.178   0.430  0.00  0.00    +0.000 C 
ENDROOT
BRANCH   5   8
ATOM      8  S   UNL     1      -3.029   1.764   0.441  0.00  0.00    +0.000 S 
BRANCH   8   9
ATOM      9  C   UNL     1      -4.673   1.255   0.933  0.00  0.00    +0.000 A 
ATOM     10  C   UNL     1      -5.014  -0.072   1.221  0.00  0.00    +0.000 A 
ATOM     11  C   UNL     1      -6.316  -0.406   1.605  0.00  0.00    +0.000 A 
ATOM     12  C   UNL     1      -7.290   0.585   1.708  0.00  0.00    +0.000 A 
ATOM     13  C   UNL     1      -6.964   1.909   1.426  0.00  0.00    +0.000 A 
ATOM     14  C   UNL     1      -5.662   2.242   1.042  0.00  0.00    +0.000 A 
ENDBRANCH   8   9
ENDBRANCH   5   8
TORSDOF 2
