REMARK  Name = *****
REMARK  4 active torsions:
REMARK  status: ('A' for Active; 'I' for Inactive)
REMARK    1  A    between atoms: C_1  and  C_2
REMARK    2  A    between atoms: C_4  and  C_8
REMARK    3  A    between atoms: C_8  and  O_10
REMARK    4  A    between atoms: O_10  and  C_11
REMARK                            x       y       z     vdW  Elec       q    Type
REMARK                         _______ _______ _______ _____ _____    ______ ____
ROOT
ATOM      1  C   UNL     1      -1.580   2.335  -0.923  0.00  0.00    +0.000 C 
ATOM      2  O   UNL     1      -2.795   2.448  -0.991  0.00  0.00    +0.000 OA
ENDROOT
BRANCH   1   6
ATOM      3  C   UNL     1       2.573  -0.255   0.362  0.00  0.00    +0.000 C 
ATOM      4  C   UNL     1       1.079  -0.127   0.292  0.00  0.00    +0.000 A 
ATOM      5  C   UNL     1       0.491   1.023  -0.258  0.00  0.00    +0.000 A 
ATOM      6  C   UNL     1      -0.904   1.134  -0.355  0.00  0.00    +0.000 A 
ATOM      7  C   UNL     1      -1.710   0.079   0.094  0.00  0.00    +0.000 A 
ATOM      8  C   UNL     1      -1.130  -1.072   0.626  0.00  0.00    +0.000 A 
ATOM      9  C   UNL     1       0.258  -1.176   0.720  0.00  0.00    +0.000 A 
ENDBRANCH   1   6
BRANCH   1  10
ATOM     10  O   UNL     1      -0.633   3.253  -1.339  0.00  0.00    +0.000 OA
BRANCH  10  11
ATOM     11  C   UNL     1      -1.182   4.409  -1.899  0.00  0.00    +0.000 A 
ATOM     12  C   UNL     1      -1.669   4.391  -3.205  0.00  0.00    +0.000 A 
ATOM     13  C   UNL     1      -2.161   5.572  -3.752  0.00  0.00    +0.000 A 
ATOM     14  C   UNL     1      -2.151   6.757  -3.012  0.00  0.00    +0.000 A 
ATOM     15  C   UNL     1      -1.641   6.764  -1.711  0.00  0.00    +0.000 A 
ATOM     16  C   UNL     1      -1.146   5.586  -1.152  0.00  0.00    +0.000 A 
ATOM     17 CL   UNL     1      -2.778   5.578  -5.359  0.00  0.00    +0.000 Cl
ENDBRANCH  10  11
ENDBRANCH   1  10
TORSDOF 3
