REMARK  Name = *****
REMARK  5 active torsions:
REMARK  status: ('A' for Active; 'I' for Inactive)
REMARK    1  A    between atoms: C_1  and  C_2
REMARK    2  A    between atoms: C_2  and  C_4
REMARK    3  A    between atoms: C_7  and  C_10
REMARK    4  A    between atoms: C_10  and  S_12
REMARK    5  A    between atoms: S_12  and  C_13
REMARK                            x       y       z     vdW  Elec       q    Type
REMARK                         _______ _______ _______ _____ _____    ______ ____
ROOT
ATOM      1  C   UNL     1       3.134   0.791  -0.613  0.00  0.00    +0.000 A 
ATOM      2  C   UNL     1       4.289   0.610  -1.378  0.00  0.00    +0.000 A 
ATOM      3  C   UNL     1       4.958   1.719  -1.912  0.00  0.00    +0.000 A 
ATOM      4  C   UNL     1       4.488   3.025  -1.693  0.00  0.00    +0.000 A 
ATOM      5  C   UNL     1       3.328   3.199  -0.927  0.00  0.00    +0.000 A 
ATOM      6  C   UNL     1       2.658   2.091  -0.393  0.00  0.00    +0.000 A 
ENDROOT
BRANCH   1   8
ATOM      7  C   UNL     1       2.897  -1.753  -0.224  0.00  0.00    +0.000 C 
ATOM      8  C   UNL     1       2.384  -0.353  -0.014  0.00  0.00    +0.000 C 
ATOM      9  O   UNL     1       1.365  -0.139   0.640  0.00  0.00    +0.000 OA
ENDBRANCH   1   8
BRANCH   4  10
ATOM     10  C   UNL     1       5.273   4.151  -2.288  0.00  0.00    +0.000 C 
ATOM     11  O   UNL     1       6.286   3.922  -2.938  0.00  0.00    +0.000 OA
BRANCH  10  12
ATOM     12  S   UNL     1       4.704   5.797  -2.039  0.00  0.00    +0.000 S 
BRANCH  12  13
ATOM     13  C   UNL     1       6.257   6.725  -2.300  0.00  0.00    +0.000 C 
ATOM     14  C   UNL     1       7.210   6.527  -1.114  0.00  0.00    +0.000 C 
ATOM     15  C   UNL     1       8.474   7.373  -1.270  0.00  0.00    +0.000 C 
ATOM     16  C   UNL     1       8.144   8.848  -1.470  0.00  0.00    +0.000 C 
ATOM     17  C   UNL     1       7.183   9.055  -2.638  0.00  0.00    +0.000 C 
ATOM     18  C   UNL     1       5.918   8.211  -2.482  0.00  0.00    +0.000 C 
ENDBRANCH  12  13
ENDBRANCH  10  12
ENDBRANCH   4  10
TORSDOF 4
