REMARK  Name = *****
REMARK  5 active torsions:
REMARK  status: ('A' for Active; 'I' for Inactive)
REMARK    1  A    between atoms: C_1  and  N_2
REMARK    2  A    between atoms: N_2  and  C_3
REMARK    3  A    between atoms: N_2  and  C_4
REMARK    4  A    between atoms: C_9  and  C_10
REMARK    5  A    between atoms: C_11  and  C_12
REMARK                            x       y       z     vdW  Elec       q    Type
REMARK                         _______ _______ _______ _____ _____    ______ ____
ROOT
ATOM      1  C   UNL     1       4.624  -0.515  -2.131  0.00  0.00    +0.000 C 
ATOM      2  C   UNL     1       3.909  -1.128  -3.086  0.00  0.00    +0.000 C 
ENDROOT
BRANCH   2   3
ATOM      3  C   UNL     1       4.272  -2.415  -3.697  0.00  0.00    +0.000 A 
ATOM      4  C   UNL     1       4.839  -3.478  -2.982  0.00  0.00    +0.000 A 
ATOM      5  C   UNL     1       5.141  -4.695  -3.598  0.00  0.00    +0.000 A 
ATOM      6  C   UNL     1       4.870  -4.879  -4.952  0.00  0.00    +0.000 A 
ATOM      7  C   UNL     1       4.291  -3.842  -5.680  0.00  0.00    +0.000 A 
ATOM      8  C   UNL     1       3.993  -2.632  -5.052  0.00  0.00    +0.000 A 
ATOM      9  F   UNL     1       3.431  -1.661  -5.789  0.00  0.00    +0.000 F 
ATOM     10  F   UNL     1       5.101  -3.362  -1.671  0.00  0.00    +0.000 F 
ENDBRANCH   2   3
BRANCH   1  16
ATOM     11  C   UNL     1       3.118   0.911  -0.667  0.00  0.00    +0.000 A 
ATOM     12  C   UNL     1       2.790   2.208  -0.231  0.00  0.00    +0.000 A 
ATOM     13  C   UNL     1       3.507   3.330  -0.659  0.00  0.00    +0.000 A 
ATOM     14  C   UNL     1       4.574   3.181  -1.537  0.00  0.00    +0.000 A 
ATOM     15  C   UNL     1       4.923   1.911  -1.989  0.00  0.00    +0.000 A 
ATOM     16  C   UNL     1       4.208   0.778  -1.566  0.00  0.00    +0.000 A 
BRANCH  11  18
ATOM     17  C   UNL     1       0.986  -0.050   0.063  0.00  0.00    +0.000 C 
ATOM     18  N   UNL     1       2.408  -0.226  -0.220  0.00  0.00    +0.000 N 
ATOM     19  C   UNL     1       3.143  -0.957   0.817  0.00  0.00    +0.000 C 
ENDBRANCH  11  18
ENDBRANCH   1  16
TORSDOF 3
