REMARK  Name = *****
REMARK  3 active torsions:
REMARK  status: ('A' for Active; 'I' for Inactive)
REMARK    1  A    between atoms: C_6  and  N_7
REMARK    2  A    between atoms: N_9  and  C_10
REMARK    3  A    between atoms: N_9  and  O_17
REMARK                            x       y       z     vdW  Elec       q    Type
REMARK                         _______ _______ _______ _____ _____    ______ ____
ROOT
ATOM      1  N   UNL     1       3.829  -0.019   0.206  0.00  0.00    +0.000 NA
ATOM      2  C   UNL     1       4.463   1.022  -0.247  0.00  0.00    +0.000 C 
ATOM      3  N   UNL     1       5.836   1.139  -0.273  0.00  0.00    +0.000 N 
ENDROOT
BRANCH   1   9
ATOM      4  C   UNL     1       1.695   0.777   1.071  0.00  0.00    +0.000 A 
ATOM      5  C   UNL     1       0.300   0.814   1.002  0.00  0.00    +0.000 A 
ATOM      6  C   UNL     1      -0.361   0.099   0.005  0.00  0.00    +0.000 A 
ATOM      7  C   UNL     1       0.361  -0.655  -0.919  0.00  0.00    +0.000 A 
ATOM      8  C   UNL     1       1.756  -0.687  -0.847  0.00  0.00    +0.000 A 
ATOM      9  C   UNL     1       2.431   0.039   0.138  0.00  0.00    +0.000 A 
ATOM     10 CL   UNL     1      -2.078   0.141  -0.082  0.00  0.00    +0.000 Cl
ENDBRANCH   1   9
BRANCH   3  11
ATOM     11  C   UNL     1       6.601   2.254  -0.700  0.00  0.00    +0.000 A 
ATOM     12  C   UNL     1       6.035   3.508  -0.983  0.00  0.00    +0.000 A 
ATOM     13  C   UNL     1       6.829   4.587  -1.397  0.00  0.00    +0.000 A 
ATOM     14  C   UNL     1       8.204   4.428  -1.532  0.00  0.00    +0.000 A 
ATOM     15  C   UNL     1       8.794   3.202  -1.255  0.00  0.00    +0.000 A 
ATOM     16  C   UNL     1       7.997   2.129  -0.840  0.00  0.00    +0.000 A 
ATOM     17 CL   UNL     1       9.175   5.754  -2.040  0.00  0.00    +0.000 Cl
ENDBRANCH   3  11
BRANCH   3  18
ATOM     18  O   UNL     1       6.489  -0.038   0.138  0.00  0.00    +0.000 OA
ATOM     19  H   UNL     1       5.829  -0.700   0.397  0.00  0.00    +0.000 HD
ENDBRANCH   3  18
TORSDOF 3
