REMARK  Name = *****
REMARK  1 active torsions:
REMARK  status: ('A' for Active; 'I' for Inactive)
REMARK    1  A    between atoms: C_8  and  C_10
REMARK                            x       y       z     vdW  Elec       q    Type
REMARK                         _______ _______ _______ _____ _____    ______ ____
ROOT
ATOM      1  C   UNL     1      -2.632  -0.363  -0.068  0.00  0.00    +0.000 A 
ATOM      2  C   UNL     1      -2.344   0.986   0.086  0.00  0.00    +0.000 A 
ATOM      3  C   UNL     1      -1.020   1.424   0.166  0.00  0.00    +0.000 A 
ATOM      4  C   UNL     1       0.018   0.475   0.087  0.00  0.00    +0.000 A 
ATOM      5  C   UNL     1      -0.247  -0.886  -0.068  0.00  0.00    +0.000 A 
ATOM      6  C   UNL     1      -1.598  -1.301  -0.145  0.00  0.00    +0.000 A 
ATOM      7  C   UNL     1       0.970  -1.649  -0.122  0.00  0.00    +0.000 A 
ATOM      8  C   UNL     1       2.104  -0.874  -0.011  0.00  0.00    +0.000 A 
ATOM      9  S   UNL     1       1.709   0.777   0.161  0.00  0.00    +0.000 S 
ENDROOT
BRANCH   8  10
ATOM     10  C   UNL     1       3.510  -1.415  -0.037  0.00  0.00    +0.000 A 
ATOM     11  C   UNL     1       4.633  -0.621   0.079  0.00  0.00    +0.000 A 
ATOM     12  S   UNL     1       6.087  -1.523   0.013  0.00  0.00    +0.000 S 
ATOM     13  C   UNL     1       5.231  -2.989  -0.173  0.00  0.00    +0.000 A 
ATOM     14  C   UNL     1       3.866  -2.793  -0.184  0.00  0.00    +0.000 A 
ENDBRANCH   8  10
TORSDOF 1
