REMARK  Name = *****
REMARK  4 active torsions:
REMARK  status: ('A' for Active; 'I' for Inactive)
REMARK    1  A    between atoms: C_1  and  C_2
REMARK    2  A    between atoms: C_3  and  C_9
REMARK    3  A    between atoms: C_10  and  C_11
REMARK    4  A    between atoms: C_12  and  C_16
REMARK                            x       y       z     vdW  Elec       q    Type
REMARK                         _______ _______ _______ _____ _____    ______ ____
ROOT
ATOM      1  C   UNL     1       2.531   2.389  -0.300  0.00  0.00    +0.000 C 
ATOM      2  C   UNL     1       1.965   3.447  -0.352  0.00  0.00    +0.000 C 
ENDROOT
BRANCH   1   5
ATOM      3  C   UNL     1       1.013  -0.128   0.029  0.00  0.00    +0.000 C 
ATOM      4  C   UNL     1       2.515  -0.080  -0.054  0.00  0.00    +0.000 A 
ATOM      5  C   UNL     1       3.214   1.131  -0.227  0.00  0.00    +0.000 A 
ATOM      6  C   UNL     1       4.609   1.129  -0.329  0.00  0.00    +0.000 A 
ATOM      7  C   UNL     1       5.301  -0.074  -0.270  0.00  0.00    +0.000 A 
ATOM      8  C   UNL     1       4.631  -1.280  -0.114  0.00  0.00    +0.000 A 
ATOM      9  C   UNL     1       3.240  -1.284  -0.011  0.00  0.00    +0.000 A 
ATOM     10  F   UNL     1       6.637  -0.071  -0.369  0.00  0.00    +0.000 F 
ENDBRANCH   1   5
BRANCH   2  11
ATOM     11  C   UNL     1       1.294   4.707  -0.405  0.00  0.00    +0.000 A 
ATOM     12  C   UNL     1      -0.066   4.902  -0.548  0.00  0.00    +0.000 A 
ATOM     13  C   UNL     1      -0.411   6.287  -0.559  0.00  0.00    +0.000 A 
ATOM     14  C   UNL     1       0.693   7.099  -0.425  0.00  0.00    +0.000 A 
ATOM     15  S   UNL     1       2.137   6.194  -0.287  0.00  0.00    +0.000 S 
BRANCH  12  16
ATOM     16  C   UNL     1      -1.025   3.844  -0.671  0.00  0.00    +0.000 C 
ATOM     17  C   UNL     1      -1.831   2.961  -0.775  0.00  0.00    +0.000 C 
ENDBRANCH  12  16
ENDBRANCH   2  11
TORSDOF 3
