REMARK  Name = *****
REMARK  4 active torsions:
REMARK  status: ('A' for Active; 'I' for Inactive)
REMARK    1  A    between atoms: C_4  and  C_7
REMARK    2  A    between atoms: C_7  and  O_8
REMARK    3  A    between atoms: O_8  and  C_9
REMARK    4  A    between atoms: C_9  and  C_11
REMARK                            x       y       z     vdW  Elec       q    Type
REMARK                         _______ _______ _______ _____ _____    ______ ____
ROOT
ATOM      1  O   UNL     1       3.324  -2.218  -0.394  0.00  0.00    +0.000 OA
ENDROOT
BRANCH   1   2
ATOM      2  C   UNL     1       4.613  -2.359   0.023  0.00  0.00    +0.000 C 
ATOM      3  O   UNL     1       5.431  -1.453   0.099  0.00  0.00    +0.000 OA
BRANCH   2   4
ATOM      4  C   UNL     1       4.881  -3.801   0.405  0.00  0.00    +0.000 C 
ATOM      5  C   UNL     1       4.979  -3.917   1.928  0.00  0.00    +0.000 C 
ATOM      6  C   UNL     1       5.330  -5.339   2.361  0.00  0.00    +0.000 C 
ATOM      7  C   UNL     1       6.597  -5.841   1.673  0.00  0.00    +0.000 C 
ATOM      8  C   UNL     1       6.498  -5.727   0.155  0.00  0.00    +0.000 C 
ATOM      9  C   UNL     1       6.155  -4.304  -0.281  0.00  0.00    +0.000 C 
ENDBRANCH   2   4
ENDBRANCH   1   2
BRANCH   1  10
ATOM     10  C   UNL     1       2.963  -0.881  -0.769  0.00  0.00    +0.000 C 
BRANCH  10  14
ATOM     11  C   UNL     1      -0.367  -0.295  -3.544  0.00  0.00    +0.000 C 
ATOM     12  C   UNL     1       0.104  -1.721  -3.281  0.00  0.00    +0.000 C 
ATOM     13  C   UNL     1       1.491  -1.749  -2.642  0.00  0.00    +0.000 C 
ATOM     14  C   UNL     1       1.548  -0.896  -1.362  0.00  0.00    +0.000 C 
ATOM     15  C   UNL     1       1.066   0.534  -1.638  0.00  0.00    +0.000 C 
ATOM     16  C   UNL     1      -0.321   0.552  -2.277  0.00  0.00    +0.000 C 
ENDBRANCH  10  14
ENDBRANCH   1  10
TORSDOF 4
