REMARK  Name = *****
REMARK  3 active torsions:
REMARK  status: ('A' for Active; 'I' for Inactive)
REMARK    1  A    between atoms: C_6  and  C_7
REMARK    2  A    between atoms: C_7  and  O_8
REMARK    3  A    between atoms: O_8  and  C_9
REMARK                            x       y       z     vdW  Elec       q    Type
REMARK                         _______ _______ _______ _____ _____    ______ ____
ROOT
ATOM      1  O   UNL     1      -3.962   1.352  -0.009  0.00  0.00    +0.000 OA
ENDROOT
BRANCH   1   2
ATOM      2  C   UNL     1      -5.320   1.520   0.070  0.00  0.00    +0.000 A 
ATOM      3  C   UNL     1      -5.798   2.843   0.043  0.00  0.00    +0.000 A 
ATOM      4  C   UNL     1      -7.167   3.114   0.126  0.00  0.00    +0.000 A 
ATOM      5  C   UNL     1      -8.068   2.062   0.239  0.00  0.00    +0.000 A 
ATOM      6  C   UNL     1      -7.614   0.745   0.265  0.00  0.00    +0.000 A 
ATOM      7  C   UNL     1      -6.244   0.474   0.180  0.00  0.00    +0.000 A 
ATOM      8 CL   UNL     1      -9.754   2.383   0.347  0.00  0.00    +0.000 Cl
ATOM      9 CL   UNL     1      -4.717   4.187  -0.093  0.00  0.00    +0.000 Cl
ENDBRANCH   1   2
BRANCH   1  10
ATOM     10  C   UNL     1      -3.457   0.019   0.000  0.00  0.00    +0.000 C 
BRANCH  10  16
ATOM     11  C   UNL     1      -1.230  -0.539  -1.073  0.00  0.00    +0.000 A 
ATOM     12  C   UNL     1       0.166  -0.530  -1.069  0.00  0.00    +0.000 A 
ATOM     13  C   UNL     1       0.846   0.077  -0.019  0.00  0.00    +0.000 A 
ATOM     14  C   UNL     1       0.156   0.680   1.025  0.00  0.00    +0.000 A 
ATOM     15  C   UNL     1      -1.239   0.674   1.023  0.00  0.00    +0.000 A 
ATOM     16  C   UNL     1      -1.947   0.060  -0.025  0.00  0.00    +0.000 A 
ATOM     17  F   UNL     1       2.185   0.077  -0.014  0.00  0.00    +0.000 F 
ENDBRANCH  10  16
ENDBRANCH   1  10
TORSDOF 3
