REMARK  Name = *****
REMARK  2 active torsions:
REMARK  status: ('A' for Active; 'I' for Inactive)
REMARK    1  A    between atoms: C_5  and  C_6
REMARK    2  A    between atoms: C_7  and  C_8
REMARK                            x       y       z     vdW  Elec       q    Type
REMARK                         _______ _______ _______ _____ _____    ______ ____
ROOT
ATOM      1  C   UNL     1      -1.395   0.332   0.627  0.00  0.00    +0.000 C 
ATOM      2  C   UNL     1      -0.972  -1.136   0.405  0.00  0.00    +0.000 C 
ATOM      3  C   UNL     1       0.265  -0.987  -0.483  0.00  0.00    +0.000 C 
ATOM      4  C   UNL     1      -0.103   0.187  -1.308  0.00  0.00    +0.000 C 
ATOM      5  C   UNL     1      -0.177   0.317  -2.636  0.00  0.00    +0.000 C 
ATOM      6  C   UNL     1      -0.337   1.102  -0.166  0.00  0.00    +0.000 C 
ATOM      7  O   UNL     1       0.897   0.975   0.564  0.00  0.00    +0.000 OA
ATOM      8  O   UNL     1       1.307  -0.443   0.348  0.00  0.00    +0.000 OA
ENDROOT
BRANCH   5   9
ATOM      9  C   UNL     1      -0.552   1.533  -3.318  0.00  0.00    +0.000 C 
ATOM     10  C   UNL     1      -0.631   1.617  -4.656  0.00  0.00    +0.000 C 
BRANCH  10  11
ATOM     11  C   UNL     1      -1.013   2.840  -5.377  0.00  0.00    +0.000 A 
ATOM     12  C   UNL     1      -0.557   4.107  -4.991  0.00  0.00    +0.000 A 
ATOM     13  C   UNL     1      -0.917   5.244  -5.720  0.00  0.00    +0.000 A 
ATOM     14  C   UNL     1      -1.727   5.123  -6.848  0.00  0.00    +0.000 A 
ATOM     15  C   UNL     1      -2.171   3.866  -7.251  0.00  0.00    +0.000 A 
ATOM     16  C   UNL     1      -1.811   2.729  -6.523  0.00  0.00    +0.000 A 
ENDBRANCH  10  11
ENDBRANCH   5   9
TORSDOF 2
