REMARK  Name = *****
REMARK  5 active torsions:
REMARK  status: ('A' for Active; 'I' for Inactive)
REMARK    1  A    between atoms: C_4  and  C_7
REMARK    2  A    between atoms: C_7  and  S_8
REMARK    3  A    between atoms: S_8  and  C_9
REMARK    4  A    between atoms: C_14  and  C_15
REMARK    5  A    between atoms: C_15  and  C_16
REMARK                            x       y       z     vdW  Elec       q    Type
REMARK                         _______ _______ _______ _____ _____    ______ ____
ROOT
ATOM      1  C   UNL     1      -5.068  -0.573  -0.124  0.00  0.00    +0.000 A 
ATOM      2  C   UNL     1      -5.797  -1.765   0.022  0.00  0.00    +0.000 A 
ATOM      3  C   UNL     1      -7.183  -1.787  -0.136  0.00  0.00    +0.000 A 
ATOM      4  C   UNL     1      -7.862  -0.615  -0.446  0.00  0.00    +0.000 A 
ATOM      5  C   UNL     1      -7.152   0.574  -0.604  0.00  0.00    +0.000 A 
ATOM      6  C   UNL     1      -5.749   0.614  -0.459  0.00  0.00    +0.000 A 
ENDROOT
BRANCH   1   7
ATOM      7  S   UNL     1      -3.291  -0.713   0.053  0.00  0.00    +0.000 S 
BRANCH   7   8
ATOM      8  C   UNL     1      -3.029   0.194   1.616  0.00  0.00    +0.000 C 
BRANCH   8  12
ATOM      9  C   UNL     1       0.657  -0.906   3.576  0.00  0.00    +0.000 A 
ATOM     10  C   UNL     1       0.692  -0.203   2.374  0.00  0.00    +0.000 A 
ATOM     11  C   UNL     1      -0.498   0.151   1.735  0.00  0.00    +0.000 A 
ATOM     12  C   UNL     1      -1.738  -0.201   2.291  0.00  0.00    +0.000 A 
ATOM     13  C   UNL     1      -1.759  -0.912   3.499  0.00  0.00    +0.000 A 
ATOM     14  C   UNL     1      -0.568  -1.259   4.139  0.00  0.00    +0.000 A 
ENDBRANCH   8  12
ENDBRANCH   7   8
ENDBRANCH   1   7
BRANCH   6  15
ATOM     15  C   UNL     1      -5.061   1.946  -0.664  0.00  0.00    +0.000 C 
BRANCH  15  16
ATOM     16  C   UNL     1      -5.142   2.803   0.529  0.00  0.00    +0.000 C 
ATOM     17  N   UNL     1      -5.194   3.476   1.473  0.00  0.00    +0.000 NA
ENDBRANCH  15  16
ENDBRANCH   6  15
TORSDOF 5
