REMARK  Name = *****
REMARK  4 active torsions:
REMARK  status: ('A' for Active; 'I' for Inactive)
REMARK    1  A    between atoms: C_4  and  C_7
REMARK    2  A    between atoms: C_7  and  C_8
REMARK    3  A    between atoms: C_8  and  C_9
REMARK    4  A    between atoms: C_14  and  C_15
REMARK                            x       y       z     vdW  Elec       q    Type
REMARK                         _______ _______ _______ _____ _____    ______ ____
ROOT
ATOM      1  C   UNL     1      -3.646  -0.875  -0.468  0.00  0.00    +0.000 C 
ENDROOT
BRANCH   1   2
ATOM      2  C   UNL     1      -5.108  -0.515  -0.644  0.00  0.00    +0.000 A 
ATOM      3  C   UNL     1      -5.576  -0.209  -1.934  0.00  0.00    +0.000 A 
ATOM      4  C   UNL     1      -6.910   0.143  -2.146  0.00  0.00    +0.000 A 
ATOM      5  C   UNL     1      -7.796   0.200  -1.074  0.00  0.00    +0.000 A 
ATOM      6  C   UNL     1      -7.348  -0.095   0.213  0.00  0.00    +0.000 A 
ATOM      7  C   UNL     1      -6.010  -0.451   0.437  0.00  0.00    +0.000 A 
BRANCH   7   8
ATOM      8  C   UNL     1      -5.600  -0.745   1.783  0.00  0.00    +0.000 C 
ATOM      9  N   UNL     1      -5.269  -0.981   2.870  0.00  0.00    +0.000 NA
ENDBRANCH   7   8
ENDBRANCH   1   2
BRANCH   1  10
ATOM     10  C   UNL     1      -2.800   0.338  -0.055  0.00  0.00    +0.000 C 
BRANCH  10  14
ATOM     11  C   UNL     1       1.497  -0.166   0.037  0.00  0.00    +0.000 A 
ATOM     12  C   UNL     1       0.674  -1.265   0.269  0.00  0.00    +0.000 A 
ATOM     13  C   UNL     1      -0.716  -1.123   0.238  0.00  0.00    +0.000 A 
ATOM     14  C   UNL     1      -1.302   0.119  -0.043  0.00  0.00    +0.000 A 
ATOM     15  C   UNL     1      -0.458   1.221  -0.256  0.00  0.00    +0.000 A 
ATOM     16  C   UNL     1       0.931   1.079  -0.221  0.00  0.00    +0.000 A 
ENDBRANCH  10  14
ENDBRANCH   1  10
TORSDOF 4
