REMARK  Name = *****
REMARK  3 active torsions:
REMARK  status: ('A' for Active; 'I' for Inactive)
REMARK    1  A    between atoms: C_2  and  C_3
REMARK    2  A    between atoms: C_2  and  C_9
REMARK    3  A    between atoms: C_9  and  C_11
REMARK                            x       y       z     vdW  Elec       q    Type
REMARK                         _______ _______ _______ _____ _____    ______ ____
ROOT
ATOM      1  C   UNL     1       0.860   0.264   0.699  0.00  0.00    +0.000 C 
ATOM      2  C   UNL     1       2.194   0.261   0.524  0.00  0.00    +0.000 C 
ENDROOT
BRANCH   2   3
ATOM      3  C   UNL     1       3.051  -0.805   1.088  0.00  0.00    +0.000 A 
ATOM      4  C   UNL     1       4.132  -1.305   0.345  0.00  0.00    +0.000 A 
ATOM      5  C   UNL     1       4.952  -2.311   0.862  0.00  0.00    +0.000 A 
ATOM      6  C   UNL     1       4.708  -2.828   2.132  0.00  0.00    +0.000 A 
ATOM      7  C   UNL     1       3.647  -2.336   2.888  0.00  0.00    +0.000 A 
ATOM      8  C   UNL     1       2.826  -1.329   2.371  0.00  0.00    +0.000 A 
ENDBRANCH   2   3
BRANCH   2   9
ATOM      9  C   UNL     1       2.809   1.409  -0.221  0.00  0.00    +0.000 C 
ATOM     10  O   UNL     1       3.744   2.042   0.262  0.00  0.00    +0.000 OA
BRANCH   9  11
ATOM     11  C   UNL     1       2.285   1.772  -1.568  0.00  0.00    +0.000 A 
ATOM     12  C   UNL     1       2.461   3.089  -2.014  0.00  0.00    +0.000 A 
ATOM     13  C   UNL     1       1.999   3.473  -3.274  0.00  0.00    +0.000 A 
ATOM     14  C   UNL     1       1.369   2.541  -4.099  0.00  0.00    +0.000 A 
ATOM     15  C   UNL     1       1.206   1.224  -3.669  0.00  0.00    +0.000 A 
ATOM     16  C   UNL     1       1.667   0.836  -2.409  0.00  0.00    +0.000 A 
ENDBRANCH   9  11
ENDBRANCH   2   9
TORSDOF 3
