REMARK  Name = *****
REMARK  3 active torsions:
REMARK  status: ('A' for Active; 'I' for Inactive)
REMARK    1  A    between atoms: C_1  and  C_2
REMARK    2  A    between atoms: C_5  and  C_8
REMARK    3  A    between atoms: N_10  and  C_11
REMARK                            x       y       z     vdW  Elec       q    Type
REMARK                         _______ _______ _______ _____ _____    ______ ____
ROOT
ATOM      1  C   UNL     1      -3.690   0.120   0.259  0.00  0.00    +0.000 C 
ATOM      2  C   UNL     1      -4.913   0.511  -0.524  0.00  0.00    +0.000 C 
ATOM      3  N   UNL     1      -4.782   0.900   0.878  0.00  0.00    +0.000 N 
ENDROOT
BRANCH   1   8
ATOM      4  C   UNL     1      -2.916  -5.405   2.007  0.00  0.00    +0.000 C 
ATOM      5  C   UNL     1      -3.146  -3.993   1.559  0.00  0.00    +0.000 A 
ATOM      6  C   UNL     1      -3.150  -3.670   0.199  0.00  0.00    +0.000 A 
ATOM      7  C   UNL     1      -3.334  -2.347  -0.214  0.00  0.00    +0.000 A 
ATOM      8  C   UNL     1      -3.513  -1.306   0.713  0.00  0.00    +0.000 A 
ATOM      9  C   UNL     1      -3.484  -1.647   2.074  0.00  0.00    +0.000 A 
ATOM     10  C   UNL     1      -3.301  -2.968   2.495  0.00  0.00    +0.000 A 
ENDBRANCH   1   8
BRANCH   3  11
ATOM     11  C   UNL     1      -4.561   2.260   1.218  0.00  0.00    +0.000 A 
ATOM     12  C   UNL     1      -3.803   3.173   0.468  0.00  0.00    +0.000 A 
ATOM     13  C   UNL     1      -3.647   4.496   0.896  0.00  0.00    +0.000 A 
ATOM     14  C   UNL     1      -4.250   4.913   2.075  0.00  0.00    +0.000 A 
ATOM     15  C   UNL     1      -5.006   4.034   2.837  0.00  0.00    +0.000 A 
ATOM     16  C   UNL     1      -5.159   2.714   2.407  0.00  0.00    +0.000 A 
ATOM     17  F   UNL     1      -4.099   6.180   2.482  0.00  0.00    +0.000 F 
ENDBRANCH   3  11
TORSDOF 2
