REMARK  Name = *****
REMARK  4 active torsions:
REMARK  status: ('A' for Active; 'I' for Inactive)
REMARK    1  A    between atoms: C_1  and  C_2
REMARK    2  A    between atoms: C_4  and  C_7
REMARK    3  A    between atoms: C_7  and  S_8
REMARK    4  A    between atoms: S_8  and  C_9
REMARK                            x       y       z     vdW  Elec       q    Type
REMARK                         _______ _______ _______ _____ _____    ______ ____
ROOT
ATOM      1  S   UNL     1       1.111  -3.970  -0.774  0.00  0.00    +0.000 S 
ENDROOT
BRANCH   1   2
ATOM      2  C   UNL     1       2.231  -5.315  -0.424  0.00  0.00    +0.000 A 
ATOM      3  C   UNL     1       3.622  -5.200  -0.526  0.00  0.00    +0.000 A 
ATOM      4  C   UNL     1       4.447  -6.297  -0.257  0.00  0.00    +0.000 A 
ATOM      5  C   UNL     1       3.882  -7.518   0.102  0.00  0.00    +0.000 A 
ATOM      6  C   UNL     1       2.499  -7.654   0.191  0.00  0.00    +0.000 A 
ATOM      7  C   UNL     1       1.678  -6.555  -0.076  0.00  0.00    +0.000 A 
ATOM      8 BR   UNL     1       4.997  -9.001   0.459  0.00  0.00    +0.000 Br
ENDBRANCH   1   2
BRANCH   1   9
ATOM      9  C   UNL     1       1.992  -2.555  -0.023  0.00  0.00    +0.000 C 
BRANCH   9  13
ATOM     10  C   UNL     1       0.298   1.812  -1.637  0.00  0.00    +0.000 C 
ATOM     11  C   UNL     1       0.414   0.611  -0.767  0.00  0.00    +0.000 A 
ATOM     12  N   UNL     1       1.282  -0.361  -0.952  0.00  0.00    +0.000 NA
ATOM     13  C   UNL     1       1.112  -1.346   0.013  0.00  0.00    +0.000 A 
ATOM     14  C   UNL     1       0.125  -1.072   0.942  0.00  0.00    +0.000 A 
ATOM     15  S   UNL     1      -0.625   0.426   0.588  0.00  0.00    +0.000 S 
ENDBRANCH   9  13
ENDBRANCH   1   9
TORSDOF 3
