REMARK  Name = *****
REMARK  3 active torsions:
REMARK  status: ('A' for Active; 'I' for Inactive)
REMARK    1  A    between atoms: C_4  and  C_8
REMARK    2  A    between atoms: C_8  and  O_9
REMARK    3  A    between atoms: O_9  and  C_10
REMARK                            x       y       z     vdW  Elec       q    Type
REMARK                         _______ _______ _______ _____ _____    ______ ____
ROOT
ATOM      1  C   UNL     1       1.053   1.294  -2.038  0.00  0.00    +0.000 C 
ENDROOT
BRANCH   1   5
ATOM      2  C   UNL     1       0.168  -0.020   1.391  0.00  0.00    +0.000 C 
ATOM      3  C   UNL     1      -0.033  -1.161   0.390  0.00  0.00    +0.000 C 
ATOM      4  C   UNL     1       1.089  -0.877  -0.633  0.00  0.00    +0.000 C 
ATOM      5  C   UNL     1       1.155   0.685  -0.642  0.00  0.00    +0.000 C 
ATOM      6  C   UNL     1       0.008   1.073   0.326  0.00  0.00    +0.000 C 
ATOM      7  C   UNL     1      -1.318   0.635  -0.251  0.00  0.00    +0.000 C 
ATOM      8  C   UNL     1      -1.339  -0.706  -0.221  0.00  0.00    +0.000 C 
ENDBRANCH   1   5
BRANCH   1   9
ATOM      9  O   UNL     1       2.234   0.939  -2.761  0.00  0.00    +0.000 OA
BRANCH   9  10
ATOM     10  C   UNL     1       2.336   1.388  -4.049  0.00  0.00    +0.000 A 
ATOM     11  C   UNL     1       1.404   2.182  -4.719  0.00  0.00    +0.000 A 
ATOM     12  C   UNL     1       1.636   2.571  -6.042  0.00  0.00    +0.000 A 
ATOM     13  C   UNL     1       2.798   2.170  -6.700  0.00  0.00    +0.000 A 
ATOM     14  C   UNL     1       3.731   1.378  -6.035  0.00  0.00    +0.000 A 
ATOM     15  C   UNL     1       3.498   0.990  -4.715  0.00  0.00    +0.000 A 
ENDBRANCH   9  10
ENDBRANCH   1   9
TORSDOF 3
