REMARK  Name = *****
REMARK  2 active torsions:
REMARK  status: ('A' for Active; 'I' for Inactive)
REMARK    1  A    between atoms: C_4  and  S_8
REMARK    2  A    between atoms: S_8  and  C_9
REMARK                            x       y       z     vdW  Elec       q    Type
REMARK                         _______ _______ _______ _____ _____    ______ ____
ROOT
ATOM      1  C   UNL     1      -0.133   0.019   1.350  0.00  0.00    +0.000 C 
ATOM      2  C   UNL     1      -0.040   1.118   0.289  0.00  0.00    +0.000 C 
ATOM      3  C   UNL     1       1.340   0.814  -0.336  0.00  0.00    +0.000 C 
ATOM      4  C   UNL     1       1.373  -0.748  -0.362  0.00  0.00    +0.000 C 
ATOM      5  C   UNL     1       0.031  -1.115   0.330  0.00  0.00    +0.000 C 
ATOM      6  C   UNL     1      -1.078  -0.718  -0.625  0.00  0.00    +0.000 C 
ATOM      7  C   UNL     1      -1.110   0.623  -0.657  0.00  0.00    +0.000 C 
ENDROOT
BRANCH   4   8
ATOM      8  S   UNL     1       2.802  -1.448   0.548  0.00  0.00    +0.000 S 
BRANCH   8   9
ATOM      9  C   UNL     1       4.146  -0.883  -0.481  0.00  0.00    +0.000 A 
ATOM     10  C   UNL     1       5.150  -0.092   0.087  0.00  0.00    +0.000 A 
ATOM     11  C   UNL     1       6.217   0.360  -0.692  0.00  0.00    +0.000 A 
ATOM     12  C   UNL     1       6.292   0.016  -2.040  0.00  0.00    +0.000 A 
ATOM     13  C   UNL     1       5.304  -0.786  -2.609  0.00  0.00    +0.000 A 
ATOM     14  C   UNL     1       4.236  -1.239  -1.830  0.00  0.00    +0.000 A 
ENDBRANCH   8   9
ENDBRANCH   4   8
TORSDOF 2
