REMARK  Name = *****
REMARK  2 active torsions:
REMARK  status: ('A' for Active; 'I' for Inactive)
REMARK    1  A    between atoms: C_2  and  C_9
REMARK    2  A    between atoms: C_3  and  C_4
REMARK                            x       y       z     vdW  Elec       q    Type
REMARK                         _______ _______ _______ _____ _____    ______ ____
ROOT
ATOM      1  C   UNL     1       0.118   0.878  -0.215  0.00  0.00    +0.000 C 
ATOM      2  C   UNL     1       0.797  -0.446  -0.031  0.00  0.00    +0.000 C 
ATOM      3  C   UNL     1      -0.728  -0.360  -0.044  0.00  0.00    +0.000 C 
ENDROOT
BRANCH   2   4
ATOM      4  C   UNL     1       1.516  -0.758   1.261  0.00  0.00    +0.000 A 
ATOM      5  C   UNL     1       1.207  -1.906   2.010  0.00  0.00    +0.000 A 
ATOM      6  C   UNL     1       1.882  -2.206   3.197  0.00  0.00    +0.000 A 
ATOM      7  C   UNL     1       2.888  -1.360   3.651  0.00  0.00    +0.000 A 
ATOM      8  C   UNL     1       3.226  -0.222   2.926  0.00  0.00    +0.000 A 
ATOM      9  C   UNL     1       2.545   0.071   1.740  0.00  0.00    +0.000 A 
ATOM     10 CL   UNL     1       3.722  -1.725   5.110  0.00  0.00    +0.000 Cl
ENDBRANCH   2   4
BRANCH   3  11
ATOM     11  C   UNL     1      -1.492  -0.917  -1.240  0.00  0.00    +0.000 A 
ATOM     12  C   UNL     1      -1.070  -0.894  -2.550  0.00  0.00    +0.000 A 
ATOM     13  S   UNL     1      -2.212  -1.621  -3.600  0.00  0.00    +0.000 S 
ATOM     14  C   UNL     1      -3.271  -1.964  -2.300  0.00  0.00    +0.000 A 
ATOM     15  C   UNL     1      -2.765  -1.534  -1.092  0.00  0.00    +0.000 A 
ENDBRANCH   3  11
TORSDOF 2
