REMARK  Name = *****
REMARK  4 active torsions:
REMARK  status: ('A' for Active; 'I' for Inactive)
REMARK    1  A    between atoms: C_1  and  C_2
REMARK    2  A    between atoms: C_5  and  C_7
REMARK    3  A    between atoms: C_7  and  C_9
REMARK    4  A    between atoms: C_10  and  C_11
REMARK                            x       y       z     vdW  Elec       q    Type
REMARK                         _______ _______ _______ _____ _____    ______ ____
ROOT
ATOM      1  C   UNL     1      -2.994   0.713  -0.202  0.00  0.00    +0.000 C 
ATOM      2  O   UNL     1      -3.149   1.908   0.055  0.00  0.00    +0.000 OA
ENDROOT
BRANCH   1   7
ATOM      3  C   UNL     1       2.171   0.101  -1.243  0.00  0.00    +0.000 C 
ATOM      4  C   UNL     1       0.712  -0.146  -1.064  0.00  0.00    +0.000 A 
ATOM      5  C   UNL     1       0.006  -1.310  -1.275  0.00  0.00    +0.000 A 
ATOM      6  C   UNL     1      -1.386  -1.154  -0.999  0.00  0.00    +0.000 A 
ATOM      7  C   UNL     1      -1.710   0.125  -0.580  0.00  0.00    +0.000 A 
ATOM      8  S   UNL     1      -0.306   1.119  -0.537  0.00  0.00    +0.000 S 
ENDBRANCH   1   7
BRANCH   1   9
ATOM      9  C   UNL     1      -4.182  -0.197  -0.121  0.00  0.00    +0.000 C 
ATOM     10  C   UNL     1      -5.405   0.300   0.123  0.00  0.00    +0.000 C 
BRANCH  10  11
ATOM     11  C   UNL     1      -6.616  -0.526   0.198  0.00  0.00    +0.000 A 
ATOM     12  C   UNL     1      -6.640  -1.756   0.869  0.00  0.00    +0.000 A 
ATOM     13  C   UNL     1      -7.820  -2.503   0.937  0.00  0.00    +0.000 A 
ATOM     14  C   UNL     1      -8.986  -2.023   0.345  0.00  0.00    +0.000 A 
ATOM     15  C   UNL     1      -8.977  -0.793  -0.310  0.00  0.00    +0.000 A 
ATOM     16  C   UNL     1      -7.798  -0.046  -0.378  0.00  0.00    +0.000 A 
ENDBRANCH  10  11
ENDBRANCH   1   9
TORSDOF 3
