REMARK  Name = *****
REMARK  5 active torsions:
REMARK  status: ('A' for Active; 'I' for Inactive)
REMARK    1  A    between atoms: C_1  and  C_2
REMARK    2  A    between atoms: C_2  and  C_13
REMARK    3  A    between atoms: C_4  and  C_5
REMARK    4  A    between atoms: C_7  and  O_11
REMARK    5  A    between atoms: O_11  and  C_12
REMARK                            x       y       z     vdW  Elec       q    Type
REMARK                         _______ _______ _______ _____ _____    ______ ____
ROOT
ATOM      1  C   UNL     1       0.911   0.002  -0.077  0.00  0.00    +0.000 C 
ATOM      2  C   UNL     1       2.416   0.030   0.077  0.00  0.00    +0.000 C 
ATOM      3  C   UNL     1       3.181   0.907  -0.892  0.00  0.00    +0.000 C 
ATOM      4  C   UNL     1       3.322  -0.589  -0.999  0.00  0.00    +0.000 C 
ENDROOT
BRANCH   4   5
ATOM      5  C   UNL     1       2.746  -1.351  -2.172  0.00  0.00    +0.000 A 
ATOM      6  C   UNL     1       2.076  -2.576  -1.975  0.00  0.00    +0.000 A 
ATOM      7  C   UNL     1       1.551  -3.305  -3.045  0.00  0.00    +0.000 A 
ATOM      8  C   UNL     1       1.701  -2.814  -4.341  0.00  0.00    +0.000 A 
ATOM      9  C   UNL     1       2.371  -1.615  -4.568  0.00  0.00    +0.000 A 
ATOM     10  C   UNL     1       2.892  -0.896  -3.492  0.00  0.00    +0.000 A 
BRANCH   7  11
ATOM     11  O   UNL     1       0.881  -4.494  -2.957  0.00  0.00    +0.000 OA
ATOM     12  C   UNL     1       0.710  -5.042  -1.656  0.00  0.00    +0.000 C 
ENDBRANCH   7  11
ENDBRANCH   4   5
BRANCH   2  13
ATOM     13  C   UNL     1       2.893  -0.054   1.523  0.00  0.00    +0.000 A 
ATOM     14  C   UNL     1       3.152  -1.293   2.135  0.00  0.00    +0.000 A 
ATOM     15  C   UNL     1       3.575  -1.376   3.464  0.00  0.00    +0.000 A 
ATOM     16  C   UNL     1       3.745  -0.216   4.214  0.00  0.00    +0.000 A 
ATOM     17  C   UNL     1       3.489   1.023   3.636  0.00  0.00    +0.000 A 
ATOM     18  C   UNL     1       3.065   1.100   2.307  0.00  0.00    +0.000 A 
ENDBRANCH   2  13
TORSDOF 3
