REMARK  Name = *****
REMARK  3 active torsions:
REMARK  status: ('A' for Active; 'I' for Inactive)
REMARK    1  A    between atoms: C_5  and  S_7
REMARK    2  A    between atoms: S_7  and  S_8
REMARK    3  A    between atoms: S_8  and  C_11
REMARK                            x       y       z     vdW  Elec       q    Type
REMARK                         _______ _______ _______ _____ _____    ______ ____
ROOT
ATOM      1  S   UNL     1      -2.692  -2.334  -0.132  0.00  0.00    +0.000 S 
ATOM      2  O   UNL     1      -2.696  -1.864   1.238  0.00  0.00    +0.000 OA
ATOM      3  O   UNL     1      -3.313  -1.537  -1.176  0.00  0.00    +0.000 OA
ENDROOT
BRANCH   1   4
ATOM      4  C   UNL     1      -3.455  -3.936  -0.169  0.00  0.00    +0.000 A 
ATOM      5  C   UNL     1      -4.483  -4.159  -1.100  0.00  0.00    +0.000 A 
ATOM      6  C   UNL     1      -5.122  -5.398  -1.159  0.00  0.00    +0.000 A 
ATOM      7  C   UNL     1      -4.744  -6.415  -0.287  0.00  0.00    +0.000 A 
ATOM      8  C   UNL     1      -3.728  -6.193   0.644  0.00  0.00    +0.000 A 
ATOM      9  C   UNL     1      -3.079  -4.953   0.712  0.00  0.00    +0.000 A 
ATOM     10 CL   UNL     1      -1.838  -4.802   1.900  0.00  0.00    +0.000 Cl
ENDBRANCH   1   4
BRANCH   1  11
ATOM     11  S   UNL     1      -0.723  -2.676  -0.762  0.00  0.00    +0.000 S 
BRANCH  11  16
ATOM     12  C   UNL     1       0.407   1.200  -1.154  0.00  0.00    +0.000 A 
ATOM     13  C   UNL     1       1.097   1.470   0.025  0.00  0.00    +0.000 A 
ATOM     14  C   UNL     1       1.248   0.470   0.985  0.00  0.00    +0.000 A 
ATOM     15  C   UNL     1       0.706  -0.802   0.771  0.00  0.00    +0.000 A 
ATOM     16  C   UNL     1       0.003  -1.082  -0.412  0.00  0.00    +0.000 A 
ATOM     17  C   UNL     1      -0.135  -0.068  -1.373  0.00  0.00    +0.000 A 
ATOM     18 CL   UNL     1       0.955  -1.988   2.006  0.00  0.00    +0.000 Cl
ENDBRANCH  11  16
ENDBRANCH   1  11
TORSDOF 3
