REMARK  Name = *****
REMARK  4 active torsions:
REMARK  status: ('A' for Active; 'I' for Inactive)
REMARK    1  A    between atoms: C_4  and  N_7
REMARK    2  A    between atoms: C_8  and  C_9
REMARK    3  A    between atoms: C_8  and  O_11
REMARK    4  A    between atoms: O_11  and  C_12
REMARK                            x       y       z     vdW  Elec       q    Type
REMARK                         _______ _______ _______ _____ _____    ______ ____
ROOT
ATOM      1  N   UNL     1      -2.626   0.458  -0.302  0.00  0.00    +0.000 NA
ATOM      2  C   UNL     1      -3.510  -0.492  -0.351  0.00  0.00    +0.000 C 
ENDROOT
BRANCH   1   6
ATOM      3  C   UNL     1       1.423  -0.382   0.430  0.00  0.00    +0.000 A 
ATOM      4  C   UNL     1       0.936  -0.387  -0.876  0.00  0.00    +0.000 A 
ATOM      5  C   UNL     1      -0.410  -0.107  -1.119  0.00  0.00    +0.000 A 
ATOM      6  C   UNL     1      -1.278   0.164  -0.058  0.00  0.00    +0.000 A 
ATOM      7  C   UNL     1      -0.778   0.191   1.246  0.00  0.00    +0.000 A 
ATOM      8  C   UNL     1       0.568  -0.088   1.491  0.00  0.00    +0.000 A 
ENDBRANCH   1   6
BRANCH   2   9
ATOM      9  C   UNL     1      -3.142  -1.881  -0.151  0.00  0.00    +0.000 C 
ATOM     10  N   UNL     1      -2.873  -3.002   0.005  0.00  0.00    +0.000 NA
ENDBRANCH   2   9
BRANCH   2  11
ATOM     11  O   UNL     1      -4.866  -0.313  -0.585  0.00  0.00    +0.000 OA
BRANCH  11  12
ATOM     12  C   UNL     1      -5.295   1.004  -0.795  0.00  0.00    +0.000 A 
ATOM     13  C   UNL     1      -4.980   1.674  -1.976  0.00  0.00    +0.000 A 
ATOM     14  C   UNL     1      -5.469   2.964  -2.176  0.00  0.00    +0.000 A 
ATOM     15  C   UNL     1      -6.279   3.563  -1.208  0.00  0.00    +0.000 A 
ATOM     16  C   UNL     1      -6.607   2.872  -0.039  0.00  0.00    +0.000 A 
ATOM     17  C   UNL     1      -6.120   1.582   0.168  0.00  0.00    +0.000 A 
ENDBRANCH  11  12
ENDBRANCH   2  11
TORSDOF 4
