REMARK  Name = *****
REMARK  3 active torsions:
REMARK  status: ('A' for Active; 'I' for Inactive)
REMARK    1  A    between atoms: C_4  and  S_7
REMARK    2  A    between atoms: S_7  and  C_8
REMARK    3  A    between atoms: C_9  and  C_10
REMARK                            x       y       z     vdW  Elec       q    Type
REMARK                         _______ _______ _______ _____ _____    ______ ____
ROOT
ATOM      1  C   UNL     1       3.533  -2.395  -0.256  0.00  0.00    +0.000 C 
ATOM      2  C   UNL     1       3.819  -3.479   0.174  0.00  0.00    +0.000 C 
ENDROOT
BRANCH   2   3
ATOM      3  C   UNL     1       4.151  -4.772   0.686  0.00  0.00    +0.000 A 
ATOM      4  C   UNL     1       5.314  -4.949   1.440  0.00  0.00    +0.000 A 
ATOM      5  C   UNL     1       5.636  -6.213   1.940  0.00  0.00    +0.000 A 
ATOM      6  C   UNL     1       4.797  -7.298   1.688  0.00  0.00    +0.000 A 
ATOM      7  C   UNL     1       3.636  -7.123   0.936  0.00  0.00    +0.000 A 
ATOM      8  C   UNL     1       3.312  -5.860   0.435  0.00  0.00    +0.000 A 
ENDBRANCH   2   3
BRANCH   1   9
ATOM      9  S   UNL     1       3.120  -0.872  -0.862  0.00  0.00    +0.000 S 
BRANCH   9  13
ATOM     10  C   UNL     1      -1.296   0.252   0.007  0.00  0.00    +0.000 C 
ATOM     11  C   UNL     1      -0.927  -1.228   0.049  0.00  0.00    +0.000 C 
ATOM     12  C   UNL     1       0.425  -1.492  -0.614  0.00  0.00    +0.000 C 
ATOM     13  C   UNL     1       1.528  -0.627   0.009  0.00  0.00    +0.000 C 
ATOM     14  C   UNL     1       1.155   0.860  -0.051  0.00  0.00    +0.000 C 
ATOM     15  C   UNL     1      -0.197   1.121   0.611  0.00  0.00    +0.000 C 
ENDBRANCH   9  13
ENDBRANCH   1   9
TORSDOF 3
