REMARK  Name = *****
REMARK  4 active torsions:
REMARK  status: ('A' for Active; 'I' for Inactive)
REMARK    1  A    between atoms: C_1  and  C_2
REMARK    2  A    between atoms: C_2  and  C_13
REMARK    3  A    between atoms: C_3  and  C_6
REMARK    4  A    between atoms: C_9  and  O_12
REMARK                            x       y       z     vdW  Elec       q    Type
REMARK                         _______ _______ _______ _____ _____    ______ ____
ROOT
ATOM      1  C   UNL     1       0.906  -0.134  -0.075  0.00  0.00    +0.000 C 
ATOM      2  C   UNL     1       2.405  -0.068   0.059  0.00  0.00    +0.000 C 
ATOM      3  C   UNL     1       3.220   0.768  -1.060  0.00  0.00    +0.000 C 
ATOM      4  C   UNL     1       3.200  -0.641  -0.968  0.00  0.00    +0.000 C 
ATOM      5  C   UNL     1       3.615  -1.761  -1.523  0.00  0.00    +0.000 C 
ENDROOT
BRANCH   3   6
ATOM      6  C   UNL     1       4.447   1.567  -0.679  0.00  0.00    +0.000 A 
ATOM      7  C   UNL     1       5.726   1.009  -0.494  0.00  0.00    +0.000 A 
ATOM      8  C   UNL     1       6.830   1.794  -0.143  0.00  0.00    +0.000 A 
ATOM      9  C   UNL     1       6.670   3.163   0.021  0.00  0.00    +0.000 A 
ATOM     10  C   UNL     1       5.429   3.754  -0.161  0.00  0.00    +0.000 A 
ATOM     11  C   UNL     1       4.333   2.961  -0.508  0.00  0.00    +0.000 A 
BRANCH   9  12
ATOM     12  O   UNL     1       7.716   3.967   0.364  0.00  0.00    +0.000 OA
ATOM     13  H   UNL     1       8.567   3.598   0.494  0.00  0.00    +0.000 HD
ENDBRANCH   9  12
ENDBRANCH   3   6
BRANCH   2  14
ATOM     14  C   UNL     1       2.937  -0.145   1.485  0.00  0.00    +0.000 A 
ATOM     15  C   UNL     1       3.333  -1.361   2.072  0.00  0.00    +0.000 A 
ATOM     16  C   UNL     1       3.798  -1.425   3.389  0.00  0.00    +0.000 A 
ATOM     17  C   UNL     1       3.867  -0.269   4.160  0.00  0.00    +0.000 A 
ATOM     18  C   UNL     1       3.466   0.946   3.615  0.00  0.00    +0.000 A 
ATOM     19  C   UNL     1       3.001   1.002   2.298  0.00  0.00    +0.000 A 
ENDBRANCH   2  14
TORSDOF 3
