REMARK  Name = *****
REMARK  2 active torsions:
REMARK  status: ('A' for Active; 'I' for Inactive)
REMARK    1  A    between atoms: C_5  and  S_6
REMARK    2  A    between atoms: S_6  and  C_7
REMARK                            x       y       z     vdW  Elec       q    Type
REMARK                         _______ _______ _______ _____ _____    ______ ____
ROOT
ATOM      1  S   UNL     1      -1.647   3.777   1.226  0.00  0.00    +0.000 S 
ENDROOT
BRANCH   1   6
ATOM      2  C   UNL     1       1.340  -0.582   1.995  0.00  0.00    +0.000 C 
ATOM      3  C   UNL     1      -0.121  -0.860   2.302  0.00  0.00    +0.000 C 
ATOM      4  S   UNL     1      -0.959   0.741   2.486  0.00  0.00    +0.000 S 
ATOM      5  C   UNL     1      -0.013   1.571   1.277  0.00  0.00    +0.000 C 
ATOM      6  C   UNL     1      -0.291   2.787   0.777  0.00  0.00    +0.000 C 
ATOM      7  S   UNL     1       1.400   0.706   0.712  0.00  0.00    +0.000 S 
ENDBRANCH   1   6
BRANCH   1   8
ATOM      8  C   UNL     1      -1.262   5.235   0.277  0.00  0.00    +0.000 A 
ATOM      9  C   UNL     1      -1.819   5.414  -0.993  0.00  0.00    +0.000 A 
ATOM     10  C   UNL     1      -1.519   6.558  -1.737  0.00  0.00    +0.000 A 
ATOM     11  C   UNL     1      -0.666   7.528  -1.212  0.00  0.00    +0.000 A 
ATOM     12  C   UNL     1      -0.114   7.358   0.057  0.00  0.00    +0.000 A 
ATOM     13  C   UNL     1      -0.414   6.216   0.802  0.00  0.00    +0.000 A 
ENDBRANCH   1   8
TORSDOF 2
