REMARK  Name = *****
REMARK  4 active torsions:
REMARK  status: ('A' for Active; 'I' for Inactive)
REMARK    1  A    between atoms: C_1  and  C_2
REMARK    2  A    between atoms: C_3  and  C_12
REMARK    3  A    between atoms: C_4  and  C_11
REMARK    4  A    between atoms: N_13  and  C_14
REMARK                            x       y       z     vdW  Elec       q    Type
REMARK                         _______ _______ _______ _____ _____    ______ ____
ROOT
ATOM      1  C   UNL     1       1.012   0.163   0.024  0.00  0.00    +0.000 C 
ATOM      2  C   UNL     1       2.510   0.019   0.042  0.00  0.00    +0.000 A 
ATOM      3  C   UNL     1       3.176  -1.221  -0.116  0.00  0.00    +0.000 A 
ATOM      4  C   UNL     1       4.592  -1.280  -0.108  0.00  0.00    +0.000 A 
ATOM      5  C   UNL     1       5.312  -0.090   0.060  0.00  0.00    +0.000 A 
ATOM      6  C   UNL     1       4.668   1.125   0.231  0.00  0.00    +0.000 A 
ATOM      7  C   UNL     1       3.283   1.175   0.226  0.00  0.00    +0.000 A 
ATOM      8  F   UNL     1       2.680   2.362   0.389  0.00  0.00    +0.000 F 
ATOM      9  F   UNL     1       5.382   2.247   0.397  0.00  0.00    +0.000 F 
ATOM     10  F   UNL     1       6.654  -0.119   0.062  0.00  0.00    +0.000 F 
ATOM     11  C   UNL     1       5.356  -2.567  -0.269  0.00  0.00    +0.000 C 
ENDROOT
BRANCH   3  12
ATOM     12  C   UNL     1       2.428  -2.494  -0.300  0.00  0.00    +0.000 C 
ATOM     13  N   UNL     1       1.211  -2.662   0.112  0.00  0.00    +0.000 NA
BRANCH  13  14
ATOM     14  C   UNL     1       0.650  -3.924  -0.128  0.00  0.00    +0.000 A 
ATOM     15  C   UNL     1       0.648  -4.890   0.880  0.00  0.00    +0.000 A 
ATOM     16  C   UNL     1       0.081  -6.146   0.655  0.00  0.00    +0.000 A 
ATOM     17  C   UNL     1      -0.496  -6.437  -0.581  0.00  0.00    +0.000 A 
ATOM     18  C   UNL     1      -0.513  -5.472  -1.587  0.00  0.00    +0.000 A 
ATOM     19  C   UNL     1       0.054  -4.216  -1.357  0.00  0.00    +0.000 A 
ENDBRANCH  13  14
ENDBRANCH   3  12
TORSDOF 2
