REMARK  Name = *****
REMARK  5 active torsions:
REMARK  status: ('A' for Active; 'I' for Inactive)
REMARK    1  A    between atoms: C_1  and  C_2
REMARK    2  A    between atoms: C_7  and  C_8
REMARK    3  A    between atoms: C_8  and  O_9
REMARK    4  A    between atoms: O_9  and  C_10
REMARK    5  A    between atoms: C_10  and  C_11
REMARK                            x       y       z     vdW  Elec       q    Type
REMARK                         _______ _______ _______ _____ _____    ______ ____
ROOT
ATOM      1  C   UNL     1       1.439  -1.959   0.761  0.00  0.00    +0.000 C 
ENDROOT
BRANCH   1   8
ATOM      2  C   UNL     1       1.267   0.532  -0.888  0.00  0.00    +0.000 C 
ATOM      3  C   UNL     1       2.538   0.226  -0.094  0.00  0.00    +0.000 C 
ATOM      4  C   UNL     1       2.611   1.081   1.151  0.00  0.00    +0.000 C 
ATOM      5  C   UNL     1       3.124   0.646   2.312  0.00  0.00    +0.000 C 
ATOM      6  C   UNL     1       3.711  -0.725   2.495  0.00  0.00    +0.000 C 
ATOM      7  C   UNL     1       3.910  -1.468   1.172  0.00  0.00    +0.000 C 
ATOM      8  C   UNL     1       2.713  -1.287   0.215  0.00  0.00    +0.000 C 
ENDBRANCH   1   8
BRANCH   1   9
ATOM      9  O   UNL     1       1.715  -3.329   1.053  0.00  0.00    +0.000 OA
BRANCH   9  10
ATOM     10  C   UNL     1       0.570  -4.000   1.576  0.00  0.00    +0.000 C 
BRANCH  10  11
ATOM     11  C   UNL     1       0.929  -5.420   1.934  0.00  0.00    +0.000 A 
ATOM     12  C   UNL     1       2.113  -5.707   2.630  0.00  0.00    +0.000 A 
ATOM     13  C   UNL     1       2.425  -7.018   2.994  0.00  0.00    +0.000 A 
ATOM     14  C   UNL     1       1.553  -8.057   2.674  0.00  0.00    +0.000 A 
ATOM     15  C   UNL     1       0.369  -7.785   1.992  0.00  0.00    +0.000 A 
ATOM     16  C   UNL     1       0.055  -6.474   1.628  0.00  0.00    +0.000 A 
ENDBRANCH  10  11
ENDBRANCH   9  10
ENDBRANCH   1   9
TORSDOF 4
