REMARK  Name = *****
REMARK  2 active torsions:
REMARK  status: ('A' for Active; 'I' for Inactive)
REMARK    1  A    between atoms: C_5  and  C_6
REMARK    2  A    between atoms: C_6  and  C_7
REMARK                            x       y       z     vdW  Elec       q    Type
REMARK                         _______ _______ _______ _____ _____    ______ ____
ROOT
ATOM      1  C   UNL     1       0.818   1.350  -0.642  0.00  0.00    +0.000 C 
ATOM      2  C   UNL     1       1.593   0.086  -0.290  0.00  0.00    +0.000 C 
ATOM      3  S   UNL     1       0.691  -1.435  -0.692  0.00  0.00    +0.000 S 
ATOM      4  C   UNL     1      -0.765  -1.168   0.213  0.00  0.00    +0.000 C 
ATOM      5  C   UNL     1      -1.231  -2.049   1.114  0.00  0.00    +0.000 C 
ATOM      6  S   UNL     1      -1.698   0.266  -0.112  0.00  0.00    +0.000 S 
ATOM      7  C   UNL     1      -0.440   1.535   0.200  0.00  0.00    +0.000 C 
ENDROOT
BRANCH   5   8
ATOM      8  C   UNL     1      -0.632  -3.363   1.532  0.00  0.00    +0.000 C 
BRANCH   8   9
ATOM      9  C   UNL     1      -0.054  -3.301   2.927  0.00  0.00    +0.000 A 
ATOM     10  C   UNL     1      -0.857  -3.556   4.047  0.00  0.00    +0.000 A 
ATOM     11  C   UNL     1      -0.323  -3.474   5.334  0.00  0.00    +0.000 A 
ATOM     12  C   UNL     1       1.016  -3.133   5.514  0.00  0.00    +0.000 A 
ATOM     13  C   UNL     1       1.822  -2.871   4.409  0.00  0.00    +0.000 A 
ATOM     14  C   UNL     1       1.290  -2.951   3.121  0.00  0.00    +0.000 A 
ENDBRANCH   8   9
ENDBRANCH   5   8
TORSDOF 2
