REMARK  Name = *****
REMARK  7 active torsions:
REMARK  status: ('A' for Active; 'I' for Inactive)
REMARK    1  A    between atoms: C_1  and  C_2
REMARK    2  A    between atoms: C_4  and  C_19
REMARK    3  A    between atoms: C_5  and  C_9
REMARK    4  A    between atoms: C_6  and  C_8
REMARK    5  A    between atoms: C_9  and  C_10
REMARK    6  A    between atoms: C_9  and  C_11
REMARK    7  A    between atoms: C_11  and  C_13
REMARK                            x       y       z     vdW  Elec       q    Type
REMARK                         _______ _______ _______ _____ _____    ______ ____
ROOT
ATOM      1  C   UNL     1      -1.977  -2.080  -0.138  0.00  0.00    +0.000 C 
ATOM      2  C   UNL     1      -2.535  -2.368   1.263  0.00  0.00    +0.000 C 
ENDROOT
BRANCH   1   7
ATOM      3  C   UNL     1       2.000   2.247   0.083  0.00  0.00    +0.000 C 
ATOM      4  C   UNL     1       0.980   1.150   0.009  0.00  0.00    +0.000 A 
ATOM      5  C   UNL     1       1.365  -0.185   0.100  0.00  0.00    +0.000 A 
ATOM      6  C   UNL     1       0.416  -1.223   0.067  0.00  0.00    +0.000 A 
ATOM      7  C   UNL     1      -0.970  -0.924  -0.076  0.00  0.00    +0.000 A 
ATOM      8  C   UNL     1      -1.362   0.440  -0.105  0.00  0.00    +0.000 A 
ATOM      9  C   UNL     1      -0.380   1.449  -0.076  0.00  0.00    +0.000 A 
ATOM     10  C   UNL     1      -2.795   0.902  -0.195  0.00  0.00    +0.000 C 
ATOM     11  C   UNL     1       0.938  -2.636   0.174  0.00  0.00    +0.000 C 
ENDBRANCH   1   7
BRANCH   1  12
ATOM     12  C   UNL     1      -3.105  -1.935  -1.164  0.00  0.00    +0.000 C 
ATOM     13  O   UNL     1      -4.285  -1.834  -0.817  0.00  0.00    +0.000 OA
BRANCH  12  14
ATOM     14  C   UNL     1      -2.805  -1.969  -2.635  0.00  0.00    +0.000 A 
ATOM     15  C   UNL     1      -3.887  -1.913  -3.528  0.00  0.00    +0.000 A 
ATOM     16  C   UNL     1      -3.678  -1.956  -4.908  0.00  0.00    +0.000 A 
ATOM     17  C   UNL     1      -2.384  -2.052  -5.412  0.00  0.00    +0.000 A 
ATOM     18  C   UNL     1      -1.301  -2.107  -4.536  0.00  0.00    +0.000 A 
ATOM     19  C   UNL     1      -1.509  -2.068  -3.153  0.00  0.00    +0.000 A 
ENDBRANCH  12  14
ENDBRANCH   1  12
TORSDOF 3
