REMARK  Name = *****
REMARK  5 active torsions:
REMARK  status: ('A' for Active; 'I' for Inactive)
REMARK    1  A    between atoms: C_2  and  C_3
REMARK    2  A    between atoms: C_3  and  C_4
REMARK    3  A    between atoms: C_4  and  N_5
REMARK    4  A    between atoms: C_6  and  C_11
REMARK    5  A    between atoms: C_12  and  C_13
REMARK                            x       y       z     vdW  Elec       q    Type
REMARK                         _______ _______ _______ _____ _____    ______ ____
ROOT
ATOM      1  N   UNL     1       5.026  -1.739  -1.933  0.00  0.00    +0.000 NA
ATOM      2  C   UNL     1       5.975  -1.246  -2.665  0.00  0.00    +0.000 C 
ATOM      3  C   UNL     1       6.865  -2.109  -3.515  0.00  0.00    +0.000 C 
ATOM      4  C   UNL     1       6.858  -3.576  -3.131  0.00  0.00    +0.000 C 
ATOM      5  C   UNL     1       5.423  -4.017  -2.920  0.00  0.00    +0.000 C 
ATOM      6  C   UNL     1       4.801  -3.224  -1.786  0.00  0.00    +0.000 C 
ENDROOT
BRANCH   2   7
ATOM      7  C   UNL     1       6.148   0.182  -2.707  0.00  0.00    +0.000 C 
ATOM      8  C   UNL     1       6.310   1.371  -2.754  0.00  0.00    +0.000 C 
BRANCH   8   9
ATOM      9  C   UNL     1       6.502   2.787  -2.815  0.00  0.00    +0.000 A 
ATOM     10  C   UNL     1       6.307   3.571  -1.674  0.00  0.00    +0.000 A 
ATOM     11  C   UNL     1       6.493   4.955  -1.736  0.00  0.00    +0.000 A 
ATOM     12  C   UNL     1       6.875   5.550  -2.938  0.00  0.00    +0.000 A 
ATOM     13  C   UNL     1       7.073   4.773  -4.078  0.00  0.00    +0.000 A 
ATOM     14  C   UNL     1       6.886   3.389  -4.017  0.00  0.00    +0.000 A 
ATOM     15 CL   UNL     1       7.103   7.252  -3.014  0.00  0.00    +0.000 Cl
ENDBRANCH   8   9
ENDBRANCH   2   7
BRANCH   1  16
ATOM     16  C   UNL     1       4.077  -0.887  -1.114  0.00  0.00    +0.000 C 
BRANCH  16  17
ATOM     17  C   UNL     1       4.683  -0.614   0.262  0.00  0.00    +0.000 C 
BRANCH  17  19
ATOM     18  C   UNL     1       3.197  -0.222   2.243  0.00  0.00    +0.000 C 
ATOM     19  C   UNL     1       3.756   0.210   1.106  0.00  0.00    +0.000 C 
ENDBRANCH  17  19
ENDBRANCH  16  17
ENDBRANCH   1  16
TORSDOF 5
