REMARK  Name = *****
REMARK  3 active torsions:
REMARK  status: ('A' for Active; 'I' for Inactive)
REMARK    1  A    between atoms: C_6  and  C_7
REMARK    2  A    between atoms: C_7  and  O_8
REMARK    3  A    between atoms: O_8  and  C_9
REMARK                            x       y       z     vdW  Elec       q    Type
REMARK                         _______ _______ _______ _____ _____    ______ ____
ROOT
ATOM      1  C   UNL     1      -3.475   0.002  -0.018  0.00  0.00    +0.000 C 
ENDROOT
BRANCH   1   7
ATOM      2  C   UNL     1      -1.233  -0.571  -1.053  0.00  0.00    +0.000 A 
ATOM      3  C   UNL     1       0.162  -0.538  -1.044  0.00  0.00    +0.000 A 
ATOM      4  C   UNL     1       0.828   0.110  -0.011  0.00  0.00    +0.000 A 
ATOM      5  C   UNL     1       0.125   0.728   1.016  0.00  0.00    +0.000 A 
ATOM      6  C   UNL     1      -1.270   0.696   1.009  0.00  0.00    +0.000 A 
ATOM      7  C   UNL     1      -1.964   0.049  -0.027  0.00  0.00    +0.000 A 
ATOM      8  F   UNL     1       2.167   0.138  -0.004  0.00  0.00    +0.000 F 
ENDBRANCH   1   7
BRANCH   1   9
ATOM      9  O   UNL     1      -3.973   1.338  -0.004  0.00  0.00    +0.000 OA
BRANCH   9  10
ATOM     10  C   UNL     1      -5.330   1.499   0.040  0.00  0.00    +0.000 A 
ATOM     11  C   UNL     1      -6.280   0.473   0.065  0.00  0.00    +0.000 A 
ATOM     12  C   UNL     1      -7.643   0.784   0.111  0.00  0.00    +0.000 A 
ATOM     13  C   UNL     1      -8.048   2.114   0.130  0.00  0.00    +0.000 A 
ATOM     14  C   UNL     1      -7.116   3.142   0.104  0.00  0.00    +0.000 A 
ATOM     15  C   UNL     1      -5.757   2.832   0.059  0.00  0.00    +0.000 A 
ATOM     16  F   UNL     1      -9.354   2.405   0.173  0.00  0.00    +0.000 F 
ENDBRANCH   9  10
ENDBRANCH   1   9
TORSDOF 3
