REMARK  Name = *****
REMARK  2 active torsions:
REMARK  status: ('A' for Active; 'I' for Inactive)
REMARK    1  A    between atoms: C_8  and  C_9
REMARK    2  A    between atoms: C_10  and  C_11
REMARK                            x       y       z     vdW  Elec       q    Type
REMARK                         _______ _______ _______ _____ _____    ______ ____
ROOT
ATOM      1  C   UNL     1      -0.588  -1.073  -0.359  0.00  0.00    +0.000 C 
ATOM      2  C   UNL     1      -1.396  -1.911  -1.030  0.00  0.00    +0.000 C 
ENDROOT
BRANCH   1  10
ATOM      3  C   UNL     1       3.363  -1.989   1.093  0.00  0.00    +0.000 C 
ATOM      4  C   UNL     1       3.220  -2.288  -0.412  0.00  0.00    +0.000 C 
ATOM      5  C   UNL     1       4.340  -1.368  -0.883  0.00  0.00    +0.000 C 
ATOM      6  C   UNL     1       4.304  -0.274  -0.097  0.00  0.00    +0.000 C 
ATOM      7  C   UNL     1       3.161  -0.475   0.889  0.00  0.00    +0.000 C 
ATOM      8  C   UNL     1       1.835  -0.405   0.116  0.00  0.00    +0.000 C 
ATOM      9  C   UNL     1       1.875  -1.637  -0.766  0.00  0.00    +0.000 C 
ATOM     10  C   UNL     1       0.723  -1.432   0.198  0.00  0.00    +0.000 C 
ENDBRANCH   1  10
BRANCH   2  11
ATOM     11  C   UNL     1      -2.710  -1.538  -1.569  0.00  0.00    +0.000 A 
ATOM     12  C   UNL     1      -2.934  -0.302  -2.194  0.00  0.00    +0.000 A 
ATOM     13  C   UNL     1      -4.189   0.006  -2.724  0.00  0.00    +0.000 A 
ATOM     14  C   UNL     1      -5.217  -0.924  -2.637  0.00  0.00    +0.000 A 
ATOM     15  C   UNL     1      -5.012  -2.160  -2.036  0.00  0.00    +0.000 A 
ATOM     16  C   UNL     1      -3.757  -2.469  -1.507  0.00  0.00    +0.000 A 
ATOM     17  F   UNL     1      -6.420  -0.629  -3.146  0.00  0.00    +0.000 F 
ENDBRANCH   2  11
TORSDOF 2
