REMARK  Name = *****
REMARK  4 active torsions:
REMARK  status: ('A' for Active; 'I' for Inactive)
REMARK    1  A    between atoms: C_1  and  C_2
REMARK    2  A    between atoms: C_5  and  O_8
REMARK    3  A    between atoms: O_8  and  C_9
REMARK    4  A    between atoms: C_9  and  C_11
REMARK                            x       y       z     vdW  Elec       q    Type
REMARK                         _______ _______ _______ _____ _____    ______ ____
ROOT
ATOM      1  O   UNL     1      -3.218   0.000   0.220  0.00  0.00    +0.000 OA
ENDROOT
BRANCH   1   6
ATOM      2  C   UNL     1       2.470   0.010   0.035  0.00  0.00    +0.000 C 
ATOM      3  C   UNL     1       0.970   0.035   0.053  0.00  0.00    +0.000 A 
ATOM      4  C   UNL     1       0.287   1.155   0.549  0.00  0.00    +0.000 A 
ATOM      5  C   UNL     1      -1.108   1.171   0.597  0.00  0.00    +0.000 A 
ATOM      6  C   UNL     1      -1.819   0.065   0.138  0.00  0.00    +0.000 A 
ATOM      7  C   UNL     1      -1.159  -1.070  -0.326  0.00  0.00    +0.000 A 
ATOM      8  C   UNL     1       0.236  -1.083  -0.369  0.00  0.00    +0.000 A 
ENDBRANCH   1   6
BRANCH   1   9
ATOM      9  C   UNL     1      -3.934   1.014  -0.393  0.00  0.00    +0.000 C 
ATOM     10  O   UNL     1      -3.485   1.958  -1.026  0.00  0.00    +0.000 OA
BRANCH   9  11
ATOM     11  C   UNL     1      -5.392   0.799  -0.176  0.00  0.00    +0.000 A 
ATOM     12  C   UNL     1      -6.281   1.753  -0.692  0.00  0.00    +0.000 A 
ATOM     13  C   UNL     1      -7.659   1.602  -0.517  0.00  0.00    +0.000 A 
ATOM     14  C   UNL     1      -8.156   0.498   0.172  0.00  0.00    +0.000 A 
ATOM     15  C   UNL     1      -7.280  -0.457   0.688  0.00  0.00    +0.000 A 
ATOM     16  C   UNL     1      -5.901  -0.309   0.516  0.00  0.00    +0.000 A 
ENDBRANCH   9  11
ENDBRANCH   1   9
TORSDOF 3
