REMARK  Name = *****
REMARK  2 active torsions:
REMARK  status: ('A' for Active; 'I' for Inactive)
REMARK    1  A    between atoms: C_1  and  C_2
REMARK    2  A    between atoms: C_5  and  N_8
REMARK                            x       y       z     vdW  Elec       q    Type
REMARK                         _______ _______ _______ _____ _____    ______ ____
ROOT
ATOM      1  N   UNL     1      -3.148  -0.106   0.050  0.00  0.00    +0.000 N 
ATOM      2  C   UNL     1      -4.016   0.604  -0.775  0.00  0.00    +0.000 C 
ATOM      3  C   UNL     1      -5.402   0.362  -0.525  0.00  0.00    +0.000 C 
ATOM      4  C   UNL     1      -5.508  -0.549   0.519  0.00  0.00    +0.000 C 
ATOM      5  S   UNL     1      -3.969  -1.063   1.112  0.00  0.00    +0.000 S 
ATOM      6  C   UNL     1      -6.797  -1.082   1.067  0.00  0.00    +0.000 C 
ATOM      7  C   UNL     1      -7.974  -0.206   0.601  0.00  0.00    +0.000 C 
ATOM      8  C   UNL     1      -7.871   0.155  -0.890  0.00  0.00    +0.000 C 
ATOM      9  C   UNL     1      -6.595   0.957  -1.201  0.00  0.00    +0.000 C 
ENDROOT
BRANCH   1  14
ATOM     10  C   UNL     1       2.627   0.201  -0.149  0.00  0.00    +0.000 C 
ATOM     11  C   UNL     1       1.127   0.139  -0.075  0.00  0.00    +0.000 A 
ATOM     12  C   UNL     1       0.343   1.009  -0.839  0.00  0.00    +0.000 A 
ATOM     13  C   UNL     1      -1.054   0.933  -0.798  0.00  0.00    +0.000 A 
ATOM     14  C   UNL     1      -1.677  -0.027   0.006  0.00  0.00    +0.000 A 
ATOM     15  C   UNL     1      -0.897  -0.909   0.764  0.00  0.00    +0.000 A 
ATOM     16  C   UNL     1       0.498  -0.828   0.715  0.00  0.00    +0.000 A 
ENDBRANCH   1  14
TORSDOF 1
