REMARK  Name = *****
REMARK  5 active torsions:
REMARK  status: ('A' for Active; 'I' for Inactive)
REMARK    1  A    between atoms: C_1  and  C_2
REMARK    2  A    between atoms: C_2  and  N_3
REMARK    3  A    between atoms: N_3  and  C_4
REMARK    4  A    between atoms: N_3  and  C_11
REMARK    5  A    between atoms: C_4  and  C_5
REMARK                            x       y       z     vdW  Elec       q    Type
REMARK                         _______ _______ _______ _____ _____    ______ ____
ROOT
ATOM      1  N   UNL     1       3.161  -0.852  -1.043  0.00  0.00    +0.000 N 
ENDROOT
BRANCH   1   2
ATOM      2  C   UNL     1       4.505  -1.078  -1.278  0.00  0.00    +0.000 A 
ATOM      3  C   UNL     1       5.108  -1.295  -2.512  0.00  0.00    +0.000 A 
ATOM      4  C   UNL     1       6.517  -1.499  -2.447  0.00  0.00    +0.000 A 
ATOM      5  C   UNL     1       6.980  -1.428  -1.158  0.00  0.00    +0.000 A 
ATOM      6  S   UNL     1       5.725  -1.111  -0.050  0.00  0.00    +0.000 S 
ENDBRANCH   1   2
BRANCH   1   8
ATOM      7  C   UNL     1       1.554   0.444   0.337  0.00  0.00    +0.000 C 
ATOM      8  C   UNL     1       2.659  -0.607   0.319  0.00  0.00    +0.000 C 
ENDBRANCH   1   8
BRANCH   1   9
ATOM      9  C   UNL     1       2.183  -1.423  -1.991  0.00  0.00    +0.000 C 
BRANCH   9  10
ATOM     10  C   UNL     1       1.774  -0.485  -3.113  0.00  0.00    +0.000 A 
ATOM     11  C   UNL     1       2.212   0.844  -3.207  0.00  0.00    +0.000 A 
ATOM     12  C   UNL     1       1.798   1.662  -4.260  0.00  0.00    +0.000 A 
ATOM     13  C   UNL     1       0.936   1.166  -5.234  0.00  0.00    +0.000 A 
ATOM     14  C   UNL     1       0.488  -0.150  -5.157  0.00  0.00    +0.000 A 
ATOM     15  C   UNL     1       0.903  -0.969  -4.104  0.00  0.00    +0.000 A 
ENDBRANCH   9  10
ENDBRANCH   1   9
TORSDOF 4
