REMARK  Name = *****
REMARK  4 active torsions:
REMARK  status: ('A' for Active; 'I' for Inactive)
REMARK    1  A    between atoms: C_6  and  C_7
REMARK    2  A    between atoms: C_7  and  C_8
REMARK    3  A    between atoms: C_7  and  S_17
REMARK    4  A    between atoms: C_8  and  C_10
REMARK                            x       y       z     vdW  Elec       q    Type
REMARK                         _______ _______ _______ _____ _____    ______ ____
ROOT
ATOM      1  C   UNL     1       3.880  -0.039   0.007  0.00  0.00    +0.000 C 
ENDROOT
BRANCH   1   7
ATOM      2  C   UNL     1       1.506   0.233  -0.908  0.00  0.00    +0.000 A 
ATOM      3  C   UNL     1       0.120   0.239  -0.727  0.00  0.00    +0.000 A 
ATOM      4  C   UNL     1      -0.417  -0.009   0.533  0.00  0.00    +0.000 A 
ATOM      5  C   UNL     1       0.421  -0.257   1.617  0.00  0.00    +0.000 A 
ATOM      6  C   UNL     1       1.806  -0.265   1.437  0.00  0.00    +0.000 A 
ATOM      7  C   UNL     1       2.368  -0.034   0.169  0.00  0.00    +0.000 A 
ATOM      8 CL   UNL     1      -2.122  -0.000   0.755  0.00  0.00    +0.000 Cl
ENDBRANCH   1   7
BRANCH   1   9
ATOM      9  C   UNL     1       4.349  -0.683  -1.302  0.00  0.00    +0.000 C 
ATOM     10  O   UNL     1       4.502  -0.043  -2.345  0.00  0.00    +0.000 OA
BRANCH   9  11
ATOM     11  C   UNL     1       4.610  -2.156  -1.335  0.00  0.00    +0.000 A 
ATOM     12  C   UNL     1       4.096  -3.040  -0.376  0.00  0.00    +0.000 A 
ATOM     13  C   UNL     1       4.375  -4.408  -0.465  0.00  0.00    +0.000 A 
ATOM     14  C   UNL     1       5.159  -4.888  -1.507  0.00  0.00    +0.000 A 
ATOM     15  C   UNL     1       5.670  -4.028  -2.470  0.00  0.00    +0.000 A 
ATOM     16  C   UNL     1       5.393  -2.662  -2.387  0.00  0.00    +0.000 A 
ATOM     17  F   UNL     1       5.422  -6.199  -1.584  0.00  0.00    +0.000 F 
ENDBRANCH   9  11
ENDBRANCH   1   9
BRANCH   1  18
ATOM     18  S   UNL     1       4.541   1.667   0.128  0.00  0.00    +0.000 S 
ATOM     19  H   UNL     1       4.046   2.419  -0.891  0.00  0.00    +0.000 HD
ENDBRANCH   1  18
TORSDOF 4
