REMARK  Name = *****
REMARK  4 active torsions:
REMARK  status: ('A' for Active; 'I' for Inactive)
REMARK    1  A    between atoms: C_1  and  C_2
REMARK    2  A    between atoms: C_4  and  C_8
REMARK    3  A    between atoms: C_5  and  C_7
REMARK    4  A    between atoms: C_9  and  C_10
REMARK                            x       y       z     vdW  Elec       q    Type
REMARK                         _______ _______ _______ _____ _____    ______ ____
ROOT
ATOM      1  C   UNL     1      -1.536   2.462   0.096  0.00  0.00    +0.000 C 
ATOM      2  C   UNL     1      -1.143   3.745   0.168  0.00  0.00    +0.000 C 
ENDROOT
BRANCH   1   6
ATOM      3  C   UNL     1       2.397  -0.757   0.098  0.00  0.00    +0.000 C 
ATOM      4  C   UNL     1       1.104  -0.045   0.080  0.00  0.00    +0.000 A 
ATOM      5  C   UNL     1       0.750   1.285   0.135  0.00  0.00    +0.000 A 
ATOM      6  C   UNL     1      -0.668   1.328   0.075  0.00  0.00    +0.000 A 
ATOM      7  C   UNL     1      -1.086   0.013  -0.012  0.00  0.00    +0.000 A 
ATOM      8  O   UNL     1      -0.009  -0.823  -0.010  0.00  0.00    +0.000 OA
ATOM      9  C   UNL     1      -2.409  -0.641  -0.104  0.00  0.00    +0.000 C 
ENDBRANCH   1   6
BRANCH   2  10
ATOM     10  C   UNL     1      -2.071   4.885   0.181  0.00  0.00    +0.000 A 
ATOM     11  C   UNL     1      -3.252   4.875   0.934  0.00  0.00    +0.000 A 
ATOM     12  C   UNL     1      -4.089   5.992   0.939  0.00  0.00    +0.000 A 
ATOM     13  C   UNL     1      -3.757   7.131   0.209  0.00  0.00    +0.000 A 
ATOM     14  C   UNL     1      -2.575   7.156  -0.529  0.00  0.00    +0.000 A 
ATOM     15  C   UNL     1      -1.734   6.041  -0.537  0.00  0.00    +0.000 A 
ATOM     16 CL   UNL     1      -5.542   5.965   1.861  0.00  0.00    +0.000 Cl
ENDBRANCH   2  10
TORSDOF 2
