REMARK  Name = *****
REMARK  6 active torsions:
REMARK  status: ('A' for Active; 'I' for Inactive)
REMARK    1  A    between atoms: C_1  and  C_2
REMARK    2  A    between atoms: C_7  and  C_8
REMARK    3  A    between atoms: C_8  and  O_9
REMARK    4  A    between atoms: O_9  and  C_10
REMARK    5  A    between atoms: C_10  and  C_12
REMARK    6  A    between atoms: C_17  and  C_18
REMARK                            x       y       z     vdW  Elec       q    Type
REMARK                         _______ _______ _______ _____ _____    ______ ____
ROOT
ATOM      1  O   UNL     1       1.839  -3.005  -0.409  0.00  0.00    +0.000 OA
ENDROOT
BRANCH   1   2
ATOM      2  C   UNL     1       2.955  -3.569   0.114  0.00  0.00    +0.000 C 
ATOM      3  O   UNL     1       3.083  -4.006   1.245  0.00  0.00    +0.000 OA
BRANCH   2   4
ATOM      4  C   UNL     1       4.015  -3.609  -0.933  0.00  0.00    +0.000 A 
ATOM      5  C   UNL     1       4.103  -2.550  -1.854  0.00  0.00    +0.000 A 
ATOM      6  C   UNL     1       5.097  -2.541  -2.831  0.00  0.00    +0.000 A 
ATOM      7  C   UNL     1       6.016  -3.584  -2.894  0.00  0.00    +0.000 A 
ATOM      8  C   UNL     1       5.942  -4.637  -1.981  0.00  0.00    +0.000 A 
ATOM      9  C   UNL     1       4.942  -4.670  -0.994  0.00  0.00    +0.000 A 
ATOM     10  C   UNL     1       4.911  -5.825  -0.031  0.00  0.00    +0.000 C 
ENDBRANCH   2   4
ENDBRANCH   1   2
BRANCH   1  11
ATOM     11  C   UNL     1       0.741  -2.841   0.495  0.00  0.00    +0.000 C 
BRANCH  11  18
ATOM     12  C   UNL     1      -0.330  -0.526  -1.101  0.00  0.00    +0.000 C 
ATOM     13  C   UNL     1       0.248  -0.339   0.275  0.00  0.00    +0.000 A 
ATOM     14  C   UNL     1       0.289   0.951   0.828  0.00  0.00    +0.000 A 
ATOM     15  C   UNL     1       0.824   1.169   2.098  0.00  0.00    +0.000 A 
ATOM     16  C   UNL     1       1.328   0.100   2.831  0.00  0.00    +0.000 A 
ATOM     17  C   UNL     1       1.289  -1.187   2.299  0.00  0.00    +0.000 A 
ATOM     18  C   UNL     1       0.739  -1.427   1.027  0.00  0.00    +0.000 A 
ENDBRANCH  11  18
ENDBRANCH   1  11
TORSDOF 4
