REMARK  Name = *****
REMARK  5 active torsions:
REMARK  status: ('A' for Active; 'I' for Inactive)
REMARK    1  A    between atoms: C_1  and  C_2
REMARK    2  A    between atoms: C_5  and  C_7
REMARK    3  A    between atoms: C_8  and  C_9
REMARK    4  A    between atoms: C_12  and  O_15
REMARK    5  A    between atoms: O_15  and  C_16
REMARK                            x       y       z     vdW  Elec       q    Type
REMARK                         _______ _______ _______ _____ _____    ______ ____
ROOT
ATOM      1  C   UNL     1      -2.947   0.628   0.002  0.00  0.00    +0.000 C 
ATOM      2  C   UNL     1      -4.087  -0.079  -0.049  0.00  0.00    +0.000 C 
ENDROOT
BRANCH   1   7
ATOM      3  C   UNL     1       2.284  -0.069   0.071  0.00  0.00    +0.000 C 
ATOM      4  C   UNL     1       0.813  -0.303   0.046  0.00  0.00    +0.000 A 
ATOM      5  C   UNL     1       0.136  -1.501   0.016  0.00  0.00    +0.000 A 
ATOM      6  C   UNL     1      -1.278  -1.320  -0.003  0.00  0.00    +0.000 A 
ATOM      7  C   UNL     1      -1.660   0.011   0.013  0.00  0.00    +0.000 A 
ATOM      8  S   UNL     1      -0.261   1.024   0.052  0.00  0.00    +0.000 S 
ENDBRANCH   1   7
BRANCH   2   9
ATOM      9  C   UNL     1      -5.423   0.535  -0.058  0.00  0.00    +0.000 A 
ATOM     10  C   UNL     1      -5.714   1.683  -0.806  0.00  0.00    +0.000 A 
ATOM     11  C   UNL     1      -7.006   2.225  -0.817  0.00  0.00    +0.000 A 
ATOM     12  C   UNL     1      -8.027   1.618  -0.087  0.00  0.00    +0.000 A 
ATOM     13  C   UNL     1      -7.745   0.464   0.646  0.00  0.00    +0.000 A 
ATOM     14  C   UNL     1      -6.457  -0.078   0.657  0.00  0.00    +0.000 A 
BRANCH  12  15
ATOM     15  O   UNL     1      -9.325   2.041  -0.013  0.00  0.00    +0.000 OA
ATOM     16  C   UNL     1      -9.658   3.224  -0.728  0.00  0.00    +0.000 C 
ENDBRANCH  12  15
ENDBRANCH   2   9
TORSDOF 3
