REMARK  Name = *****
REMARK  4 active torsions:
REMARK  status: ('A' for Active; 'I' for Inactive)
REMARK    1  A    between atoms: C_1  and  N_2
REMARK    2  A    between atoms: N_2  and  C_3
REMARK    3  A    between atoms: N_2  and  P_9
REMARK    4  A    between atoms: P_9  and  C_10
REMARK                            x       y       z     vdW  Elec       q    Type
REMARK                         _______ _______ _______ _____ _____    ______ ____
ROOT
ATOM      1  C   UNL     1       0.814  -0.374  -0.400  0.00  0.00    +0.000 C 
ATOM      2  N   UNL     1       2.271  -0.531  -0.297  0.00  0.00    +0.000 NA
ENDROOT
BRANCH   2   3
ATOM      3  C   UNL     1       2.705  -1.123   0.991  0.00  0.00    +0.000 C 
ATOM      4  C   UNL     1       1.998  -2.439   1.381  0.00  0.00    +0.000 C 
ATOM      5  C   UNL     1       2.542  -2.993   2.698  0.00  0.00    +0.000 C 
ATOM      6  C   UNL     1       2.445  -1.968   3.824  0.00  0.00    +0.000 C 
ATOM      7  C   UNL     1       3.127  -0.656   3.451  0.00  0.00    +0.000 C 
ATOM      8  C   UNL     1       2.589  -0.092   2.135  0.00  0.00    +0.000 C 
ENDBRANCH   2   3
BRANCH   2   9
ATOM      9  P   UNL     1       3.009  -1.172  -1.716  0.00  0.00    +0.000 P 
ATOM     10 CL   UNL     1       5.106  -1.187  -1.536  0.00  0.00    +0.000 Cl
BRANCH   9  11
ATOM     11  C   UNL     1       2.836   0.287  -2.816  0.00  0.00    +0.000 A 
ATOM     12  C   UNL     1       3.226   1.575  -2.417  0.00  0.00    +0.000 A 
ATOM     13  C   UNL     1       3.080   2.665  -3.279  0.00  0.00    +0.000 A 
ATOM     14  C   UNL     1       2.543   2.481  -4.551  0.00  0.00    +0.000 A 
ATOM     15  C   UNL     1       2.154   1.208  -4.963  0.00  0.00    +0.000 A 
ATOM     16  C   UNL     1       2.300   0.117  -4.102  0.00  0.00    +0.000 A 
ENDBRANCH   9  11
ENDBRANCH   2   9
TORSDOF 3
