REMARK  Name = *****
REMARK  5 active torsions:
REMARK  status: ('A' for Active; 'I' for Inactive)
REMARK    1  A    between atoms: C_1  and  C_2
REMARK    2  A    between atoms: C_3  and  S_7
REMARK    3  A    between atoms: S_7  and  S_8
REMARK    4  A    between atoms: S_8  and  C_9
REMARK    5  A    between atoms: C_10  and  C_14
REMARK                            x       y       z     vdW  Elec       q    Type
REMARK                         _______ _______ _______ _____ _____    ______ ____
ROOT
ATOM      1  S   UNL     1      -0.069  -2.961   1.530  0.00  0.00    +0.000 S 
ENDROOT
BRANCH   1   4
ATOM      2  C   UNL     1       1.528   0.148   1.863  0.00  0.00    +0.000 C 
ATOM      3  C   UNL     1       0.844  -0.433   0.689  0.00  0.00    +0.000 A 
ATOM      4  C   UNL     1       0.193  -1.623   0.444  0.00  0.00    +0.000 A 
ATOM      5  C   UNL     1      -0.259  -1.573  -0.895  0.00  0.00    +0.000 A 
ATOM      6  C   UNL     1       0.158  -0.359  -1.390  0.00  0.00    +0.000 A 
ATOM      7  O   UNL     1       0.830   0.339  -0.438  0.00  0.00    +0.000 OA
ENDBRANCH   1   4
BRANCH   1   8
ATOM      8  S   UNL     1       1.833  -3.641   1.910  0.00  0.00    +0.000 S 
BRANCH   8   9
ATOM      9  C   UNL     1       2.180  -4.618   0.486  0.00  0.00    +0.000 A 
ATOM     10  C   UNL     1       1.813  -5.938   0.311  0.00  0.00    +0.000 A 
ATOM     11  S   UNL     1       2.329  -6.524  -1.218  0.00  0.00    +0.000 S 
ATOM     12  C   UNL     1       3.047  -5.028  -1.626  0.00  0.00    +0.000 A 
ATOM     13  C   UNL     1       2.898  -4.094  -0.626  0.00  0.00    +0.000 A 
ATOM     14  C   UNL     1       1.062  -6.840   1.233  0.00  0.00    +0.000 C 
ENDBRANCH   8   9
ENDBRANCH   1   8
TORSDOF 3
