REMARK  Name = *****
REMARK  5 active torsions:
REMARK  status: ('A' for Active; 'I' for Inactive)
REMARK    1  A    between atoms: C_1  and  C_2
REMARK    2  A    between atoms: C_7  and  C_8
REMARK    3  A    between atoms: C_9  and  C_10
REMARK    4  A    between atoms: C_15  and  C_16
REMARK    5  A    between atoms: C_16  and  C_18
REMARK                            x       y       z     vdW  Elec       q    Type
REMARK                         _______ _______ _______ _____ _____    ______ ____
ROOT
ATOM      1  C   UNL     1       1.150  -2.358   0.041  0.00  0.00    +0.000 C 
ATOM      2  C   UNL     1       2.432  -2.544  -0.312  0.00  0.00    +0.000 C 
ENDROOT
BRANCH   1   9
ATOM      3  C   UNL     1      -1.594  -2.324  -1.089  0.00  0.00    +0.000 C 
ATOM      4  C   UNL     1      -0.876  -1.065  -0.678  0.00  0.00    +0.000 A 
ATOM      5  C   UNL     1      -1.541   0.166  -0.813  0.00  0.00    +0.000 A 
ATOM      6  C   UNL     1      -0.923   1.358  -0.436  0.00  0.00    +0.000 A 
ATOM      7  C   UNL     1       0.364   1.336   0.090  0.00  0.00    +0.000 A 
ATOM      8  C   UNL     1       1.034   0.121   0.236  0.00  0.00    +0.000 A 
ATOM      9  C   UNL     1       0.432  -1.088  -0.152  0.00  0.00    +0.000 A 
ENDBRANCH   1   9
BRANCH   2  10
ATOM     10  C   UNL     1       3.091  -3.840  -0.122  0.00  0.00    +0.000 A 
ATOM     11  C   UNL     1       4.047  -3.934   0.901  0.00  0.00    +0.000 A 
ATOM     12  C   UNL     1       4.666  -5.153   1.191  0.00  0.00    +0.000 A 
ATOM     13  C   UNL     1       4.331  -6.296   0.470  0.00  0.00    +0.000 A 
ATOM     14  C   UNL     1       3.387  -6.220  -0.553  0.00  0.00    +0.000 A 
ATOM     15  C   UNL     1       2.780  -4.993  -0.864  0.00  0.00    +0.000 A 
BRANCH  15  16
ATOM     16  C   UNL     1       1.816  -4.994  -1.991  0.00  0.00    +0.000 C 
ATOM     17  O   UNL     1       0.941  -5.856  -2.036  0.00  0.00    +0.000 OA
ATOM     18  C   UNL     1       1.985  -3.972  -3.084  0.00  0.00    +0.000 C 
ENDBRANCH  15  16
ENDBRANCH   2  10
TORSDOF 3
