REMARK  Name = *****
REMARK  7 active torsions:
REMARK  status: ('A' for Active; 'I' for Inactive)
REMARK    1  A    between atoms: C_1  and  O_2
REMARK    2  A    between atoms: O_2  and  C_3
REMARK    3  A    between atoms: C_5  and  C_11
REMARK    4  A    between atoms: C_6  and  O_9
REMARK    5  A    between atoms: O_9  and  C_10
REMARK    6  A    between atoms: C_11  and  C_12
REMARK    7  A    between atoms: C_12  and  C_13
REMARK                            x       y       z     vdW  Elec       q    Type
REMARK                         _______ _______ _______ _____ _____    ______ ____
ROOT
ATOM      1  C   UNL     1       2.895   1.192   0.660  0.00  0.00    +0.000 A 
ATOM      2  C   UNL     1       2.246   1.215   1.893  0.00  0.00    +0.000 A 
ATOM      3  C   UNL     1       2.913   1.668   3.049  0.00  0.00    +0.000 A 
ATOM      4  C   UNL     1       4.252   2.091   2.961  0.00  0.00    +0.000 A 
ATOM      5  C   UNL     1       4.897   2.065   1.722  0.00  0.00    +0.000 A 
ATOM      6  C   UNL     1       4.220   1.619   0.583  0.00  0.00    +0.000 A 
ENDROOT
BRANCH   1   8
ATOM      7  C   UNL     1       1.008   0.335  -0.504  0.00  0.00    +0.000 C 
ATOM      8  O   UNL     1       2.359   0.778  -0.528  0.00  0.00    +0.000 OA
ENDBRANCH   1   8
BRANCH   4   9
ATOM      9  O   UNL     1       4.830   2.499   4.134  0.00  0.00    +0.000 OA
ATOM     10  C   UNL     1       6.173   2.961   4.076  0.00  0.00    +0.000 C 
ENDBRANCH   4   9
BRANCH   3  11
ATOM     11  C   UNL     1       2.176   1.660   4.372  0.00  0.00    +0.000 C 
BRANCH  11  12
ATOM     12  C   UNL     1       2.491   0.403   5.187  0.00  0.00    +0.000 C 
BRANCH  12  13
ATOM     13  C   UNL     1       1.751   0.393   6.502  0.00  0.00    +0.000 A 
ATOM     14  C   UNL     1       0.494  -0.216   6.609  0.00  0.00    +0.000 A 
ATOM     15  C   UNL     1      -0.195  -0.205   7.823  0.00  0.00    +0.000 A 
ATOM     16  C   UNL     1       0.363   0.418   8.938  0.00  0.00    +0.000 A 
ATOM     17  C   UNL     1       1.610   1.032   8.840  0.00  0.00    +0.000 A 
ATOM     18  C   UNL     1       2.301   1.023   7.627  0.00  0.00    +0.000 A 
ENDBRANCH  12  13
ENDBRANCH  11  12
ENDBRANCH   3  11
TORSDOF 5
