REMARK  Name = *****
REMARK  3 active torsions:
REMARK  status: ('A' for Active; 'I' for Inactive)
REMARK    1  A    between atoms: C_4  and  C_7
REMARK    2  A    between atoms: C_7  and  S_9
REMARK    3  A    between atoms: S_9  and  C_10
REMARK                            x       y       z     vdW  Elec       q    Type
REMARK                         _______ _______ _______ _____ _____    ______ ____
ROOT
ATOM      1  C   UNL     1      -2.716   0.432  -0.558  0.00  0.00    +0.000 C 
ATOM      2  O   UNL     1      -3.069   1.587  -0.783  0.00  0.00    +0.000 OA
ENDROOT
BRANCH   1   6
ATOM      3  C   UNL     1       1.438  -0.301   0.294  0.00  0.00    +0.000 A 
ATOM      4  C   UNL     1       0.596  -1.383   0.046  0.00  0.00    +0.000 A 
ATOM      5  C   UNL     1      -0.758  -1.173  -0.235  0.00  0.00    +0.000 A 
ATOM      6  C   UNL     1      -1.282   0.125  -0.272  0.00  0.00    +0.000 A 
ATOM      7  C   UNL     1      -0.419   1.208  -0.031  0.00  0.00    +0.000 A 
ATOM      8  C   UNL     1       0.932   0.996   0.253  0.00  0.00    +0.000 A 
ENDBRANCH   1   6
BRANCH   1   9
ATOM      9  S   UNL     1      -3.907  -0.849  -0.362  0.00  0.00    +0.000 S 
BRANCH   9  10
ATOM     10  C   UNL     1      -4.686  -0.757  -1.918  0.00  0.00    +0.000 C 
ATOM     11  C   UNL     1      -4.167  -1.274  -3.058  0.00  0.00    +0.000 C 
ATOM     12  S   UNL     1      -5.167  -1.048  -4.497  0.00  0.00    +0.000 S 
ATOM     13  C   UNL     1      -6.483  -0.197  -3.725  0.00  0.00    +0.000 C 
ATOM     14  S   UNL     1      -7.834   0.357  -4.539  0.00  0.00    +0.000 S 
ATOM     15  S   UNL     1      -6.255   0.006  -2.003  0.00  0.00    +0.000 S 
ATOM     16  S   UNL     1      -2.688  -2.137  -3.379  0.00  0.00    +0.000 S 
ENDBRANCH   9  10
ENDBRANCH   1   9
TORSDOF 3
