REMARK  Name = *****
REMARK  3 active torsions:
REMARK  status: ('A' for Active; 'I' for Inactive)
REMARK    1  A    between atoms: C_4  and  N_7
REMARK    2  A    between atoms: N_7  and  C_8
REMARK    3  A    between atoms: C_8  and  C_9
REMARK                            x       y       z     vdW  Elec       q    Type
REMARK                         _______ _______ _______ _____ _____    ______ ____
ROOT
ATOM      1  C   UNL     1      -3.346   1.491  -0.212  0.00  0.00    +0.000 C 
ENDROOT
BRANCH   1   2
ATOM      2  C   UNL     1      -4.781   1.780  -0.392  0.00  0.00    +0.000 A 
ATOM      3  C   UNL     1      -5.441   2.638   0.502  0.00  0.00    +0.000 A 
ATOM      4  C   UNL     1      -6.790   2.953   0.312  0.00  0.00    +0.000 A 
ATOM      5  C   UNL     1      -7.477   2.420  -0.776  0.00  0.00    +0.000 A 
ATOM      6  C   UNL     1      -6.830   1.579  -1.677  0.00  0.00    +0.000 A 
ATOM      7  C   UNL     1      -5.481   1.263  -1.490  0.00  0.00    +0.000 A 
ATOM      8 CL   UNL     1      -9.136   2.809  -1.012  0.00  0.00    +0.000 Cl
ATOM      9 CL   UNL     1      -4.653   3.323   1.881  0.00  0.00    +0.000 Cl
ENDBRANCH   1   2
BRANCH   1  10
ATOM     10  N   UNL     1      -2.788   0.327  -0.458  0.00  0.00    +0.000 N 
ATOM     11  O   UNL     1      -3.455  -0.694  -0.831  0.00  0.00    +0.000 OA
BRANCH  10  15
ATOM     12  C   UNL     1       1.375  -0.108   0.215  0.00  0.00    +0.000 A 
ATOM     13  C   UNL     1       0.478  -1.042   0.733  0.00  0.00    +0.000 A 
ATOM     14  C   UNL     1      -0.891  -0.894   0.510  0.00  0.00    +0.000 A 
ATOM     15  C   UNL     1      -1.357   0.200  -0.228  0.00  0.00    +0.000 A 
ATOM     16  C   UNL     1      -0.458   1.130  -0.765  0.00  0.00    +0.000 A 
ATOM     17  C   UNL     1       0.910   0.974  -0.535  0.00  0.00    +0.000 A 
ENDBRANCH  10  15
ENDBRANCH   1  10
TORSDOF 3
