REMARK  Name = *****
REMARK  4 active torsions:
REMARK  status: ('A' for Active; 'I' for Inactive)
REMARK    1  A    between atoms: C_1  and  C_2
REMARK    2  A    between atoms: C_2  and  C_17
REMARK    3  A    between atoms: C_6  and  C_7
REMARK    4  A    between atoms: C_7  and  C_9
REMARK                            x       y       z     vdW  Elec       q    Type
REMARK                         _______ _______ _______ _____ _____    ______ ____
ROOT
ATOM      1  C   UNL     1       2.491   0.472  -1.711  0.00  0.00    +0.000 C 
ATOM      2  C   UNL     1       2.381   0.035  -0.240  0.00  0.00    +0.000 C 
ATOM      3  C   UNL     1       3.308  -1.144   0.088  0.00  0.00    +0.000 C 
ATOM      4  S   UNL     1       5.023  -0.553   0.240  0.00  0.00    +0.000 S 
ATOM      5  C   UNL     1       4.605   0.997   0.930  0.00  0.00    +0.000 C 
ATOM      6  C   UNL     1       5.577   1.746   1.472  0.00  0.00    +0.000 C 
ATOM      7  S   UNL     1       2.929   1.437   0.826  0.00  0.00    +0.000 S 
ENDROOT
BRANCH   6   8
ATOM      8  C   UNL     1       5.426   3.072   2.135  0.00  0.00    +0.000 C 
ATOM      9  O   UNL     1       4.375   3.503   2.590  0.00  0.00    +0.000 OA
BRANCH   8  10
ATOM     10  C   UNL     1       6.673   3.826   2.382  0.00  0.00    +0.000 A 
ATOM     11  C   UNL     1       6.956   4.161   3.715  0.00  0.00    +0.000 A 
ATOM     12  C   UNL     1       8.123   4.857   4.030  0.00  0.00    +0.000 A 
ATOM     13  C   UNL     1       9.004   5.232   3.017  0.00  0.00    +0.000 A 
ATOM     14  C   UNL     1       8.713   4.922   1.687  0.00  0.00    +0.000 A 
ATOM     15  C   UNL     1       7.545   4.223   1.363  0.00  0.00    +0.000 A 
ATOM     16 CL   UNL     1       7.229   3.929  -0.309  0.00  0.00    +0.000 Cl
ENDBRANCH   8  10
ENDBRANCH   6   8
BRANCH   2  17
ATOM     17  C   UNL     1       0.920  -0.279   0.135  0.00  0.00    +0.000 C 
ATOM     18 CL   UNL     1       0.261  -1.690  -0.743  0.00  0.00    +0.000 Cl
ENDBRANCH   2  17
TORSDOF 3
