REMARK  Name = *****
REMARK  4 active torsions:
REMARK  status: ('A' for Active; 'I' for Inactive)
REMARK    1  A    between atoms: C_1  and  C_2
REMARK    2  A    between atoms: C_2  and  C_3
REMARK    3  A    between atoms: C_2  and  C_9
REMARK    4  A    between atoms: C_9  and  C_10
REMARK                            x       y       z     vdW  Elec       q    Type
REMARK                         _______ _______ _______ _____ _____    ______ ____
ROOT
ATOM      1  C   UNL     1       1.138  -0.033   0.044  0.00  0.00    +0.000 C 
ATOM      2  C   UNL     1       2.654   0.194  -0.043  0.00  0.00    +0.000 C 
ENDROOT
BRANCH   2   3
ATOM      3  C   UNL     1       3.170   0.183  -1.480  0.00  0.00    +0.000 A 
ATOM      4  C   UNL     1       2.514   0.864  -2.517  0.00  0.00    +0.000 A 
ATOM      5  C   UNL     1       3.028   0.854  -3.815  0.00  0.00    +0.000 A 
ATOM      6  C   UNL     1       4.207   0.167  -4.095  0.00  0.00    +0.000 A 
ATOM      7  C   UNL     1       4.874  -0.509  -3.077  0.00  0.00    +0.000 A 
ATOM      8  C   UNL     1       4.361  -0.499  -1.779  0.00  0.00    +0.000 A 
ENDBRANCH   2   3
BRANCH   2   9
ATOM      9  C   UNL     1       3.184   1.425   0.747  0.00  0.00    +0.000 C 
ATOM     10 CL   UNL     1       2.983   1.176   2.523  0.00  0.00    +0.000 Cl
BRANCH   9  11
ATOM     11  C   UNL     1       2.630   2.780   0.336  0.00  0.00    +0.000 A 
ATOM     12  C   UNL     1       1.371   3.243   0.754  0.00  0.00    +0.000 A 
ATOM     13  C   UNL     1       0.890   4.486   0.337  0.00  0.00    +0.000 A 
ATOM     14  C   UNL     1       1.656   5.286  -0.507  0.00  0.00    +0.000 A 
ATOM     15  C   UNL     1       2.905   4.844  -0.934  0.00  0.00    +0.000 A 
ATOM     16  C   UNL     1       3.388   3.602  -0.516  0.00  0.00    +0.000 A 
ENDBRANCH   9  11
ENDBRANCH   2   9
TORSDOF 3
