REMARK  Name = *****
REMARK  3 active torsions:
REMARK  status: ('A' for Active; 'I' for Inactive)
REMARK    1  A    between atoms: C_4  and  C_6
REMARK    2  A    between atoms: C_6  and  O_7
REMARK    3  A    between atoms: O_7  and  C_8
REMARK                            x       y       z     vdW  Elec       q    Type
REMARK                         _______ _______ _______ _____ _____    ______ ____
ROOT
ATOM      1  C   UNL     1      -3.174   1.461   3.157  0.00  0.00    +0.000 A 
ATOM      2  C   UNL     1      -2.692   2.510   3.924  0.00  0.00    +0.000 A 
ATOM      3  N   UNL     1      -3.353   3.008   4.992  0.00  0.00    +0.000 NA
ATOM      4  N   UNL     1      -4.549   2.469   5.347  0.00  0.00    +0.000 NA
ATOM      5  C   UNL     1      -5.057   1.447   4.625  0.00  0.00    +0.000 A 
ATOM      6  C   UNL     1      -4.405   0.913   3.525  0.00  0.00    +0.000 A 
ATOM      7 CL   UNL     1      -5.082  -0.402   2.620  0.00  0.00    +0.000 Cl
ATOM      8 CL   UNL     1      -6.574   0.889   5.212  0.00  0.00    +0.000 Cl
ENDROOT
BRANCH   1   9
ATOM      9  O   UNL     1      -2.543   0.925   2.067  0.00  0.00    +0.000 OA
BRANCH   9  10
ATOM     10  C   UNL     1      -1.248   1.424   1.729  0.00  0.00    +0.000 C 
BRANCH  10  14
ATOM     11  C   UNL     1       1.167  -0.074  -0.778  0.00  0.00    +0.000 C 
ATOM     12  C   UNL     1       0.354  -1.300  -0.359  0.00  0.00    +0.000 C 
ATOM     13  C   UNL     1      -0.525  -0.843   0.798  0.00  0.00    +0.000 C 
ATOM     14  C   UNL     1      -0.737   0.644   0.521  0.00  0.00    +0.000 C 
ATOM     15  C   UNL     1       0.645   1.093   0.056  0.00  0.00    +0.000 C 
ENDBRANCH  10  14
ENDBRANCH   9  10
ENDBRANCH   1   9
TORSDOF 3
