REMARK  Name = *****
REMARK  3 active torsions:
REMARK  status: ('A' for Active; 'I' for Inactive)
REMARK    1  A    between atoms: C_4  and  N_7
REMARK    2  A    between atoms: N_7  and  N_9
REMARK    3  A    between atoms: N_9  and  C_10
REMARK                            x       y       z     vdW  Elec       q    Type
REMARK                         _______ _______ _______ _____ _____    ______ ____
ROOT
ATOM      1  N   UNL     1      -3.732  -0.336  -0.122  0.00  0.00    +0.000 N 
ATOM      2  H   UNL     1      -3.401  -1.229   0.126  0.00  0.00    +0.000 HD
ENDROOT
BRANCH   1   3
ATOM      3  C   UNL     1      -5.129  -0.236  -0.223  0.00  0.00    +0.000 A 
ATOM      4  C   UNL     1      -5.805   0.968  -0.449  0.00  0.00    +0.000 A 
ATOM      5  C   UNL     1      -7.203   1.011  -0.525  0.00  0.00    +0.000 A 
ATOM      6  C   UNL     1      -7.943  -0.156  -0.368  0.00  0.00    +0.000 A 
ATOM      7  C   UNL     1      -7.296  -1.364  -0.133  0.00  0.00    +0.000 A 
ATOM      8  C   UNL     1      -5.899  -1.400  -0.060  0.00  0.00    +0.000 A 
ATOM      9 CL   UNL     1      -9.659  -0.105  -0.459  0.00  0.00    +0.000 Cl
ENDBRANCH   1   3
BRANCH   1  10
ATOM     10  N   UNL     1      -2.718   0.640  -0.320  0.00  0.00    +0.000 N 
ATOM     11  O   UNL     1      -2.976   1.778  -0.659  0.00  0.00    +0.000 OA
BRANCH  10  15
ATOM     12  C   UNL     1       1.350  -0.451   0.091  0.00  0.00    +0.000 A 
ATOM     13  C   UNL     1       0.408  -0.936   1.001  0.00  0.00    +0.000 A 
ATOM     14  C   UNL     1      -0.934  -0.577   0.876  0.00  0.00    +0.000 A 
ATOM     15  C   UNL     1      -1.327   0.267  -0.170  0.00  0.00    +0.000 A 
ATOM     16  C   UNL     1      -0.383   0.764  -1.075  0.00  0.00    +0.000 A 
ATOM     17  C   UNL     1       0.957   0.400  -0.943  0.00  0.00    +0.000 A 
ENDBRANCH  10  15
ENDBRANCH   1  10
TORSDOF 3
