REMARK  Name = *****
REMARK  4 active torsions:
REMARK  status: ('A' for Active; 'I' for Inactive)
REMARK    1  A    between atoms: C_3  and  C_7
REMARK    2  A    between atoms: C_7  and  O_8
REMARK    3  A    between atoms: O_8  and  C_9
REMARK    4  A    between atoms: C_9  and  C_11
REMARK                            x       y       z     vdW  Elec       q    Type
REMARK                         _______ _______ _______ _____ _____    ______ ____
ROOT
ATOM      1  O   UNL     1      -1.560   1.985  -2.379  0.00  0.00    +0.000 OA
ENDROOT
BRANCH   1   2
ATOM      2  C   UNL     1      -1.495   2.247  -3.714  0.00  0.00    +0.000 C 
ATOM      3  O   UNL     1      -1.319   1.403  -4.583  0.00  0.00    +0.000 OA
BRANCH   2   4
ATOM      4  C   UNL     1      -1.770   3.723  -3.980  0.00  0.00    +0.000 C 
ATOM      5  C   UNL     1      -1.600   4.065  -5.468  0.00  0.00    +0.000 C 
ATOM      6  C   UNL     1      -0.138   4.008  -5.927  0.00  0.00    +0.000 C 
ATOM      7  C   UNL     1       0.818   4.585  -4.926  0.00  0.00    +0.000 C 
ATOM      8  C   UNL     1       0.473   4.890  -3.668  0.00  0.00    +0.000 C 
ATOM      9  C   UNL     1      -0.902   4.650  -3.113  0.00  0.00    +0.000 C 
ENDBRANCH   2   4
ENDBRANCH   1   2
BRANCH   1  10
ATOM     10  C   UNL     1      -1.315   0.630  -1.961  0.00  0.00    +0.000 C 
BRANCH  10  13
ATOM     11  C   UNL     1       1.721   0.196  -2.608  0.00  0.00    +0.000 C 
ATOM     12  C   UNL     1       1.157   1.134  -1.536  0.00  0.00    +0.000 C 
ATOM     13  C   UNL     1      -0.166   0.622  -0.938  0.00  0.00    +0.000 C 
ATOM     14  C   UNL     1       0.038  -0.784  -0.343  0.00  0.00    +0.000 C 
ATOM     15  C   UNL     1       0.852  -1.695  -1.216  0.00  0.00    +0.000 C 
ATOM     16  C   UNL     1       1.596  -1.255  -2.241  0.00  0.00    +0.000 C 
ENDBRANCH  10  13
ENDBRANCH   1  10
TORSDOF 4
