REMARK  Name = *****
REMARK  5 active torsions:
REMARK  status: ('A' for Active; 'I' for Inactive)
REMARK    1  A    between atoms: C_1  and  C_2
REMARK    2  A    between atoms: C_4  and  C_10
REMARK    3  A    between atoms: C_5  and  O_8
REMARK    4  A    between atoms: O_8  and  C_9
REMARK    5  A    between atoms: C_11  and  C_12
REMARK                            x       y       z     vdW  Elec       q    Type
REMARK                         _______ _______ _______ _____ _____    ______ ____
ROOT
ATOM      1  C   UNL     1       1.012   0.082   0.042  0.00  0.00    +0.000 C 
ATOM      2  C   UNL     1       2.506   0.088  -0.086  0.00  0.00    +0.000 A 
ATOM      3  C   UNL     1       3.209   1.286  -0.250  0.00  0.00    +0.000 A 
ATOM      4  C   UNL     1       4.604   1.283  -0.395  0.00  0.00    +0.000 A 
ATOM      5  C   UNL     1       5.316   0.071  -0.384  0.00  0.00    +0.000 A 
ATOM      6  C   UNL     1       4.609  -1.125  -0.224  0.00  0.00    +0.000 A 
ATOM      7  C   UNL     1       3.217  -1.116  -0.080  0.00  0.00    +0.000 A 
ENDROOT
BRANCH   5   8
ATOM      8  O   UNL     1       6.677   0.157  -0.535  0.00  0.00    +0.000 OA
ATOM      9  C   UNL     1       7.408  -1.059  -0.595  0.00  0.00    +0.000 C 
ENDBRANCH   5   8
BRANCH   4  10
ATOM     10  C   UNL     1       5.270   2.541  -0.573  0.00  0.00    +0.000 C 
ATOM     11  C   UNL     1       5.818   3.597  -0.745  0.00  0.00    +0.000 C 
BRANCH  11  12
ATOM     12  C   UNL     1       6.467   4.850  -0.977  0.00  0.00    +0.000 A 
ATOM     13  C   UNL     1       5.871   6.039  -0.551  0.00  0.00    +0.000 A 
ATOM     14  C   UNL     1       6.499   7.262  -0.798  0.00  0.00    +0.000 A 
ATOM     15  C   UNL     1       7.721   7.297  -1.469  0.00  0.00    +0.000 A 
ATOM     16  C   UNL     1       8.319   6.110  -1.893  0.00  0.00    +0.000 A 
ATOM     17  C   UNL     1       7.693   4.886  -1.647  0.00  0.00    +0.000 A 
ENDBRANCH  11  12
ENDBRANCH   4  10
TORSDOF 3
