REMARK  Name = *****
REMARK  3 active torsions:
REMARK  status: ('A' for Active; 'I' for Inactive)
REMARK    1  A    between atoms: C_1  and  C_2
REMARK    2  A    between atoms: C_2  and  C_9
REMARK    3  A    between atoms: N_6  and  C_7
REMARK                            x       y       z     vdW  Elec       q    Type
REMARK                         _______ _______ _______ _____ _____    ______ ____
ROOT
ATOM      1  C   UNL     1       3.068   0.190  -1.584  0.00  0.00    +0.000 A 
ATOM      2  C   UNL     1       3.631   1.369  -2.107  0.00  0.00    +0.000 A 
ATOM      3  C   UNL     1       3.963   1.492  -3.469  0.00  0.00    +0.000 A 
ATOM      4  C   UNL     1       4.540   2.666  -3.979  0.00  0.00    +0.000 A 
ATOM      5  C   UNL     1       4.866   2.773  -5.331  0.00  0.00    +0.000 A 
ATOM      6  C   UNL     1       4.619   1.709  -6.192  0.00  0.00    +0.000 A 
ATOM      7  C   UNL     1       4.045   0.535  -5.702  0.00  0.00    +0.000 A 
ATOM      8  C   UNL     1       3.713   0.412  -4.342  0.00  0.00    +0.000 A 
ATOM      9  C   UNL     1       3.134  -0.757  -3.831  0.00  0.00    +0.000 A 
ATOM     10  C   UNL     1       2.815  -0.866  -2.474  0.00  0.00    +0.000 A 
ENDROOT
BRANCH   1  12
ATOM     11  C   UNL     1       1.183   0.081   0.053  0.00  0.00    +0.000 C 
ATOM     12  C   UNL     1       2.712   0.067  -0.095  0.00  0.00    +0.000 C 
ATOM     13  C   UNL     1       3.295  -1.185   0.586  0.00  0.00    +0.000 C 
ATOM     14  S   UNL     1       4.974  -0.692   1.041  0.00  0.00    +0.000 S 
ATOM     15  C   UNL     1       4.448   0.972   1.145  0.00  0.00    +0.000 C 
ATOM     16  N   UNL     1       5.093   1.960   1.642  0.00  0.00    +0.000 NA
ATOM     17  C   UNL     1       6.429   1.743   2.173  0.00  0.00    +0.000 C 
ATOM     18  O   UNL     1       3.198   1.204   0.654  0.00  0.00    +0.000 OA
ENDBRANCH   1  12
TORSDOF 1
