REMARK  Name = *****
REMARK  3 active torsions:
REMARK  status: ('A' for Active; 'I' for Inactive)
REMARK    1  A    between atoms: C_6  and  S_8
REMARK    2  A    between atoms: S_8  and  C_9
REMARK    3  A    between atoms: C_9  and  C_10
REMARK                            x       y       z     vdW  Elec       q    Type
REMARK                         _______ _______ _______ _____ _____    ______ ____
ROOT
ATOM      1  S   UNL     1      -3.789  -0.120   0.309  0.00  0.00    +0.000 S 
ENDROOT
BRANCH   1   7
ATOM      2  C   UNL     1       1.102   0.328  -0.259  0.00  0.00    +0.000 C 
ATOM      3  C   UNL     1       0.644  -1.078   0.104  0.00  0.00    +0.000 C 
ATOM      4  C   UNL     1      -0.870  -0.992  -0.036  0.00  0.00    +0.000 C 
ATOM      5  N   UNL     1      -1.185   0.397   0.278  0.00  0.00    +0.000 N 
ATOM      6  C   UNL     1       0.018   1.204   0.351  0.00  0.00    +0.000 C 
ATOM      7  C   UNL     1      -2.422   0.965   0.486  0.00  0.00    +0.000 C 
ATOM      8  O   UNL     1      -2.581   2.147   0.769  0.00  0.00    +0.000 OA
ENDBRANCH   1   7
BRANCH   1   9
ATOM      9  C   UNL     1      -5.122   1.036   0.728  0.00  0.00    +0.000 C 
BRANCH   9  10
ATOM     10  C   UNL     1      -6.470   0.358   0.680  0.00  0.00    +0.000 A 
ATOM     11  C   UNL     1      -6.982  -0.291   1.814  0.00  0.00    +0.000 A 
ATOM     12  C   UNL     1      -8.222  -0.932   1.766  0.00  0.00    +0.000 A 
ATOM     13  C   UNL     1      -8.955  -0.931   0.581  0.00  0.00    +0.000 A 
ATOM     14  C   UNL     1      -8.458  -0.298  -0.556  0.00  0.00    +0.000 A 
ATOM     15  C   UNL     1      -7.218   0.342  -0.508  0.00  0.00    +0.000 A 
ATOM     16 CL   UNL     1     -10.483  -1.722   0.521  0.00  0.00    +0.000 Cl
ENDBRANCH   9  10
ENDBRANCH   1   9
TORSDOF 3
