REMARK  Name = *****
REMARK  2 active torsions:
REMARK  status: ('A' for Active; 'I' for Inactive)
REMARK    1  A    between atoms: C_4  and  C_7
REMARK    2  A    between atoms: C_8  and  C_9
REMARK                            x       y       z     vdW  Elec       q    Type
REMARK                         _______ _______ _______ _____ _____    ______ ____
ROOT
ATOM      1  C   UNL     1      -2.848   0.425  -0.325  0.00  0.00    +0.000 C 
ATOM      2  C   UNL     1      -3.774  -0.549  -0.334  0.00  0.00    +0.000 C 
ENDROOT
BRANCH   2   3
ATOM      3  C   UNL     1      -5.216  -0.305  -0.486  0.00  0.00    +0.000 A 
ATOM      4  N   UNL     1      -5.624   0.977  -0.613  0.00  0.00    +0.000 NA
ATOM      5  C   UNL     1      -6.946   1.196  -0.750  0.00  0.00    +0.000 A 
ATOM      6  C   UNL     1      -7.906   0.209  -0.770  0.00  0.00    +0.000 A 
ATOM      7  C   UNL     1      -7.459  -1.096  -0.638  0.00  0.00    +0.000 A 
ATOM      8  C   UNL     1      -6.104  -1.371  -0.493  0.00  0.00    +0.000 A 
ATOM      9 CL   UNL     1      -8.594  -2.390  -0.653  0.00  0.00    +0.000 Cl
ATOM     10 CL   UNL     1      -7.382   2.848  -0.903  0.00  0.00    +0.000 Cl
ENDBRANCH   2   3
BRANCH   1  14
ATOM     11  C   UNL     1       1.362  -0.152   0.163  0.00  0.00    +0.000 A 
ATOM     12  C   UNL     1       0.627  -1.070  -0.584  0.00  0.00    +0.000 A 
ATOM     13  C   UNL     1      -0.750  -0.898  -0.747  0.00  0.00    +0.000 A 
ATOM     14  C   UNL     1      -1.408   0.189  -0.156  0.00  0.00    +0.000 A 
ATOM     15  C   UNL     1      -0.654   1.114   0.578  0.00  0.00    +0.000 A 
ATOM     16  C   UNL     1       0.723   0.942   0.742  0.00  0.00    +0.000 A 
ENDBRANCH   1  14
TORSDOF 2
