REMARK  Name = *****
REMARK  2 active torsions:
REMARK  status: ('A' for Active; 'I' for Inactive)
REMARK    1  A    between atoms: N_8  and  C_11
REMARK    2  A    between atoms: C_11  and  C_12
REMARK                            x       y       z     vdW  Elec       q    Type
REMARK                         _______ _______ _______ _____ _____    ______ ____
ROOT
ATOM      1  C   UNL     1       1.743   1.441  -0.405  0.00  0.00    +0.000 A 
ATOM      2  C   UNL     1       1.971   0.204  -1.022  0.00  0.00    +0.000 A 
ATOM      3  C   UNL     1       1.145  -0.887  -0.742  0.00  0.00    +0.000 A 
ATOM      4  C   UNL     1       0.096  -0.718   0.155  0.00  0.00    +0.000 A 
ATOM      5  C   UNL     1      -0.132   0.509   0.758  0.00  0.00    +0.000 A 
ATOM      6  C   UNL     1       0.684   1.599   0.492  0.00  0.00    +0.000 A 
ATOM      7  S   UNL     1      -1.545   0.466   1.815  0.00  0.00    +0.000 S 
ATOM      8  N   UNL     1      -2.218  -0.910   1.132  0.00  0.00    +0.000 NA
ATOM      9  S   UNL     1      -1.022  -2.011   0.684  0.00  0.00    +0.000 S 
ATOM     10  O   UNL     1      -1.346  -2.809  -0.542  0.00  0.00    +0.000 OA
ENDROOT
BRANCH   8  11
ATOM     11  C   UNL     1      -3.490  -1.462   1.618  0.00  0.00    +0.000 C 
BRANCH  11  12
ATOM     12  C   UNL     1      -4.643  -0.495   1.553  0.00  0.00    +0.000 A 
ATOM     13  C   UNL     1      -5.242  -0.171   0.335  0.00  0.00    +0.000 A 
ATOM     14  C   UNL     1      -6.300   0.735   0.261  0.00  0.00    +0.000 A 
ATOM     15  C   UNL     1      -6.779   1.337   1.423  0.00  0.00    +0.000 A 
ATOM     16  C   UNL     1      -6.195   1.026   2.650  0.00  0.00    +0.000 A 
ATOM     17  C   UNL     1      -5.138   0.118   2.704  0.00  0.00    +0.000 A 
ATOM     18  F   UNL     1      -4.597  -0.165   3.898  0.00  0.00    +0.000 F 
ATOM     19  F   UNL     1      -4.807  -0.742  -0.797  0.00  0.00    +0.000 F 
ENDBRANCH  11  12
ENDBRANCH   8  11
TORSDOF 2
