REMARK  Name = *****
REMARK  6 active torsions:
REMARK  status: ('A' for Active; 'I' for Inactive)
REMARK    1  A    between atoms: C_1  and  C_2
REMARK    2  A    between atoms: C_2  and  N_3
REMARK    3  A    between atoms: N_3  and  C_4
REMARK    4  A    between atoms: N_3  and  C_12
REMARK    5  A    between atoms: C_4  and  C_5
REMARK    6  A    between atoms: C_5  and  C_6
REMARK                            x       y       z     vdW  Elec       q    Type
REMARK                         _______ _______ _______ _____ _____    ______ ____
ROOT
ATOM      1  N   UNL     1       2.930  -1.324   0.108  0.00  0.00    +0.000 N 
ENDROOT
BRANCH   1   2
ATOM      2  C   UNL     1       4.305  -1.573   0.281  0.00  0.00    +0.000 A 
ATOM      3  C   UNL     1       4.813  -2.418   1.280  0.00  0.00    +0.000 A 
ATOM      4  C   UNL     1       6.188  -2.638   1.421  0.00  0.00    +0.000 A 
ATOM      5  C   UNL     1       7.088  -2.020   0.558  0.00  0.00    +0.000 A 
ATOM      6  C   UNL     1       6.611  -1.185  -0.446  0.00  0.00    +0.000 A 
ATOM      7  C   UNL     1       5.236  -0.968  -0.580  0.00  0.00    +0.000 A 
ENDBRANCH   1   2
BRANCH   1   9
ATOM      8  C   UNL     1       2.505   0.539   1.718  0.00  0.00    +0.000 C 
ATOM      9  C   UNL     1       2.549   0.094   0.262  0.00  0.00    +0.000 C 
ENDBRANCH   1   9
BRANCH   1  10
ATOM     10  C   UNL     1       1.991  -2.353   0.601  0.00  0.00    +0.000 C 
BRANCH  10  11
ATOM     11  C   UNL     1       0.628  -2.279  -0.100  0.00  0.00    +0.000 C 
BRANCH  11  12
ATOM     12  C   UNL     1      -0.265  -3.433   0.289  0.00  0.00    +0.000 A 
ATOM     13  C   UNL     1      -1.053  -3.365   1.445  0.00  0.00    +0.000 A 
ATOM     14  C   UNL     1      -1.861  -4.441   1.814  0.00  0.00    +0.000 A 
ATOM     15  C   UNL     1      -1.885  -5.596   1.034  0.00  0.00    +0.000 A 
ATOM     16  C   UNL     1      -1.101  -5.676  -0.115  0.00  0.00    +0.000 A 
ATOM     17  C   UNL     1      -0.292  -4.601  -0.486  0.00  0.00    +0.000 A 
ENDBRANCH  11  12
ENDBRANCH  10  11
ENDBRANCH   1  10
TORSDOF 5
