REMARK  Name = *****
REMARK  1 active torsions:
REMARK  status: ('A' for Active; 'I' for Inactive)
REMARK    1  A    between atoms: C_4  and  C_7
REMARK                            x       y       z     vdW  Elec       q    Type
REMARK                         _______ _______ _______ _____ _____    ______ ____
ROOT
ATOM      1  C   UNL     1      -0.079   0.719   2.416  0.00  0.00    +0.000 A 
ATOM      2  C   UNL     1       0.855   0.073   3.234  0.00  0.00    +0.000 A 
ATOM      3  C   UNL     1       0.355  -0.041   4.535  0.00  0.00    +0.000 A 
ATOM      4  C   UNL     1      -0.851   0.500   4.733  0.00  0.00    +0.000 A 
ATOM      5  S   UNL     1      -1.483   1.208   3.363  0.00  0.00    +0.000 S 
ATOM      6  S   UNL     1      -1.393   0.342   6.306  0.00  0.00    +0.000 S 
ATOM      7  C   UNL     1       0.071  -0.494   6.738  0.00  0.00    +0.000 A 
ATOM      8  C   UNL     1       0.940  -0.627   5.663  0.00  0.00    +0.000 A 
ENDROOT
BRANCH   1  12
ATOM      9  C   UNL     1      -0.015  -1.603  -0.738  0.00  0.00    +0.000 C 
ATOM     10  C   UNL     1       1.262  -1.202  -0.015  0.00  0.00    +0.000 C 
ATOM     11  S   UNL     1       1.518   0.594   0.091  0.00  0.00    +0.000 S 
ATOM     12  C   UNL     1      -0.008   1.111   0.952  0.00  0.00    +0.000 C 
ATOM     13  S   UNL     1      -1.474   0.636  -0.026  0.00  0.00    +0.000 S 
ATOM     14  C   UNL     1      -1.283  -1.164  -0.023  0.00  0.00    +0.000 C 
ENDBRANCH   1  12
TORSDOF 1
