REMARK  Name = *****
REMARK  5 active torsions:
REMARK  status: ('A' for Active; 'I' for Inactive)
REMARK    1  A    between atoms: C_1  and  C_2
REMARK    2  A    between atoms: C_5  and  S_8
REMARK    3  A    between atoms: S_8  and  N_10
REMARK    4  A    between atoms: N_10  and  C_11
REMARK    5  A    between atoms: N_10  and  C_12
REMARK                            x       y       z     vdW  Elec       q    Type
REMARK                         _______ _______ _______ _____ _____    ______ ____
ROOT
ATOM      1  S   UNL     1      -3.781   0.309   1.308  0.00  0.00    +0.000 S 
ATOM      2  O   UNL     1      -3.750   0.556   2.789  0.00  0.00    +0.000 OA
ENDROOT
BRANCH   1   7
ATOM      3  C   UNL     1       2.137  -0.194  -0.254  0.00  0.00    +0.000 C 
ATOM      4  C   UNL     1       0.687  -0.084   0.113  0.00  0.00    +0.000 A 
ATOM      5  C   UNL     1      -0.295   0.083  -0.870  0.00  0.00    +0.000 A 
ATOM      6  C   UNL     1      -1.642   0.207  -0.515  0.00  0.00    +0.000 A 
ATOM      7  C   UNL     1      -2.025   0.181   0.831  0.00  0.00    +0.000 A 
ATOM      8  C   UNL     1      -1.042   0.014   1.814  0.00  0.00    +0.000 A 
ATOM      9  C   UNL     1       0.304  -0.110   1.459  0.00  0.00    +0.000 A 
ENDBRANCH   1   7
BRANCH   1  10
ATOM     10  N   UNL     1      -4.034   1.785   0.483  0.00  0.00    +0.000 N 
ATOM     11  C   UNL     1      -3.592   2.974   1.221  0.00  0.00    +0.000 C 
BRANCH  10  12
ATOM     12  C   UNL     1      -5.278   1.894  -0.195  0.00  0.00    +0.000 A 
ATOM     13  C   UNL     1      -6.204   2.920   0.047  0.00  0.00    +0.000 A 
ATOM     14  C   UNL     1      -7.413   2.972  -0.646  0.00  0.00    +0.000 A 
ATOM     15  C   UNL     1      -7.738   2.021  -1.602  0.00  0.00    +0.000 A 
ATOM     16  C   UNL     1      -6.836   1.000  -1.873  0.00  0.00    +0.000 A 
ATOM     17  C   UNL     1      -5.622   0.940  -1.177  0.00  0.00    +0.000 A 
ATOM     18  F   UNL     1      -8.280   3.958  -0.379  0.00  0.00    +0.000 F 
ENDBRANCH  10  12
ENDBRANCH   1  10
TORSDOF 3
