REMARK  Name = *****
REMARK  6 active torsions:
REMARK  status: ('A' for Active; 'I' for Inactive)
REMARK    1  A    between atoms: C_1  and  C_2
REMARK    2  A    between atoms: C_5  and  S_8
REMARK    3  A    between atoms: S_8  and  C_9
REMARK    4  A    between atoms: C_9  and  C_11
REMARK    5  A    between atoms: C_11  and  C_12
REMARK    6  A    between atoms: C_12  and  C_13
REMARK                            x       y       z     vdW  Elec       q    Type
REMARK                         _______ _______ _______ _____ _____    ______ ____
ROOT
ATOM      1  C   UNL     1      -4.473   1.489   0.124  0.00  0.00    +0.000 C 
ATOM      2  O   UNL     1      -4.136   2.668   0.114  0.00  0.00    +0.000 OA
ENDROOT
BRANCH   1   3
ATOM      3  C   UNL     1      -5.606   0.910  -0.706  0.00  0.00    +0.000 C 
ATOM      4  F   UNL     1      -5.490  -0.443  -0.889  0.00  0.00    +0.000 F 
ATOM      5  F   UNL     1      -6.796   1.069  -0.041  0.00  0.00    +0.000 F 
BRANCH   3   6
ATOM      6  C   UNL     1      -5.704   1.590  -2.056  0.00  0.00    +0.000 C 
ATOM      7  F   UNL     1      -6.810   1.119  -2.716  0.00  0.00    +0.000 F 
ATOM      8  F   UNL     1      -5.915   2.929  -1.924  0.00  0.00    +0.000 F 
BRANCH   6   9
ATOM      9  C   UNL     1      -4.468   1.307  -2.888  0.00  0.00    +0.000 C 
ATOM     10  F   UNL     1      -4.290  -0.021  -3.087  0.00  0.00    +0.000 F 
ATOM     11  F   UNL     1      -4.548   1.880  -4.113  0.00  0.00    +0.000 F 
ATOM     12  F   UNL     1      -3.334   1.764  -2.313  0.00  0.00    +0.000 F 
ENDBRANCH   6   9
ENDBRANCH   3   6
ENDBRANCH   1   3
BRANCH   1  13
ATOM     13  S   UNL     1      -3.734   0.355   1.263  0.00  0.00    +0.000 S 
BRANCH  13  18
ATOM     14  C   UNL     1       1.973   0.088  -0.853  0.00  0.00    +0.000 C 
ATOM     15  C   UNL     1       0.555   0.171  -0.369  0.00  0.00    +0.000 A 
ATOM     16  C   UNL     1       0.080   1.343   0.229  0.00  0.00    +0.000 A 
ATOM     17  C   UNL     1      -1.227   1.408   0.719  0.00  0.00    +0.000 A 
ATOM     18  C   UNL     1      -2.075   0.302   0.620  0.00  0.00    +0.000 A 
ATOM     19  C   UNL     1      -1.596  -0.877   0.042  0.00  0.00    +0.000 A 
ATOM     20  C   UNL     1      -0.288  -0.943  -0.448  0.00  0.00    +0.000 A 
ENDBRANCH  13  18
ENDBRANCH   1  13
TORSDOF 5
