REMARK  Name = *****
REMARK  4 active torsions:
REMARK  status: ('A' for Active; 'I' for Inactive)
REMARK    1  A    between atoms: C_4  and  C_7
REMARK    2  A    between atoms: C_7  and  C_8
REMARK    3  A    between atoms: C_8  and  C_9
REMARK    4  A    between atoms: C_9  and  C_11
REMARK                            x       y       z     vdW  Elec       q    Type
REMARK                         _______ _______ _______ _____ _____    ______ ____
ROOT
ATOM      1  C   UNL     1      -5.102  -0.563  -0.558  0.00  0.00    +0.000 C 
ATOM      2  O   UNL     1      -5.580   0.566  -0.639  0.00  0.00    +0.000 OA
ENDROOT
BRANCH   1   3
ATOM      3  C   UNL     1      -6.005  -1.747  -0.694  0.00  0.00    +0.000 A 
ATOM      4  C   UNL     1      -5.529  -3.060  -0.644  0.00  0.00    +0.000 A 
ATOM      5  C   UNL     1      -6.424  -4.118  -0.777  0.00  0.00    +0.000 A 
ATOM      6  C   UNL     1      -7.785  -3.898  -0.960  0.00  0.00    +0.000 A 
ATOM      7  C   UNL     1      -8.266  -2.593  -1.012  0.00  0.00    +0.000 A 
ATOM      8  C   UNL     1      -7.379  -1.521  -0.880  0.00  0.00    +0.000 A 
ATOM      9  F   UNL     1      -5.963  -5.375  -0.729  0.00  0.00    +0.000 F 
ENDBRANCH   1   3
BRANCH   1  10
ATOM     10  C   UNL     1      -3.622  -0.801  -0.323  0.00  0.00    +0.000 C 
BRANCH  10  11
ATOM     11  C   UNL     1      -2.853   0.513  -0.183  0.00  0.00    +0.000 C 
BRANCH  11  15
ATOM     12  C   UNL     1       1.331  -0.248   0.531  0.00  0.00    +0.000 A 
ATOM     13  C   UNL     1       0.856  -0.135  -0.774  0.00  0.00    +0.000 A 
ATOM     14  C   UNL     1      -0.497   0.118  -1.006  0.00  0.00    +0.000 A 
ATOM     15  C   UNL     1      -1.386   0.264   0.067  0.00  0.00    +0.000 A 
ATOM     16  C   UNL     1      -0.899   0.145   1.375  0.00  0.00    +0.000 A 
ATOM     17  C   UNL     1       0.454  -0.108   1.605  0.00  0.00    +0.000 A 
ENDBRANCH  11  15
ENDBRANCH  10  11
ENDBRANCH   1  10
TORSDOF 4
