REMARK  Name = *****
REMARK  4 active torsions:
REMARK  status: ('A' for Active; 'I' for Inactive)
REMARK    1  A    between atoms: C_1  and  C_2
REMARK    2  A    between atoms: C_7  and  C_8
REMARK    3  A    between atoms: C_9  and  C_10
REMARK    4  A    between atoms: C_12  and  C_16
REMARK                            x       y       z     vdW  Elec       q    Type
REMARK                         _______ _______ _______ _____ _____    ______ ____
ROOT
ATOM      1  C   UNL     1       1.063  -2.425   0.194  0.00  0.00    +0.000 C 
ATOM      2  C   UNL     1       2.355  -2.633  -0.104  0.00  0.00    +0.000 C 
ENDROOT
BRANCH   1   9
ATOM      3  C   UNL     1      -1.378  -1.925  -1.414  0.00  0.00    +0.000 C 
ATOM      4  C   UNL     1      -0.722  -0.846  -0.594  0.00  0.00    +0.000 A 
ATOM      5  C   UNL     1      -1.294   0.437  -0.573  0.00  0.00    +0.000 A 
ATOM      6  C   UNL     1      -0.720   1.464   0.175  0.00  0.00    +0.000 A 
ATOM      7  C   UNL     1       0.430   1.222   0.919  0.00  0.00    +0.000 A 
ATOM      8  C   UNL     1       1.007  -0.048   0.913  0.00  0.00    +0.000 A 
ATOM      9  C   UNL     1       0.446  -1.090   0.156  0.00  0.00    +0.000 A 
ENDBRANCH   1   9
BRANCH   2  10
ATOM     10  C   UNL     1       2.998  -3.953  -0.075  0.00  0.00    +0.000 A 
ATOM     11  C   UNL     1       2.357  -5.103  -0.557  0.00  0.00    +0.000 A 
ATOM     12  C   UNL     1       3.022  -6.334  -0.538  0.00  0.00    +0.000 A 
ATOM     13  C   UNL     1       4.328  -6.430  -0.051  0.00  0.00    +0.000 A 
ATOM     14  C   UNL     1       4.974  -5.287   0.414  0.00  0.00    +0.000 A 
ATOM     15  C   UNL     1       4.314  -4.055   0.395  0.00  0.00    +0.000 A 
BRANCH  12  16
ATOM     16  C   UNL     1       2.331  -7.535  -1.047  0.00  0.00    +0.000 C 
ATOM     17  O   UNL     1       2.862  -8.639  -1.057  0.00  0.00    +0.000 OA
ENDBRANCH  12  16
ENDBRANCH   2  10
TORSDOF 3
