REMARK  Name = *****
REMARK  4 active torsions:
REMARK  status: ('A' for Active; 'I' for Inactive)
REMARK    1  A    between atoms: C_1  and  C_2
REMARK    2  A    between atoms: C_5  and  C_8
REMARK    3  A    between atoms: C_8  and  S_10
REMARK    4  A    between atoms: S_10  and  C_11
REMARK                            x       y       z     vdW  Elec       q    Type
REMARK                         _______ _______ _______ _____ _____    ______ ____
ROOT
ATOM      1  C   UNL     1      -3.327   0.055   0.310  0.00  0.00    +0.000 C 
ATOM      2  O   UNL     1      -3.963  -0.893  -0.136  0.00  0.00    +0.000 OA
ENDROOT
BRANCH   1   7
ATOM      3  C   UNL     1       2.464  -0.064  -0.236  0.00  0.00    +0.000 C 
ATOM      4  C   UNL     1       0.970  -0.003  -0.121  0.00  0.00    +0.000 A 
ATOM      5  C   UNL     1       0.341   1.159   0.339  0.00  0.00    +0.000 A 
ATOM      6  C   UNL     1      -1.051   1.209   0.483  0.00  0.00    +0.000 A 
ATOM      7  C   UNL     1      -1.837   0.089   0.179  0.00  0.00    +0.000 A 
ATOM      8  C   UNL     1      -1.200  -1.077  -0.274  0.00  0.00    +0.000 A 
ATOM      9  C   UNL     1       0.190  -1.125  -0.415  0.00  0.00    +0.000 A 
ENDBRANCH   1   7
BRANCH   1  10
ATOM     10  S   UNL     1      -4.119   1.400   1.130  0.00  0.00    +0.000 S 
BRANCH  10  11
ATOM     11  C   UNL     1      -5.729   0.735   1.507  0.00  0.00    +0.000 A 
ATOM     12  C   UNL     1      -5.879  -0.404   2.306  0.00  0.00    +0.000 A 
ATOM     13  C   UNL     1      -7.154  -0.887   2.617  0.00  0.00    +0.000 A 
ATOM     14  C   UNL     1      -8.280  -0.224   2.137  0.00  0.00    +0.000 A 
ATOM     15  C   UNL     1      -8.145   0.919   1.351  0.00  0.00    +0.000 A 
ATOM     16  C   UNL     1      -6.869   1.399   1.040  0.00  0.00    +0.000 A 
ATOM     17 BR   UNL     1     -10.004  -0.874   2.558  0.00  0.00    +0.000 Br
ENDBRANCH  10  11
ENDBRANCH   1  10
TORSDOF 3
