REMARK  Name = *****
REMARK  3 active torsions:
REMARK  status: ('A' for Active; 'I' for Inactive)
REMARK    1  A    between atoms: C_4  and  C_7
REMARK    2  A    between atoms: C_8  and  C_9
REMARK    3  A    between atoms: C_12  and  C_14
REMARK                            x       y       z     vdW  Elec       q    Type
REMARK                         _______ _______ _______ _____ _____    ______ ____
ROOT
ATOM      1  C   UNL     1      -2.879   0.360  -0.394  0.00  0.00    +0.000 C 
ATOM      2  C   UNL     1      -3.791  -0.618  -0.279  0.00  0.00    +0.000 C 
ENDROOT
BRANCH   1   6
ATOM      3  C   UNL     1       1.332  -0.119   0.192  0.00  0.00    +0.000 A 
ATOM      4  C   UNL     1       0.607  -1.130  -0.436  0.00  0.00    +0.000 A 
ATOM      5  C   UNL     1      -0.770  -0.991  -0.627  0.00  0.00    +0.000 A 
ATOM      6  C   UNL     1      -1.438   0.158  -0.184  0.00  0.00    +0.000 A 
ATOM      7  C   UNL     1      -0.695   1.175   0.430  0.00  0.00    +0.000 A 
ATOM      8  C   UNL     1       0.681   1.035   0.622  0.00  0.00    +0.000 A 
ENDBRANCH   1   6
BRANCH   2   9
ATOM      9  C   UNL     1      -5.175  -0.377  -0.485  0.00  0.00    +0.000 A 
ATOM     10  N   UNL     1      -6.142  -1.279  -0.400  0.00  0.00    +0.000 NA
ATOM     11  N   UNL     1      -7.339  -0.655  -0.671  0.00  0.00    +0.000 NA
ATOM     12  C   UNL     1      -7.050   0.604  -0.910  0.00  0.00    +0.000 A 
ATOM     13  O   UNL     1      -5.708   0.860  -0.812  0.00  0.00    +0.000 OA
BRANCH  12  14
ATOM     14  C   UNL     1      -7.959   1.722  -1.256  0.00  0.00    +0.000 C 
ATOM     15 CL   UNL     1      -7.907   3.000  -0.015  0.00  0.00    +0.000 Cl
ATOM     16 CL   UNL     1      -7.559   2.408  -2.851  0.00  0.00    +0.000 Cl
ENDBRANCH  12  14
ENDBRANCH   2   9
TORSDOF 3
