REMARK  Name = *****
REMARK  3 active torsions:
REMARK  status: ('A' for Active; 'I' for Inactive)
REMARK    1  A    between atoms: C_4  and  C_7
REMARK    2  A    between atoms: C_7  and  C_8
REMARK    3  A    between atoms: C_8  and  C_9
REMARK                            x       y       z     vdW  Elec       q    Type
REMARK                         _______ _______ _______ _____ _____    ______ ____
ROOT
ATOM      1  C   UNL     1      -2.811   0.509  -0.274  0.00  0.00    +0.000 C 
ATOM      2  F   UNL     1      -3.110   1.303  -1.353  0.00  0.00    +0.000 F 
ATOM      3  F   UNL     1      -3.529  -0.642  -0.484  0.00  0.00    +0.000 F 
ENDROOT
BRANCH   1   7
ATOM      4  C   UNL     1       1.431  -0.325  -0.100  0.00  0.00    +0.000 A 
ATOM      5  C   UNL     1       0.516  -1.281   0.333  0.00  0.00    +0.000 A 
ATOM      6  C   UNL     1      -0.853  -1.015   0.274  0.00  0.00    +0.000 A 
ATOM      7  C   UNL     1      -1.320   0.213  -0.219  0.00  0.00    +0.000 A 
ATOM      8  C   UNL     1      -0.387   1.167  -0.654  0.00  0.00    +0.000 A 
ATOM      9  C   UNL     1       0.982   0.899  -0.594  0.00  0.00    +0.000 A 
ENDBRANCH   1   7
BRANCH   1  10
ATOM     10  C   UNL     1      -3.317   1.200   1.030  0.00  0.00    +0.000 C 
ATOM     11  F   UNL     1      -3.013   0.408   2.109  0.00  0.00    +0.000 F 
ATOM     12  F   UNL     1      -2.602   2.353   1.238  0.00  0.00    +0.000 F 
BRANCH  10  13
ATOM     13  C   UNL     1      -4.809   1.492   0.976  0.00  0.00    +0.000 A 
ATOM     14  C   UNL     1      -5.738   0.555   1.453  0.00  0.00    +0.000 A 
ATOM     15  C   UNL     1      -7.107   0.821   1.394  0.00  0.00    +0.000 A 
ATOM     16  C   UNL     1      -7.561   2.024   0.859  0.00  0.00    +0.000 A 
ATOM     17  C   UNL     1      -6.650   2.965   0.383  0.00  0.00    +0.000 A 
ATOM     18  C   UNL     1      -5.280   2.702   0.441  0.00  0.00    +0.000 A 
ENDBRANCH  10  13
ENDBRANCH   1  10
TORSDOF 3
