REMARK  Name = *****
REMARK  6 active torsions:
REMARK  status: ('A' for Active; 'I' for Inactive)
REMARK    1  A    between atoms: C_1  and  C_2
REMARK    2  A    between atoms: C_2  and  N_3
REMARK    3  A    between atoms: N_3  and  C_4
REMARK    4  A    between atoms: N_3  and  C_12
REMARK    5  A    between atoms: C_4  and  C_5
REMARK    6  A    between atoms: C_16  and  C_18
REMARK                            x       y       z     vdW  Elec       q    Type
REMARK                         _______ _______ _______ _____ _____    ______ ____
ROOT
ATOM      1  N   UNL     1       2.886  -0.214  -1.094  0.00  0.00    +0.000 N 
ENDROOT
BRANCH   1   2
ATOM      2  C   UNL     1       4.217   0.187  -1.285  0.00  0.00    +0.000 A 
ATOM      3  C   UNL     1       5.251  -0.402  -0.538  0.00  0.00    +0.000 A 
ATOM      4  C   UNL     1       6.590  -0.031  -0.701  0.00  0.00    +0.000 A 
ATOM      5  C   UNL     1       6.935   0.939  -1.634  0.00  0.00    +0.000 A 
ATOM      6  C   UNL     1       5.945   1.528  -2.420  0.00  0.00    +0.000 A 
ATOM      7  C   UNL     1       4.602   1.152  -2.232  0.00  0.00    +0.000 A 
ATOM      8  C   UNL     1       6.296   2.597  -3.413  0.00  0.00    +0.000 C 
ENDBRANCH   1   2
BRANCH   1  10
ATOM      9  C   UNL     1       2.198   1.144   0.872  0.00  0.00    +0.000 C 
ATOM     10  C   UNL     1       2.402  -0.253   0.298  0.00  0.00    +0.000 C 
ENDBRANCH   1  10
BRANCH   1  11
ATOM     11  C   UNL     1       1.860   0.113  -2.106  0.00  0.00    +0.000 C 
BRANCH  11  12
ATOM     12  C   UNL     1       2.053  -0.632  -3.414  0.00  0.00    +0.000 A 
ATOM     13  C   UNL     1       2.512  -1.964  -3.402  0.00  0.00    +0.000 A 
ATOM     14  C   UNL     1       2.664  -2.690  -4.585  0.00  0.00    +0.000 A 
ATOM     15  C   UNL     1       2.344  -2.105  -5.805  0.00  0.00    +0.000 A 
ATOM     16  C   UNL     1       1.866  -0.796  -5.840  0.00  0.00    +0.000 A 
ATOM     17  C   UNL     1       1.714  -0.066  -4.654  0.00  0.00    +0.000 A 
ATOM     18 CL   UNL     1       1.083   1.538  -4.794  0.00  0.00    +0.000 Cl
ENDBRANCH  11  12
ENDBRANCH   1  11
TORSDOF 4
