REMARK  Name = *****
REMARK  3 active torsions:
REMARK  status: ('A' for Active; 'I' for Inactive)
REMARK    1  A    between atoms: C_1  and  C_2
REMARK    2  A    between atoms: C_7  and  C_8
REMARK    3  A    between atoms: C_10  and  C_11
REMARK                            x       y       z     vdW  Elec       q    Type
REMARK                         _______ _______ _______ _____ _____    ______ ____
ROOT
ATOM      1  C   UNL     1       0.900  -2.333   0.277  0.00  0.00    +0.000 C 
ATOM      2  C   UNL     1       1.952  -2.172  -0.791  0.00  0.00    +0.000 C 
ATOM      3  C   UNL     1       2.379  -2.482   0.619  0.00  0.00    +0.000 C 
ENDROOT
BRANCH   1  10
ATOM      4  C   UNL     1      -1.088  -2.848  -1.920  0.00  0.00    +0.000 C 
ATOM      5  C   UNL     1      -0.956  -3.785  -0.749  0.00  0.00    +0.000 A 
ATOM      6  C   UNL     1      -1.771  -4.931  -0.707  0.00  0.00    +0.000 A 
ATOM      7  C   UNL     1      -1.688  -5.827   0.355  0.00  0.00    +0.000 A 
ATOM      8  C   UNL     1      -0.788  -5.591   1.386  0.00  0.00    +0.000 A 
ATOM      9  C   UNL     1       0.034  -4.464   1.345  0.00  0.00    +0.000 A 
ATOM     10  C   UNL     1      -0.011  -3.546   0.276  0.00  0.00    +0.000 A 
ENDBRANCH   1  10
BRANCH   3  11
ATOM     11  C   UNL     1       3.060  -1.428   1.460  0.00  0.00    +0.000 A 
ATOM     12  C   UNL     1       2.572  -1.084   2.732  0.00  0.00    +0.000 A 
ATOM     13  C   UNL     1       3.208  -0.122   3.521  0.00  0.00    +0.000 A 
ATOM     14  C   UNL     1       4.355   0.513   3.054  0.00  0.00    +0.000 A 
ATOM     15  C   UNL     1       4.865   0.183   1.802  0.00  0.00    +0.000 A 
ATOM     16  C   UNL     1       4.224  -0.780   1.018  0.00  0.00    +0.000 A 
ENDBRANCH   3  11
TORSDOF 2
