REMARK  Name = *****
REMARK  2 active torsions:
REMARK  status: ('A' for Active; 'I' for Inactive)
REMARK    1  A    between atoms: C_1  and  C_2
REMARK    2  A    between atoms: C_10  and  C_13
REMARK                            x       y       z     vdW  Elec       q    Type
REMARK                         _______ _______ _______ _____ _____    ______ ____
ROOT
ATOM      1  C   UNL     1       0.990   0.249  -0.099  0.00  0.00    +0.000 C 
ATOM      2  C   UNL     1       2.512   0.075  -0.077  0.00  0.00    +0.000 C 
ATOM      3  C   UNL     1       3.000  -0.776  -1.258  0.00  0.00    +0.000 C 
ATOM      4  C   UNL     1       2.677  -2.262  -1.095  0.00  0.00    +0.000 C 
ATOM      5  C   UNL     1       3.195  -2.836   0.233  0.00  0.00    +0.000 C 
ATOM      6  C   UNL     1       2.664  -1.999   1.408  0.00  0.00    +0.000 C 
ATOM      7  C   UNL     1       2.994  -0.514   1.256  0.00  0.00    +0.000 C 
ATOM      8  O   UNL     1       2.717  -4.192   0.294  0.00  0.00    +0.000 OA
ATOM      9  O   UNL     1       3.269  -4.820   1.503  0.00  0.00    +0.000 OA
ATOM     10  C   UNL     1       4.704  -4.814   1.387  0.00  0.00    +0.000 C 
ATOM     11  O   UNL     1       5.172  -3.453   1.364  0.00  0.00    +0.000 OA
ATOM     12  O   UNL     1       4.633  -2.810   0.156  0.00  0.00    +0.000 OA
ENDROOT
BRANCH  10  13
ATOM     13  C   UNL     1       5.251  -5.694   0.271  0.00  0.00    +0.000 A 
ATOM     14  C   UNL     1       6.493  -5.416  -0.324  0.00  0.00    +0.000 A 
ATOM     15  C   UNL     1       7.013  -6.250  -1.316  0.00  0.00    +0.000 A 
ATOM     16  C   UNL     1       6.308  -7.381  -1.718  0.00  0.00    +0.000 A 
ATOM     17  C   UNL     1       5.083  -7.682  -1.127  0.00  0.00    +0.000 A 
ATOM     18  C   UNL     1       4.561  -6.848  -0.136  0.00  0.00    +0.000 A 
ENDBRANCH  10  13
TORSDOF 1
