REMARK  Name = *****
REMARK  5 active torsions:
REMARK  status: ('A' for Active; 'I' for Inactive)
REMARK    1  A    between atoms: C_1  and  C_2
REMARK    2  A    between atoms: C_5  and  N_8
REMARK    3  A    between atoms: C_9  and  C_10
REMARK    4  A    between atoms: C_9  and  O_16
REMARK    5  A    between atoms: O_16  and  C_17
REMARK                            x       y       z     vdW  Elec       q    Type
REMARK                         _______ _______ _______ _____ _____    ______ ____
ROOT
ATOM      1  N   UNL     1       1.237  -2.410   0.484  0.00  0.00    +0.000 NA
ATOM      2  C   UNL     1       0.921  -3.635   0.208  0.00  0.00    +0.000 C 
ENDROOT
BRANCH   1   7
ATOM      3  C   UNL     1      -2.771   1.688   0.396  0.00  0.00    +0.000 C 
ATOM      4  C   UNL     1      -1.705   0.633   0.426  0.00  0.00    +0.000 A 
ATOM      5  C   UNL     1      -0.791   0.523  -0.630  0.00  0.00    +0.000 A 
ATOM      6  C   UNL     1       0.185  -0.479  -0.620  0.00  0.00    +0.000 A 
ATOM      7  C   UNL     1       0.251  -1.406   0.433  0.00  0.00    +0.000 A 
ATOM      8  C   UNL     1      -0.659  -1.281   1.489  0.00  0.00    +0.000 A 
ATOM      9  C   UNL     1      -1.637  -0.282   1.481  0.00  0.00    +0.000 A 
ATOM     10 CL   UNL     1       1.294  -0.548  -1.946  0.00  0.00    +0.000 Cl
ENDBRANCH   1   7
BRANCH   2  11
ATOM     11  C   UNL     1      -0.373  -4.201  -0.206  0.00  0.00    +0.000 A 
ATOM     12  C   UNL     1      -0.923  -3.861  -1.445  0.00  0.00    +0.000 A 
ATOM     13  C   UNL     1      -2.156  -4.395  -1.821  0.00  0.00    +0.000 A 
ATOM     14  C   UNL     1      -2.830  -5.268  -0.965  0.00  0.00    +0.000 A 
ATOM     15  C   UNL     1      -2.273  -5.614   0.268  0.00  0.00    +0.000 A 
ATOM     16  C   UNL     1      -1.042  -5.082   0.650  0.00  0.00    +0.000 A 
ENDBRANCH   2  11
BRANCH   2  17
ATOM     17  O   UNL     1       1.813  -4.658   0.261  0.00  0.00    +0.000 OA
ATOM     18  C   UNL     1       3.157  -4.298   0.599  0.00  0.00    +0.000 C 
ENDBRANCH   2  17
TORSDOF 3
