REMARK  Name = *****
REMARK  2 active torsions:
REMARK  status: ('A' for Active; 'I' for Inactive)
REMARK    1  A    between atoms: C_4  and  C_7
REMARK    2  A    between atoms: C_10  and  C_13
REMARK                            x       y       z     vdW  Elec       q    Type
REMARK                         _______ _______ _______ _____ _____    ______ ____
ROOT
ATOM      1  C   UNL     1       2.783  -0.756  -0.203  0.00  0.00    +0.000 C 
ATOM      2  O   UNL     1       2.891  -0.667  -1.632  0.00  0.00    +0.000 OA
ATOM      3  O   UNL     1       2.057  -1.729  -2.216  0.00  0.00    +0.000 OA
ATOM      4  C   UNL     1       2.571  -2.995  -1.761  0.00  0.00    +0.000 C 
ATOM      5  O   UNL     1       2.443  -3.078  -0.329  0.00  0.00    +0.000 OA
ATOM      6  O   UNL     1       3.277  -2.021   0.262  0.00  0.00    +0.000 OA
ENDROOT
BRANCH   1  10
ATOM      7  C   UNL     1      -0.528   1.222   1.888  0.00  0.00    +0.000 C 
ATOM      8  C   UNL     1      -0.486   1.304   0.367  0.00  0.00    +0.000 C 
ATOM      9  C   UNL     1       0.892   0.942  -0.181  0.00  0.00    +0.000 C 
ATOM     10  C   UNL     1       1.363  -0.436   0.314  0.00  0.00    +0.000 C 
ATOM     11  C   UNL     1       1.302  -0.517   1.849  0.00  0.00    +0.000 C 
ATOM     12  C   UNL     1      -0.079  -0.148   2.385  0.00  0.00    +0.000 C 
ENDBRANCH   1  10
BRANCH   4  13
ATOM     13  C   UNL     1       3.954  -3.343  -2.295  0.00  0.00    +0.000 A 
ATOM     14  C   UNL     1       4.802  -4.214  -1.590  0.00  0.00    +0.000 A 
ATOM     15  C   UNL     1       6.051  -4.569  -2.104  0.00  0.00    +0.000 A 
ATOM     16  C   UNL     1       6.466  -4.069  -3.336  0.00  0.00    +0.000 A 
ATOM     17  C   UNL     1       5.632  -3.218  -4.057  0.00  0.00    +0.000 A 
ATOM     18  C   UNL     1       4.383  -2.862  -3.544  0.00  0.00    +0.000 A 
ENDBRANCH   4  13
TORSDOF 2
