REMARK  Name = *****
REMARK  4 active torsions:
REMARK  status: ('A' for Active; 'I' for Inactive)
REMARK    1  A    between atoms: C_1  and  C_2
REMARK    2  A    between atoms: C_5  and  C_8
REMARK    3  A    between atoms: C_9  and  C_10
REMARK    4  A    between atoms: C_10  and  C_11
REMARK                            x       y       z     vdW  Elec       q    Type
REMARK                         _______ _______ _______ _____ _____    ______ ____
ROOT
ATOM      1  C   UNL     1      -3.252   0.130  -0.067  0.00  0.00    +0.000 C 
ATOM      2  C   UNL     1      -4.005   1.242  -0.072  0.00  0.00    +0.000 C 
ENDROOT
BRANCH   1   7
ATOM      3  C   UNL     1       2.535  -0.081  -0.013  0.00  0.00    +0.000 C 
ATOM      4  C   UNL     1       1.039   0.004  -0.047  0.00  0.00    +0.000 A 
ATOM      5  C   UNL     1       0.367   1.009   0.657  0.00  0.00    +0.000 A 
ATOM      6  C   UNL     1      -1.031   1.068   0.650  0.00  0.00    +0.000 A 
ATOM      7  C   UNL     1      -1.782   0.124  -0.061  0.00  0.00    +0.000 A 
ATOM      8  C   UNL     1      -1.107  -0.898  -0.738  0.00  0.00    +0.000 A 
ATOM      9  C   UNL     1       0.290  -0.958  -0.732  0.00  0.00    +0.000 A 
ENDBRANCH   1   7
BRANCH   2  10
ATOM     10  C   UNL     1      -5.510   1.238  -0.090  0.00  0.00    +0.000 C 
BRANCH  10  11
ATOM     11  C   UNL     1      -6.110   1.908  -1.294  0.00  0.00    +0.000 A 
ATOM     12  C   UNL     1      -6.148   1.446  -2.595  0.00  0.00    +0.000 A 
ATOM     13  C   UNL     1      -6.803   2.356  -3.475  0.00  0.00    +0.000 A 
ATOM     14  C   UNL     1      -7.242   3.482  -2.817  0.00  0.00    +0.000 A 
ATOM     15  S   UNL     1      -6.865   3.440  -1.150  0.00  0.00    +0.000 S 
ENDBRANCH  10  11
ENDBRANCH   2  10
TORSDOF 3
