REMARK  Name = *****
REMARK  0 active torsions:
REMARK  status: ('A' for Active; 'I' for Inactive)
REMARK                            x       y       z     vdW  Elec       q    Type
REMARK                         _______ _______ _______ _____ _____    ______ ____
ROOT
ATOM      1  C   UNL     1       1.270   1.983  -0.176  0.00  0.00    +0.000 C 
ATOM      2  C   UNL     1       1.294   3.077   0.899  0.00  0.00    +0.000 C 
ATOM      3  C   UNL     1       1.929   4.358   0.424  0.00  0.00    +0.000 A 
ATOM      4  C   UNL     1       1.208   5.509   0.157  0.00  0.00    +0.000 A 
ATOM      5  S   UNL     1       2.184   6.804  -0.369  0.00  0.00    +0.000 S 
ATOM      6  C   UNL     1       3.592   5.851  -0.247  0.00  0.00    +0.000 A 
ATOM      7  C   UNL     1       3.340   4.561   0.185  0.00  0.00    +0.000 A 
ATOM      8  C   UNL     1       4.420   3.525   0.367  0.00  0.00    +0.000 C 
ATOM      9  C   UNL     1       4.392   2.431  -0.707  0.00  0.00    +0.000 C 
ATOM     10  C   UNL     1       3.759   1.151  -0.226  0.00  0.00    +0.000 A 
ATOM     11  C   UNL     1       4.482   0.003   0.050  0.00  0.00    +0.000 A 
ATOM     12  S   UNL     1       3.507  -1.289   0.585  0.00  0.00    +0.000 S 
ATOM     13  C   UNL     1       2.098  -0.339   0.456  0.00  0.00    +0.000 A 
ATOM     14  C   UNL     1       2.349   0.948   0.014  0.00  0.00    +0.000 A 
ENDROOT
TORSDOF 0
