REMARK  Name = *****
REMARK  6 active torsions:
REMARK  status: ('A' for Active; 'I' for Inactive)
REMARK    1  A    between atoms: C_1  and  O_2
REMARK    2  A    between atoms: O_2  and  C_3
REMARK    3  A    between atoms: C_5  and  O_18
REMARK    4  A    between atoms: C_7  and  C_9
REMARK    5  A    between atoms: C_10  and  C_11
REMARK    6  A    between atoms: O_18  and  C_19
REMARK                            x       y       z     vdW  Elec       q    Type
REMARK                         _______ _______ _______ _____ _____    ______ ____
ROOT
ATOM      1  C   UNL     1       3.088  -0.829  -0.685  0.00  0.00    +0.000 A 
ATOM      2  C   UNL     1       2.632  -1.321  -1.910  0.00  0.00    +0.000 A 
ATOM      3  C   UNL     1       3.359  -2.306  -2.582  0.00  0.00    +0.000 A 
ATOM      4  C   UNL     1       4.548  -2.791  -2.026  0.00  0.00    +0.000 A 
ATOM      5  C   UNL     1       5.029  -2.296  -0.809  0.00  0.00    +0.000 A 
ATOM      6  C   UNL     1       4.279  -1.322  -0.142  0.00  0.00    +0.000 A 
ENDROOT
BRANCH   1   8
ATOM      7  C   UNL     1       1.248   0.658  -0.410  0.00  0.00    +0.000 C 
ATOM      8  O   UNL     1       2.471   0.125   0.079  0.00  0.00    +0.000 OA
ENDBRANCH   1   8
BRANCH   5   9
ATOM      9  C   UNL     1       6.257  -2.804  -0.179  0.00  0.00    +0.000 C 
ATOM     10  C   UNL     1       7.352  -3.177  -0.862  0.00  0.00    +0.000 C 
BRANCH  10  11
ATOM     11  C   UNL     1       8.583  -3.668  -0.228  0.00  0.00    +0.000 A 
ATOM     12  C   UNL     1       8.561  -4.520   0.888  0.00  0.00    +0.000 A 
ATOM     13  C   UNL     1       9.753  -4.991   1.444  0.00  0.00    +0.000 A 
ATOM     14  C   UNL     1      10.967  -4.621   0.879  0.00  0.00    +0.000 A 
ATOM     15  C   UNL     1      11.012  -3.793  -0.235  0.00  0.00    +0.000 A 
ATOM     16  C   UNL     1       9.820  -3.321  -0.792  0.00  0.00    +0.000 A 
ATOM     17  F   UNL     1      12.109  -5.075   1.411  0.00  0.00    +0.000 F 
ENDBRANCH  10  11
ENDBRANCH   5   9
BRANCH   3  18
ATOM     18  O   UNL     1       3.021  -2.880  -3.779  0.00  0.00    +0.000 OA
ATOM     19  C   UNL     1       1.826  -2.426  -4.402  0.00  0.00    +0.000 C 
ENDBRANCH   3  18
TORSDOF 4
