REMARK  Name = *****
REMARK  5 active torsions:
REMARK  status: ('A' for Active; 'I' for Inactive)
REMARK    1  A    between atoms: C_1  and  C_2
REMARK    2  A    between atoms: C_2  and  O_4
REMARK    3  A    between atoms: O_4  and  C_5
REMARK    4  A    between atoms: C_9  and  C_11
REMARK    5  A    between atoms: C_12  and  C_13
REMARK                            x       y       z     vdW  Elec       q    Type
REMARK                         _______ _______ _______ _____ _____    ______ ____
ROOT
ATOM      1  C   UNL     1       4.721   0.058  -1.164  0.00  0.00    +0.000 A 
ATOM      2  C   UNL     1       5.426  -0.885  -0.420  0.00  0.00    +0.000 A 
ATOM      3  C   UNL     1       6.818  -0.879  -0.461  0.00  0.00    +0.000 A 
ATOM      4  C   UNL     1       7.491   0.050  -1.262  0.00  0.00    +0.000 A 
ATOM      5  C   UNL     1       6.781   0.973  -2.043  0.00  0.00    +0.000 A 
ATOM      6  C   UNL     1       5.382   0.975  -1.982  0.00  0.00    +0.000 A 
ENDROOT
BRANCH   5   7
ATOM      7  C   UNL     1       7.457   1.976  -2.879  0.00  0.00    +0.000 C 
ATOM      8  C   UNL     1       8.568   1.725  -3.591  0.00  0.00    +0.000 C 
BRANCH   8   9
ATOM      9  C   UNL     1       9.238   2.719  -4.441  0.00  0.00    +0.000 A 
ATOM     10  C   UNL     1       9.359   4.065  -4.066  0.00  0.00    +0.000 A 
ATOM     11  C   UNL     1      10.032   4.975  -4.887  0.00  0.00    +0.000 A 
ATOM     12  C   UNL     1      10.597   4.541  -6.084  0.00  0.00    +0.000 A 
ATOM     13  C   UNL     1      10.500   3.204  -6.464  0.00  0.00    +0.000 A 
ATOM     14  C   UNL     1       9.827   2.296  -5.641  0.00  0.00    +0.000 A 
ATOM     15 CL   UNL     1      11.426   5.659  -7.094  0.00  0.00    +0.000 Cl
ENDBRANCH   8   9
ENDBRANCH   5   7
BRANCH   1  16
ATOM     16  O   UNL     1       3.321   0.059  -1.193  0.00  0.00    +0.000 OA
BRANCH  16  18
ATOM     17  C   UNL     1       1.208   0.259  -0.185  0.00  0.00    +0.000 C 
ATOM     18  C   UNL     1       2.693   0.308   0.023  0.00  0.00    +0.000 C 
ATOM     19  O   UNL     1       3.230   0.548   1.095  0.00  0.00    +0.000 OA
ENDBRANCH  16  18
ENDBRANCH   1  16
TORSDOF 4
