REMARK  Name = *****
REMARK  5 active torsions:
REMARK  status: ('A' for Active; 'I' for Inactive)
REMARK    1  A    between atoms: C_1  and  O_2
REMARK    2  A    between atoms: O_2  and  C_3
REMARK    3  A    between atoms: C_6  and  N_9
REMARK    4  A    between atoms: N_9  and  C_10
REMARK    5  A    between atoms: C_10  and  C_11
REMARK                            x       y       z     vdW  Elec       q    Type
REMARK                         _______ _______ _______ _____ _____    ______ ____
ROOT
ATOM      1  C   UNL     1       2.993   1.005  -0.914  0.00  0.00    +0.000 A 
ATOM      2  C   UNL     1       2.268   2.186  -1.104  0.00  0.00    +0.000 A 
ATOM      3  C   UNL     1       2.661   3.100  -2.086  0.00  0.00    +0.000 A 
ATOM      4  C   UNL     1       3.777   2.820  -2.867  0.00  0.00    +0.000 A 
ATOM      5  C   UNL     1       4.511   1.654  -2.696  0.00  0.00    +0.000 A 
ATOM      6  C   UNL     1       4.113   0.746  -1.714  0.00  0.00    +0.000 A 
ENDROOT
BRANCH   1   8
ATOM      7  C   UNL     1       1.586   0.241   0.844  0.00  0.00    +0.000 C 
ATOM      8  O   UNL     1       2.716   0.031   0.006  0.00  0.00    +0.000 OA
ENDBRANCH   1   8
BRANCH   4   9
ATOM      9  N   UNL     1       4.163   3.726  -3.839  0.00  0.00    +0.000 NA
BRANCH   9  10
ATOM     10  C   UNL     1       4.474   4.454  -4.623  0.00  0.00    +0.000 C 
BRANCH  10  11
ATOM     11  C   UNL     1       4.872   5.388  -5.630  0.00  0.00    +0.000 A 
ATOM     12  C   UNL     1       5.065   6.732  -5.302  0.00  0.00    +0.000 A 
ATOM     13  C   UNL     1       5.453   7.643  -6.286  0.00  0.00    +0.000 A 
ATOM     14  C   UNL     1       5.649   7.211  -7.598  0.00  0.00    +0.000 A 
ATOM     15  C   UNL     1       5.458   5.869  -7.928  0.00  0.00    +0.000 A 
ATOM     16  C   UNL     1       5.069   4.957  -6.944  0.00  0.00    +0.000 A 
ENDBRANCH  10  11
ENDBRANCH   9  10
ENDBRANCH   4   9
TORSDOF 4
