REMARK  Name = *****
REMARK  3 active torsions:
REMARK  status: ('A' for Active; 'I' for Inactive)
REMARK    1  A    between atoms: C_5  and  S_7
REMARK    2  A    between atoms: S_7  and  C_8
REMARK    3  A    between atoms: C_8  and  C_9
REMARK                            x       y       z     vdW  Elec       q    Type
REMARK                         _______ _______ _______ _____ _____    ______ ____
ROOT
ATOM      1  S   UNL     1      -1.945  -1.253   1.767  0.00  0.00    +0.000 S 
ENDROOT
BRANCH   1   6
ATOM      2  C   UNL     1      -0.106   1.518   0.055  0.00  0.00    +0.000 C 
ATOM      3  C   UNL     1       1.253   0.938  -0.334  0.00  0.00    +0.000 C 
ATOM      4  C   UNL     1       1.400  -0.508   0.031  0.00  0.00    +0.000 C 
ATOM      5  C   UNL     1       0.356  -1.310   0.286  0.00  0.00    +0.000 C 
ATOM      6  C   UNL     1      -1.078  -0.866   0.199  0.00  0.00    +0.000 C 
ATOM      7  C   UNL     1      -1.264   0.580  -0.295  0.00  0.00    +0.000 C 
ENDBRANCH   1   6
BRANCH   1   8
ATOM      8  C   UNL     1      -1.152  -0.093   2.923  0.00  0.00    +0.000 C 
BRANCH   8   9
ATOM      9  C   UNL     1      -1.531  -0.425   4.337  0.00  0.00    +0.000 A 
ATOM     10  C   UNL     1      -1.034  -1.432   5.143  0.00  0.00    +0.000 A 
ATOM     11  C   UNL     1      -1.628  -1.435   6.438  0.00  0.00    +0.000 A 
ATOM     12  C   UNL     1      -2.555  -0.428   6.581  0.00  0.00    +0.000 A 
ATOM     13  S   UNL     1      -2.706   0.514   5.162  0.00  0.00    +0.000 S 
ENDBRANCH   8   9
ENDBRANCH   1   8
TORSDOF 3
