REMARK  Name = *****
REMARK  3 active torsions:
REMARK  status: ('A' for Active; 'I' for Inactive)
REMARK    1  A    between atoms: C_4  and  C_7
REMARK    2  A    between atoms: C_7  and  C_8
REMARK    3  A    between atoms: C_8  and  C_9
REMARK                            x       y       z     vdW  Elec       q    Type
REMARK                         _______ _______ _______ _____ _____    ______ ____
ROOT
ATOM      1  C   UNL     1       2.833  -0.785  -0.115  0.00  0.00    +0.000 C 
ATOM      2  O   UNL     1       3.544  -0.928   0.918  0.00  0.00    +0.000 OA
ENDROOT
BRANCH   1   6
ATOM      3  C   UNL     1      -1.429   0.381  -0.272  0.00  0.00    +0.000 C 
ATOM      4  C   UNL     1      -1.071  -1.010   0.240  0.00  0.00    +0.000 C 
ATOM      5  C   UNL     1       0.341  -1.419  -0.177  0.00  0.00    +0.000 C 
ATOM      6  C   UNL     1       1.388  -0.375   0.269  0.00  0.00    +0.000 C 
ATOM      7  C   UNL     1       1.014   1.029  -0.254  0.00  0.00    +0.000 C 
ATOM      8  C   UNL     1      -0.403   1.423   0.163  0.00  0.00    +0.000 C 
ENDBRANCH   1   6
BRANCH   1   9
ATOM      9  C   UNL     1       3.127  -0.919  -1.432  0.00  0.00    +0.000 C 
BRANCH   9  10
ATOM     10  C   UNL     1       4.407  -1.304  -2.065  0.00  0.00    +0.000 A 
ATOM     11  C   UNL     1       5.323  -2.172  -1.461  0.00  0.00    +0.000 A 
ATOM     12  C   UNL     1       6.497  -2.552  -2.119  0.00  0.00    +0.000 A 
ATOM     13  C   UNL     1       6.765  -2.076  -3.400  0.00  0.00    +0.000 A 
ATOM     14  C   UNL     1       5.859  -1.221  -4.023  0.00  0.00    +0.000 A 
ATOM     15  C   UNL     1       4.686  -0.843  -3.361  0.00  0.00    +0.000 A 
ENDBRANCH   9  10
ENDBRANCH   1   9
TORSDOF 3
