REMARK  Name = *****
REMARK  3 active torsions:
REMARK  status: ('A' for Active; 'I' for Inactive)
REMARK    1  A    between atoms: C_4  and  S_6
REMARK    2  A    between atoms: S_6  and  C_7
REMARK    3  A    between atoms: C_8  and  C_9
REMARK                            x       y       z     vdW  Elec       q    Type
REMARK                         _______ _______ _______ _____ _____    ______ ____
ROOT
ATOM      1  C   UNL     1      -2.862   0.334   2.283  0.00  0.00    +0.000 C 
ATOM      2  C   UNL     1      -3.425   0.048   3.466  0.00  0.00    +0.000 C 
ENDROOT
BRANCH   2   3
ATOM      3  C   UNL     1      -4.866  -0.161   3.651  0.00  0.00    +0.000 A 
ATOM      4  C   UNL     1      -5.299  -1.185   4.502  0.00  0.00    +0.000 A 
ATOM      5  C   UNL     1      -6.662  -1.398   4.722  0.00  0.00    +0.000 A 
ATOM      6  C   UNL     1      -7.605  -0.580   4.102  0.00  0.00    +0.000 A 
ATOM      7  C   UNL     1      -7.186   0.453   3.267  0.00  0.00    +0.000 A 
ATOM      8  C   UNL     1      -5.823   0.666   3.046  0.00  0.00    +0.000 A 
ENDBRANCH   2   3
BRANCH   1   9
ATOM      9  S   UNL     1      -1.149   0.552   2.143  0.00  0.00    +0.000 S 
BRANCH   9  13
ATOM     10  C   UNL     1       1.277  -0.100  -0.056  0.00  0.00    +0.000 C 
ATOM     11  C   UNL     1       0.288  -1.245  -0.281  0.00  0.00    +0.000 C 
ATOM     12  C   UNL     1      -1.088  -0.596  -0.406  0.00  0.00    +0.000 C 
ATOM     13  C   UNL     1      -0.974   0.739   0.329  0.00  0.00    +0.000 C 
ATOM     14  C   UNL     1       0.444   1.180  -0.032  0.00  0.00    +0.000 C 
ENDBRANCH   9  13
ENDBRANCH   1   9
TORSDOF 3
