REMARK  Name = *****
REMARK  4 active torsions:
REMARK  status: ('A' for Active; 'I' for Inactive)
REMARK    1  A    between atoms: C_1  and  C_2
REMARK    2  A    between atoms: C_2  and  N_3
REMARK    3  A    between atoms: N_3  and  C_4
REMARK    4  A    between atoms: C_10  and  C_12
REMARK                            x       y       z     vdW  Elec       q    Type
REMARK                         _______ _______ _______ _____ _____    ______ ____
ROOT
ATOM      1  N   UNL     1       2.884   1.091  -0.759  0.00  0.00    +0.000 N 
ATOM      2  C   UNL     1       4.270   1.315  -0.903  0.00  0.00    +0.000 C 
ATOM      3  O   UNL     1       4.815   2.228  -1.520  0.00  0.00    +0.000 OA
ENDROOT
BRANCH   2   4
ATOM      4  C   UNL     1       5.211   0.328  -0.351  0.00  0.00    +0.000 A 
ATOM      5  C   UNL     1       5.711   0.439   0.950  0.00  0.00    +0.000 A 
ATOM      6  C   UNL     1       6.630  -0.508   1.412  0.00  0.00    +0.000 A 
ATOM      7  C   UNL     1       7.053  -1.545   0.573  0.00  0.00    +0.000 A 
ATOM      8  C   UNL     1       6.565  -1.630  -0.731  0.00  0.00    +0.000 A 
ATOM      9  C   UNL     1       5.651  -0.694  -1.204  0.00  0.00    +0.000 A 
ATOM     10 CL   UNL     1       7.094  -2.902  -1.760  0.00  0.00    +0.000 Cl
ATOM     11 CL   UNL     1       5.239   1.706   2.019  0.00  0.00    +0.000 Cl
ENDBRANCH   2   4
BRANCH   1  12
ATOM     12  C   UNL     1       1.927   2.068  -1.242  0.00  0.00    +0.000 A 
ATOM     13  C   UNL     1       0.607   1.708  -1.566  0.00  0.00    +0.000 A 
ATOM     14  C   UNL     1      -0.320   2.651  -2.028  0.00  0.00    +0.000 A 
ATOM     15  C   UNL     1       0.048   3.984  -2.166  0.00  0.00    +0.000 A 
ATOM     16  C   UNL     1       1.341   4.370  -1.839  0.00  0.00    +0.000 A 
ATOM     17  C   UNL     1       2.267   3.423  -1.383  0.00  0.00    +0.000 A 
ENDBRANCH   1  12
BRANCH   1  19
ATOM     18  C   UNL     1       1.688   0.123   1.214  0.00  0.00    +0.000 C 
ATOM     19  C   UNL     1       2.355  -0.138  -0.131  0.00  0.00    +0.000 C 
ENDBRANCH   1  19
TORSDOF 3
