REMARK  Name = *****
REMARK  6 active torsions:
REMARK  status: ('A' for Active; 'I' for Inactive)
REMARK    1  A    between atoms: C_1  and  O_2
REMARK    2  A    between atoms: O_2  and  C_3
REMARK    3  A    between atoms: C_3  and  C_5
REMARK    4  A    between atoms: C_6  and  C_12
REMARK    5  A    between atoms: C_10  and  S_11
REMARK    6  A    between atoms: C_13  and  C_14
REMARK                            x       y       z     vdW  Elec       q    Type
REMARK                         _______ _______ _______ _____ _____    ______ ____
ROOT
ATOM      1  C   UNL     1       4.832   0.674  -1.258  0.00  0.00    +0.000 A 
ATOM      2  C   UNL     1       5.485   1.921  -1.157  0.00  0.00    +0.000 A 
ATOM      3  C   UNL     1       6.879   1.936  -0.992  0.00  0.00    +0.000 A 
ATOM      4  C   UNL     1       7.607   0.747  -0.959  0.00  0.00    +0.000 A 
ATOM      5  C   UNL     1       6.953  -0.478  -1.080  0.00  0.00    +0.000 A 
ATOM      6  C   UNL     1       5.561  -0.531  -1.224  0.00  0.00    +0.000 A 
ENDROOT
BRANCH   1   7
ATOM      7  C   UNL     1       3.368   0.647  -1.437  0.00  0.00    +0.000 C 
ATOM      8  O   UNL     1       2.783   1.021  -2.437  0.00  0.00    +0.000 OA
BRANCH   7  10
ATOM      9  C   UNL     1       1.384   0.203  -0.301  0.00  0.00    +0.000 C 
ATOM     10  O   UNL     1       2.812   0.209  -0.278  0.00  0.00    +0.000 OA
ENDBRANCH   7  10
ENDBRANCH   1   7
BRANCH   6  11
ATOM     11  S   UNL     1       4.822  -2.153  -1.374  0.00  0.00    +0.000 S 
ATOM     12  H   UNL     1       3.474  -2.027  -1.505  0.00  0.00    +0.000 HD
ENDBRANCH   6  11
BRANCH   2  13
ATOM     13  C   UNL     1       4.741   3.193  -1.153  0.00  0.00    +0.000 C 
ATOM     14  C   UNL     1       5.102   4.261  -1.882  0.00  0.00    +0.000 C 
BRANCH  14  15
ATOM     15  C   UNL     1       4.342   5.517  -1.892  0.00  0.00    +0.000 A 
ATOM     16  C   UNL     1       5.034   6.733  -1.835  0.00  0.00    +0.000 A 
ATOM     17  C   UNL     1       4.341   7.946  -1.870  0.00  0.00    +0.000 A 
ATOM     18  C   UNL     1       2.951   7.952  -1.975  0.00  0.00    +0.000 A 
ATOM     19  C   UNL     1       2.254   6.748  -2.050  0.00  0.00    +0.000 A 
ATOM     20  C   UNL     1       2.947   5.535  -2.014  0.00  0.00    +0.000 A 
ENDBRANCH  14  15
ENDBRANCH   2  13
TORSDOF 5
