REMARK  Name = *****
REMARK  5 active torsions:
REMARK  status: ('A' for Active; 'I' for Inactive)
REMARK    1  A    between atoms: C_1  and  C_2
REMARK    2  A    between atoms: C_2  and  C_4
REMARK    3  A    between atoms: C_7  and  C_10
REMARK    4  A    between atoms: C_10  and  C_11
REMARK    5  A    between atoms: C_11  and  C_12
REMARK                            x       y       z     vdW  Elec       q    Type
REMARK                         _______ _______ _______ _____ _____    ______ ____
ROOT
ATOM      1  C   UNL     1       3.027   1.336  -0.077  0.00  0.00    +0.000 C 
ATOM      2  C   UNL     1       4.011   1.480  -0.983  0.00  0.00    +0.000 C 
ATOM      3  C   UNL     1       4.897   2.690  -1.050  0.00  0.00    +0.000 C 
ATOM      4  C   UNL     1       4.870   3.546   0.232  0.00  0.00    +0.000 C 
ATOM      5  C   UNL     1       3.409   3.723   0.685  0.00  0.00    +0.000 C 
ATOM      6  C   UNL     1       2.700   2.387   0.946  0.00  0.00    +0.000 C 
ENDROOT
BRANCH   1   8
ATOM      7  C   UNL     1       0.821   0.080   0.354  0.00  0.00    +0.000 C 
ATOM      8  C   UNL     1       2.264   0.048  -0.076  0.00  0.00    +0.000 C 
ATOM      9  O   UNL     1       2.801  -1.004  -0.419  0.00  0.00    +0.000 OA
ENDBRANCH   1   8
BRANCH   4  10
ATOM     10  C   UNL     1       5.731   2.964   1.376  0.00  0.00    +0.000 C 
BRANCH  10  11
ATOM     11  C   UNL     1       7.237   3.023   1.092  0.00  0.00    +0.000 C 
BRANCH  11  12
ATOM     12  C   UNL     1       8.040   2.551   2.279  0.00  0.00    +0.000 A 
ATOM     13  C   UNL     1       8.259   1.182   2.486  0.00  0.00    +0.000 A 
ATOM     14  C   UNL     1       8.985   0.741   3.593  0.00  0.00    +0.000 A 
ATOM     15  C   UNL     1       9.496   1.663   4.505  0.00  0.00    +0.000 A 
ATOM     16  C   UNL     1       9.280   3.026   4.311  0.00  0.00    +0.000 A 
ATOM     17  C   UNL     1       8.553   3.469   3.205  0.00  0.00    +0.000 A 
ENDBRANCH  11  12
ENDBRANCH  10  11
ENDBRANCH   4  10
TORSDOF 4
