REMARK  Name = *****
REMARK  4 active torsions:
REMARK  status: ('A' for Active; 'I' for Inactive)
REMARK    1  A    between atoms: C_1  and  C_2
REMARK    2  A    between atoms: C_2  and  C_4
REMARK    3  A    between atoms: C_7  and  C_10
REMARK    4  A    between atoms: C_12  and  C_13
REMARK                            x       y       z     vdW  Elec       q    Type
REMARK                         _______ _______ _______ _____ _____    ______ ____
ROOT
ATOM      1  C   UNL     1       3.517   0.827   0.731  0.00  0.00    +0.000 A 
ATOM      2  C   UNL     1       2.719   1.770   1.382  0.00  0.00    +0.000 A 
ATOM      3  C   UNL     1       3.282   2.629   2.334  0.00  0.00    +0.000 A 
ATOM      4  C   UNL     1       4.645   2.569   2.667  0.00  0.00    +0.000 A 
ATOM      5  C   UNL     1       5.432   1.622   1.994  0.00  0.00    +0.000 A 
ATOM      6  C   UNL     1       4.879   0.759   1.042  0.00  0.00    +0.000 A 
ENDROOT
BRANCH   1   8
ATOM      7  C   UNL     1       1.506  -0.045  -0.638  0.00  0.00    +0.000 C 
ATOM      8  C   UNL     1       2.971  -0.114  -0.293  0.00  0.00    +0.000 C 
ATOM      9  O   UNL     1       3.714  -0.927  -0.838  0.00  0.00    +0.000 OA
ENDBRANCH   1   8
BRANCH   4  10
ATOM     10  C   UNL     1       5.248   3.511   3.682  0.00  0.00    +0.000 C 
ATOM     11  C   UNL     1       6.002   2.967   4.868  0.00  0.00    +0.000 C 
ATOM     12  C   UNL     1       4.650   3.597   5.081  0.00  0.00    +0.000 C 
BRANCH  12  13
ATOM     13  C   UNL     1       4.535   4.938   5.766  0.00  0.00    +0.000 A 
ATOM     14  C   UNL     1       3.875   6.018   5.157  0.00  0.00    +0.000 A 
ATOM     15  C   UNL     1       3.753   7.254   5.797  0.00  0.00    +0.000 A 
ATOM     16  C   UNL     1       4.287   7.434   7.069  0.00  0.00    +0.000 A 
ATOM     17  C   UNL     1       4.938   6.378   7.700  0.00  0.00    +0.000 A 
ATOM     18  C   UNL     1       5.056   5.144   7.055  0.00  0.00    +0.000 A 
ENDBRANCH  12  13
ENDBRANCH   4  10
TORSDOF 3
