REMARK  Name = *****
REMARK  3 active torsions:
REMARK  status: ('A' for Active; 'I' for Inactive)
REMARK    1  A    between atoms: C_4  and  N_7
REMARK    2  A    between atoms: N_7  and  C_8
REMARK    3  A    between atoms: C_8  and  C_10
REMARK                            x       y       z     vdW  Elec       q    Type
REMARK                         _______ _______ _______ _____ _____    ______ ____
ROOT
ATOM      1  C   UNL     1      -3.667  -0.838  -0.699  0.00  0.00    +0.000 C 
ATOM      2  S   UNL     1      -3.813  -2.347   0.019  0.00  0.00    +0.000 S 
ENDROOT
BRANCH   1   3
ATOM      3  C   UNL     1      -4.849  -0.279  -1.418  0.00  0.00    +0.000 A 
ATOM      4  C   UNL     1      -5.635   0.743  -0.867  0.00  0.00    +0.000 A 
ATOM      5  C   UNL     1      -6.724   1.245  -1.584  0.00  0.00    +0.000 A 
ATOM      6  C   UNL     1      -7.019   0.730  -2.846  0.00  0.00    +0.000 A 
ATOM      7  C   UNL     1      -6.236  -0.281  -3.404  0.00  0.00    +0.000 A 
ATOM      8  C   UNL     1      -5.147  -0.786  -2.692  0.00  0.00    +0.000 A 
ATOM      9 CL   UNL     1      -8.358   1.353  -3.728  0.00  0.00    +0.000 Cl
ATOM     10 CL   UNL     1      -5.304   1.427   0.683  0.00  0.00    +0.000 Cl
ENDBRANCH   1   3
BRANCH   1  11
ATOM     11  N   UNL     1      -2.584   0.030  -0.738  0.00  0.00    +0.000 N 
ATOM     12  H   UNL     1      -2.785   0.890  -1.172  0.00  0.00    +0.000 HD
BRANCH  11  16
ATOM     13  C   UNL     1       1.447  -0.037   0.551  0.00  0.00    +0.000 A 
ATOM     14  C   UNL     1       0.700  -1.208   0.626  0.00  0.00    +0.000 A 
ATOM     15  C   UNL     1      -0.639  -1.226   0.211  0.00  0.00    +0.000 A 
ATOM     16  C   UNL     1      -1.248  -0.073  -0.280  0.00  0.00    +0.000 A 
ATOM     17  C   UNL     1      -0.477   1.099  -0.360  0.00  0.00    +0.000 A 
ATOM     18  C   UNL     1       0.858   1.120   0.054  0.00  0.00    +0.000 A 
ENDBRANCH  11  16
ENDBRANCH   1  11
TORSDOF 3
