REMARK  Name = *****
REMARK  4 active torsions:
REMARK  status: ('A' for Active; 'I' for Inactive)
REMARK    1  A    between atoms: C_3  and  C_11
REMARK    2  A    between atoms: C_5  and  C_7
REMARK    3  A    between atoms: C_11  and  O_12
REMARK    4  A    between atoms: O_12  and  C_13
REMARK                            x       y       z     vdW  Elec       q    Type
REMARK                         _______ _______ _______ _____ _____    ______ ____
ROOT
ATOM      1  C   UNL     1       1.391  -0.214  -0.016  0.00  0.00    +0.000 A 
ATOM      2  C   UNL     1       0.539  -1.318  -0.031  0.00  0.00    +0.000 A 
ATOM      3  C   UNL     1      -0.848  -1.147   0.066  0.00  0.00    +0.000 A 
ATOM      4  C   UNL     1      -1.370   0.153   0.156  0.00  0.00    +0.000 A 
ATOM      5  C   UNL     1      -0.522   1.272   0.173  0.00  0.00    +0.000 A 
ATOM      6  C   UNL     1       0.865   1.074   0.088  0.00  0.00    +0.000 A 
ENDROOT
BRANCH   5   7
ATOM      7  C   UNL     1      -1.076   2.672   0.273  0.00  0.00    +0.000 C 
ATOM      8  F   UNL     1      -2.435   2.718   0.355  0.00  0.00    +0.000 F 
ATOM      9  F   UNL     1      -0.616   3.336   1.370  0.00  0.00    +0.000 F 
ATOM     10  F   UNL     1      -0.741   3.444  -0.797  0.00  0.00    +0.000 F 
ENDBRANCH   5   7
BRANCH   3  11
ATOM     11  C   UNL     1      -1.773  -2.342   0.027  0.00  0.00    +0.000 C 
BRANCH  11  12
ATOM     12  O   UNL     1      -2.149  -2.550  -1.332  0.00  0.00    +0.000 OA
BRANCH  12  13
ATOM     13  C   UNL     1      -3.004  -3.619  -1.498  0.00  0.00    +0.000 A 
ATOM     14  N   UNL     1      -3.405  -4.335  -0.425  0.00  0.00    +0.000 NA
ATOM     15  C   UNL     1      -4.245  -5.367  -0.656  0.00  0.00    +0.000 A 
ATOM     16  C   UNL     1      -4.702  -5.717  -1.912  0.00  0.00    +0.000 A 
ATOM     17  C   UNL     1      -4.266  -4.956  -2.989  0.00  0.00    +0.000 A 
ATOM     18  C   UNL     1      -3.403  -3.887  -2.793  0.00  0.00    +0.000 A 
ATOM     19 CL   UNL     1      -4.800  -5.345  -4.578  0.00  0.00    +0.000 Cl
ENDBRANCH  12  13
ENDBRANCH  11  12
ENDBRANCH   3  11
TORSDOF 4
