REMARK  Name = *****
REMARK  3 active torsions:
REMARK  status: ('A' for Active; 'I' for Inactive)
REMARK    1  A    between atoms: C_4  and  N_7
REMARK    2  A    between atoms: N_7  and  O_8
REMARK    3  A    between atoms: O_8  and  C_9
REMARK                            x       y       z     vdW  Elec       q    Type
REMARK                         _______ _______ _______ _____ _____    ______ ____
ROOT
ATOM      1  O   UNL     1      -3.713  -0.538  -0.435  0.00  0.00    +0.000 OA
ENDROOT
BRANCH   1   2
ATOM      2  C   UNL     1      -4.837  -0.709   0.346  0.00  0.00    +0.000 A 
ATOM      3  C   UNL     1      -6.011  -1.141  -0.287  0.00  0.00    +0.000 A 
ATOM      4  C   UNL     1      -7.176  -1.359   0.452  0.00  0.00    +0.000 A 
ATOM      5  C   UNL     1      -7.164  -1.155   1.830  0.00  0.00    +0.000 A 
ATOM      6  C   UNL     1      -5.999  -0.743   2.475  0.00  0.00    +0.000 A 
ATOM      7  C   UNL     1      -4.834  -0.527   1.735  0.00  0.00    +0.000 A 
ATOM      8 CL   UNL     1      -8.596  -1.422   2.745  0.00  0.00    +0.000 Cl
ATOM      9 CL   UNL     1      -6.066  -1.409  -1.993  0.00  0.00    +0.000 Cl
ENDBRANCH   1   2
BRANCH   1  10
ATOM     10  N   UNL     1      -2.841   0.399   0.125  0.00  0.00    +0.000 N 
ATOM     11  H   UNL     1      -3.189   1.194   0.589  0.00  0.00    +0.000 HD
BRANCH  10  15
ATOM     12  C   UNL     1       1.332  -0.235  -0.031  0.00  0.00    +0.000 A 
ATOM     13  C   UNL     1       0.462  -1.286  -0.314  0.00  0.00    +0.000 A 
ATOM     14  C   UNL     1      -0.919  -1.080  -0.278  0.00  0.00    +0.000 A 
ATOM     15  C   UNL     1      -1.448   0.183   0.012  0.00  0.00    +0.000 A 
ATOM     16  C   UNL     1      -0.563   1.222   0.329  0.00  0.00    +0.000 A 
ATOM     17  C   UNL     1       0.819   1.018   0.297  0.00  0.00    +0.000 A 
ENDBRANCH  10  15
ENDBRANCH   1  10
TORSDOF 3
