REMARK  Name = *****
REMARK  3 active torsions:
REMARK  status: ('A' for Active; 'I' for Inactive)
REMARK    1  A    between atoms: C_3  and  S_8
REMARK    2  A    between atoms: S_8  and  S_9
REMARK    3  A    between atoms: S_9  and  C_10
REMARK                            x       y       z     vdW  Elec       q    Type
REMARK                         _______ _______ _______ _____ _____    ______ ____
ROOT
ATOM      1  C   UNL     1       1.468  -1.146   0.282  0.00  0.00    +0.000 A 
ATOM      2  C   UNL     1       2.113   0.079   0.463  0.00  0.00    +0.000 A 
ATOM      3  C   UNL     1       1.487   1.271   0.080  0.00  0.00    +0.000 A 
ATOM      4  C   UNL     1       0.214   1.230  -0.496  0.00  0.00    +0.000 A 
ATOM      5  C   UNL     1      -0.424   0.003  -0.674  0.00  0.00    +0.000 A 
ATOM      6  C   UNL     1       0.196  -1.184  -0.287  0.00  0.00    +0.000 A 
ATOM      7 CL   UNL     1      -1.994  -0.047  -1.377  0.00  0.00    +0.000 Cl
ENDROOT
BRANCH   3   8
ATOM      8  S   UNL     1       2.325   2.828   0.313  0.00  0.00    +0.000 S 
BRANCH   8   9
ATOM      9  S   UNL     1       1.458   3.505   2.053  0.00  0.00    +0.000 S 
BRANCH   9  10
ATOM     10  C   UNL     1       2.383   2.638   3.271  0.00  0.00    +0.000 A 
ATOM     11  N   UNL     1       3.541   2.056   3.036  0.00  0.00    +0.000 NA
ATOM     12  C   UNL     1       4.017   1.474   4.194  0.00  0.00    +0.000 A 
ATOM     13  C   UNL     1       3.214   1.615   5.304  0.00  0.00    +0.000 A 
ATOM     14  S   UNL     1       1.815   2.514   4.892  0.00  0.00    +0.000 S 
ENDBRANCH   9  10
ENDBRANCH   8   9
ENDBRANCH   3   8
TORSDOF 3
