REMARK  Name = *****
REMARK  6 active torsions:
REMARK  status: ('A' for Active; 'I' for Inactive)
REMARK    1  A    between atoms: C_1  and  O_2
REMARK    2  A    between atoms: O_2  and  C_3
REMARK    3  A    between atoms: C_6  and  C_9
REMARK    4  A    between atoms: C_9  and  C_10
REMARK    5  A    between atoms: C_10  and  C_11
REMARK    6  A    between atoms: C_14  and  C_17
REMARK                            x       y       z     vdW  Elec       q    Type
REMARK                         _______ _______ _______ _____ _____    ______ ____
ROOT
ATOM      1  C   UNL     1       5.282   3.451   3.534  0.00  0.00    +0.000 C 
ENDROOT
BRANCH   1   5
ATOM      2  C   UNL     1       3.130   0.860   0.822  0.00  0.00    +0.000 A 
ATOM      3  C   UNL     1       2.902   2.236   0.809  0.00  0.00    +0.000 A 
ATOM      4  C   UNL     1       3.605   3.074   1.682  0.00  0.00    +0.000 A 
ATOM      5  C   UNL     1       4.546   2.548   2.576  0.00  0.00    +0.000 A 
ATOM      6  C   UNL     1       4.768   1.167   2.588  0.00  0.00    +0.000 A 
ATOM      7  C   UNL     1       4.065   0.333   1.715  0.00  0.00    +0.000 A 
BRANCH   2   9
ATOM      8  C   UNL     1       1.543   0.419  -0.891  0.00  0.00    +0.000 C 
ATOM      9  O   UNL     1       2.513  -0.067   0.028  0.00  0.00    +0.000 OA
ENDBRANCH   2   9
ENDBRANCH   1   5
BRANCH   1  10
ATOM     10  C   UNL     1       4.511   3.628   4.845  0.00  0.00    +0.000 C 
BRANCH  10  11
ATOM     11  C   UNL     1       5.247   4.527   5.809  0.00  0.00    +0.000 A 
ATOM     12  C   UNL     1       5.054   5.915   5.774  0.00  0.00    +0.000 A 
ATOM     13  C   UNL     1       5.747   6.748   6.655  0.00  0.00    +0.000 A 
ATOM     14  C   UNL     1       6.644   6.202   7.578  0.00  0.00    +0.000 A 
ATOM     15  C   UNL     1       6.846   4.820   7.613  0.00  0.00    +0.000 A 
ATOM     16  C   UNL     1       6.153   3.987   6.731  0.00  0.00    +0.000 A 
BRANCH  14  17
ATOM     17  C   UNL     1       7.355   7.057   8.483  0.00  0.00    +0.000 C 
ATOM     18  N   UNL     1       7.931   7.750   9.215  0.00  0.00    +0.000 NA
ENDBRANCH  14  17
ENDBRANCH  10  11
ENDBRANCH   1  10
TORSDOF 5
