REMARK  Name = *****
REMARK  4 active torsions:
REMARK  status: ('A' for Active; 'I' for Inactive)
REMARK    1  A    between atoms: C_1  and  C_2
REMARK    2  A    between atoms: C_4  and  C_8
REMARK    3  A    between atoms: C_8  and  S_9
REMARK    4  A    between atoms: S_9  and  C_10
REMARK                            x       y       z     vdW  Elec       q    Type
REMARK                         _______ _______ _______ _____ _____    ______ ____
ROOT
ATOM      1  C   UNL     1      -1.628   2.701  -0.057  0.00  0.00    +0.000 C 
ENDROOT
BRANCH   1   5
ATOM      2  C   UNL     1      -0.339  -1.633  -2.297  0.00  0.00    +0.000 C 
ATOM      3  C   UNL     1      -0.306  -0.731  -1.099  0.00  0.00    +0.000 A 
ATOM      4  C   UNL     1      -0.967   0.504  -1.123  0.00  0.00    +0.000 A 
ATOM      5  C   UNL     1      -0.914   1.373  -0.022  0.00  0.00    +0.000 A 
ATOM      6  C   UNL     1      -0.164   0.999   1.102  0.00  0.00    +0.000 A 
ATOM      7  C   UNL     1       0.509  -0.222   1.127  0.00  0.00    +0.000 A 
ATOM      8  C   UNL     1       0.441  -1.082   0.031  0.00  0.00    +0.000 A 
ENDBRANCH   1   5
BRANCH   1   9
ATOM      9  S   UNL     1      -0.595   3.994  -0.824  0.00  0.00    +0.000 S 
BRANCH   9  10
ATOM     10  C   UNL     1      -1.600   5.428  -0.489  0.00  0.00    +0.000 A 
ATOM     11  C   UNL     1      -2.920   5.522  -0.941  0.00  0.00    +0.000 A 
ATOM     12  C   UNL     1      -3.679   6.663  -0.668  0.00  0.00    +0.000 A 
ATOM     13  C   UNL     1      -3.120   7.719   0.049  0.00  0.00    +0.000 A 
ATOM     14  C   UNL     1      -1.800   7.638   0.489  0.00  0.00    +0.000 A 
ATOM     15  C   UNL     1      -1.041   6.498   0.217  0.00  0.00    +0.000 A 
ENDBRANCH   9  10
ENDBRANCH   1   9
TORSDOF 3
