REMARK  Name = *****
REMARK  3 active torsions:
REMARK  status: ('A' for Active; 'I' for Inactive)
REMARK    1  A    between atoms: C_4  and  O_7
REMARK    2  A    between atoms: O_7  and  S_8
REMARK    3  A    between atoms: S_8  and  C_11
REMARK                            x       y       z     vdW  Elec       q    Type
REMARK                         _______ _______ _______ _____ _____    ______ ____
ROOT
ATOM      1  S   UNL     1      -3.919  -1.158  -0.032  0.00  0.00    +0.000 S 
ATOM      2  O   UNL     1      -3.570  -1.711  -1.320  0.00  0.00    +0.000 OA
ATOM      3  S   UNL     1      -3.995  -2.490   1.236  0.00  0.00    +0.000 S 
ENDROOT
BRANCH   1   4
ATOM      4  C   UNL     1      -5.479  -0.425  -0.351  0.00  0.00    +0.000 A 
ATOM      5  C   UNL     1      -6.348  -0.997  -1.284  0.00  0.00    +0.000 A 
ATOM      6  C   UNL     1      -7.580  -0.395  -1.538  0.00  0.00    +0.000 A 
ATOM      7  C   UNL     1      -7.938   0.775  -0.864  0.00  0.00    +0.000 A 
ATOM      8  C   UNL     1      -7.065   1.345   0.065  0.00  0.00    +0.000 A 
ATOM      9  C   UNL     1      -5.831   0.747   0.323  0.00  0.00    +0.000 A 
ENDBRANCH   1   4
BRANCH   1  10
ATOM     10  O   UNL     1      -2.862   0.002   0.355  0.00  0.00    +0.000 OA
BRANCH  10  14
ATOM     11  C   UNL     1       1.285   0.032  -0.077  0.00  0.00    +0.000 A 
ATOM     12  C   UNL     1       0.598  -1.147  -0.362  0.00  0.00    +0.000 A 
ATOM     13  C   UNL     1      -0.794  -1.201  -0.232  0.00  0.00    +0.000 A 
ATOM     14  C   UNL     1      -1.504  -0.075   0.179  0.00  0.00    +0.000 A 
ATOM     15  C   UNL     1      -0.808   1.104   0.467  0.00  0.00    +0.000 A 
ATOM     16  C   UNL     1       0.582   1.160   0.339  0.00  0.00    +0.000 A 
ENDBRANCH  10  14
ENDBRANCH   1  10
TORSDOF 3
