REMARK  Name = *****
REMARK  4 active torsions:
REMARK  status: ('A' for Active; 'I' for Inactive)
REMARK    1  A    between atoms: C_1  and  C_2
REMARK    2  A    between atoms: C_2  and  C_13
REMARK    3  A    between atoms: C_4  and  C_5
REMARK    4  A    between atoms: C_5  and  C_7
REMARK                            x       y       z     vdW  Elec       q    Type
REMARK                         _______ _______ _______ _____ _____    ______ ____
ROOT
ATOM      1  C   UNL     1       3.232  -0.308   1.244  0.00  0.00    +0.000 C 
ATOM      2  C   UNL     1       2.605  -0.053  -0.108  0.00  0.00    +0.000 C 
ATOM      3  C   UNL     1       3.301   0.939  -1.020  0.00  0.00    +0.000 C 
ATOM      4  C   UNL     1       3.323  -0.527  -1.376  0.00  0.00    +0.000 C 
ENDROOT
BRANCH   2   5
ATOM      5  C   UNL     1       1.078  -0.080  -0.101  0.00  0.00    +0.000 A 
ATOM      6  C   UNL     1       0.367  -1.291  -0.130  0.00  0.00    +0.000 A 
ATOM      7  C   UNL     1      -1.031  -1.319  -0.116  0.00  0.00    +0.000 A 
ATOM      8  C   UNL     1      -1.751  -0.130  -0.064  0.00  0.00    +0.000 A 
ATOM      9  C   UNL     1      -1.074   1.084  -0.017  0.00  0.00    +0.000 A 
ATOM     10  C   UNL     1       0.323   1.105  -0.030  0.00  0.00    +0.000 A 
ENDBRANCH   2   5
BRANCH   4  11
ATOM     11  C   UNL     1       4.612  -1.280  -1.319  0.00  0.00    +0.000 C 
ATOM     12  O   UNL     1       5.645  -0.714  -0.976  0.00  0.00    +0.000 OA
BRANCH  11  13
ATOM     13  C   UNL     1       4.641  -2.719  -1.702  0.00  0.00    +0.000 A 
ATOM     14  C   UNL     1       3.475  -3.468  -1.900  0.00  0.00    +0.000 A 
ATOM     15  C   UNL     1       3.560  -4.814  -2.269  0.00  0.00    +0.000 A 
ATOM     16  C   UNL     1       4.806  -5.417  -2.443  0.00  0.00    +0.000 A 
ATOM     17  C   UNL     1       5.970  -4.679  -2.244  0.00  0.00    +0.000 A 
ATOM     18  C   UNL     1       5.889  -3.336  -1.871  0.00  0.00    +0.000 A 
ENDBRANCH  11  13
ENDBRANCH   4  11
TORSDOF 3
