REMARK  Name = *****
REMARK  1 active torsions:
REMARK  status: ('A' for Active; 'I' for Inactive)
REMARK    1  A    between atoms: C_9  and  C_11
REMARK                            x       y       z     vdW  Elec       q    Type
REMARK                         _______ _______ _______ _____ _____    ______ ____
ROOT
ATOM      1  C   UNL     1       2.864   3.860  -1.253  0.00  0.00    +0.000 C 
ATOM      2  C   UNL     1       1.662   4.756  -0.969  0.00  0.00    +0.000 C 
ATOM      3  C   UNL     1       0.674   4.201   0.054  0.00  0.00    +0.000 C 
ATOM      4  C   UNL     1      -0.015   2.933  -0.316  0.00  0.00    +0.000 C 
ATOM      5  C   UNL     1       0.450   1.835  -0.938  0.00  0.00    +0.000 C 
ATOM      6  C   UNL     1       1.812   1.525  -1.464  0.00  0.00    +0.000 C 
ATOM      7  C   UNL     1       2.539   2.675  -2.158  0.00  0.00    +0.000 C 
ATOM      8  C   UNL     1      -0.615   0.851  -1.012  0.00  0.00    +0.000 C 
ATOM      9  C   UNL     1      -1.734   1.324  -0.436  0.00  0.00    +0.000 C 
ATOM     10  C   UNL     1      -1.459   2.718   0.070  0.00  0.00    +0.000 C 
ENDROOT
BRANCH   9  11
ATOM     11  C   UNL     1      -3.037   0.654  -0.291  0.00  0.00    +0.000 A 
ATOM     12  C   UNL     1      -3.227  -0.679  -0.687  0.00  0.00    +0.000 A 
ATOM     13  C   UNL     1      -4.467  -1.311  -0.542  0.00  0.00    +0.000 A 
ATOM     14  C   UNL     1      -5.543  -0.619   0.004  0.00  0.00    +0.000 A 
ATOM     15  C   UNL     1      -5.379   0.702   0.406  0.00  0.00    +0.000 A 
ATOM     16  C   UNL     1      -4.137   1.331   0.260  0.00  0.00    +0.000 A 
ENDBRANCH   9  11
TORSDOF 1
