REMARK  Name = *****
REMARK  3 active torsions:
REMARK  status: ('A' for Active; 'I' for Inactive)
REMARK    1  A    between atoms: C_4  and  C_7
REMARK    2  A    between atoms: C_7  and  O_8
REMARK    3  A    between atoms: O_8  and  C_9
REMARK                            x       y       z     vdW  Elec       q    Type
REMARK                         _______ _______ _______ _____ _____    ______ ____
ROOT
ATOM      1  C   UNL     1      -4.088  -1.814   0.167  0.00  0.00    +0.000 A 
ATOM      2  N   UNL     1      -3.458  -2.043   1.344  0.00  0.00    +0.000 NA
ATOM      3  C   UNL     1      -3.944  -3.043   2.106  0.00  0.00    +0.000 A 
ATOM      4  C   UNL     1      -5.027  -3.829   1.752  0.00  0.00    +0.000 A 
ATOM      5  C   UNL     1      -5.670  -3.583   0.534  0.00  0.00    +0.000 A 
ATOM      6  C   UNL     1      -6.773  -4.351   0.124  0.00  0.00    +0.000 A 
ATOM      7  C   UNL     1      -7.407  -4.098  -1.094  0.00  0.00    +0.000 A 
ATOM      8  C   UNL     1      -6.949  -3.075  -1.917  0.00  0.00    +0.000 A 
ATOM      9  C   UNL     1      -5.855  -2.303  -1.523  0.00  0.00    +0.000 A 
ATOM     10  C   UNL     1      -5.198  -2.545  -0.295  0.00  0.00    +0.000 A 
ENDROOT
BRANCH   1  11
ATOM     11  O   UNL     1      -3.623  -0.793  -0.644  0.00  0.00    +0.000 OA
BRANCH  11  12
ATOM     12  C   UNL     1      -2.444  -0.162  -0.141  0.00  0.00    +0.000 C 
BRANCH  12  16
ATOM     13  C   UNL     1      -1.022   2.846  -2.902  0.00  0.00    +0.000 A 
ATOM     14  C   UNL     1      -1.579   1.666  -3.390  0.00  0.00    +0.000 A 
ATOM     15  C   UNL     1      -2.048   0.694  -2.503  0.00  0.00    +0.000 A 
ATOM     16  C   UNL     1      -1.979   0.899  -1.117  0.00  0.00    +0.000 A 
ATOM     17  C   UNL     1      -1.402   2.085  -0.639  0.00  0.00    +0.000 A 
ATOM     18  C   UNL     1      -0.931   3.055  -1.527  0.00  0.00    +0.000 A 
ENDBRANCH  12  16
ENDBRANCH  11  12
ENDBRANCH   1  11
TORSDOF 3
