REMARK  Name = *****
REMARK  4 active torsions:
REMARK  status: ('A' for Active; 'I' for Inactive)
REMARK    1  A    between atoms: C_4  and  C_7
REMARK    2  A    between atoms: C_7  and  C_8
REMARK    3  A    between atoms: C_8  and  C_9
REMARK    4  A    between atoms: C_9  and  C_11
REMARK                            x       y       z     vdW  Elec       q    Type
REMARK                         _______ _______ _______ _____ _____    ______ ____
ROOT
ATOM      1  C   UNL     1      -3.138   0.819  -1.589  0.00  0.00    +0.000 C 
ATOM      2 CL   UNL     1      -2.456   2.464  -1.791  0.00  0.00    +0.000 Cl
ENDROOT
BRANCH   1   3
ATOM      3  C   UNL     1      -2.589   0.075  -0.349  0.00  0.00    +0.000 C 
ATOM      4 CL   UNL     1      -0.872  -0.424  -0.641  0.00  0.00    +0.000 Cl
BRANCH   3   8
ATOM      5  C   UNL     1      -2.994   2.023   3.513  0.00  0.00    +0.000 A 
ATOM      6  C   UNL     1      -3.880   1.023   3.125  0.00  0.00    +0.000 A 
ATOM      7  C   UNL     1      -3.736   0.403   1.882  0.00  0.00    +0.000 A 
ATOM      8  C   UNL     1      -2.705   0.773   1.000  0.00  0.00    +0.000 A 
ATOM      9  C   UNL     1      -1.821   1.785   1.413  0.00  0.00    +0.000 A 
ATOM     10  C   UNL     1      -1.965   2.404   2.657  0.00  0.00    +0.000 A 
ENDBRANCH   3   8
ENDBRANCH   1   3
BRANCH   1  11
ATOM     11  C   UNL     1      -4.662   0.877  -1.593  0.00  0.00    +0.000 C 
ATOM     12  O   UNL     1      -5.350   0.258  -0.780  0.00  0.00    +0.000 OA
BRANCH  11  13
ATOM     13  C   UNL     1      -5.385   1.607  -2.677  0.00  0.00    +0.000 A 
ATOM     14  C   UNL     1      -4.866   1.734  -3.971  0.00  0.00    +0.000 A 
ATOM     15  C   UNL     1      -5.594   2.412  -4.952  0.00  0.00    +0.000 A 
ATOM     16  C   UNL     1      -6.842   2.956  -4.649  0.00  0.00    +0.000 A 
ATOM     17  C   UNL     1      -7.370   2.820  -3.366  0.00  0.00    +0.000 A 
ATOM     18  C   UNL     1      -6.646   2.143  -2.383  0.00  0.00    +0.000 A 
ENDBRANCH  11  13
ENDBRANCH   1  11
TORSDOF 4
