REMARK  Name = *****
REMARK  3 active torsions:
REMARK  status: ('A' for Active; 'I' for Inactive)
REMARK    1  A    between atoms: C_6  and  C_7
REMARK    2  A    between atoms: C_7  and  C_8
REMARK    3  A    between atoms: C_8  and  C_9
REMARK                            x       y       z     vdW  Elec       q    Type
REMARK                         _______ _______ _______ _____ _____    ______ ____
ROOT
ATOM      1  C   UNL     1      -3.287  -1.392  -0.053  0.00  0.00    +0.000 C 
ENDROOT
BRANCH   1   7
ATOM      2  C   UNL     1      -1.312  -0.379  -1.265  0.00  0.00    +0.000 A 
ATOM      3  C   UNL     1      -0.067   0.256  -1.267  0.00  0.00    +0.000 A 
ATOM      4  C   UNL     1       0.542   0.578  -0.059  0.00  0.00    +0.000 A 
ATOM      5  C   UNL     1      -0.080   0.271   1.144  0.00  0.00    +0.000 A 
ATOM      6  C   UNL     1      -1.321  -0.362   1.156  0.00  0.00    +0.000 A 
ATOM      7  C   UNL     1      -1.952  -0.689  -0.053  0.00  0.00    +0.000 A 
ATOM      8  F   UNL     1       0.510   0.578   2.308  0.00  0.00    +0.000 F 
ATOM      9  F   UNL     1       1.736   1.185  -0.066  0.00  0.00    +0.000 F 
ENDBRANCH   1   7
BRANCH   1  10
ATOM     10  C   UNL     1      -3.125  -2.915  -0.042  0.00  0.00    +0.000 C 
BRANCH  10  11
ATOM     11  C   UNL     1      -4.460  -3.618  -0.073  0.00  0.00    +0.000 A 
ATOM     12  C   UNL     1      -5.062  -3.941  -1.298  0.00  0.00    +0.000 A 
ATOM     13  C   UNL     1      -6.302  -4.573  -1.319  0.00  0.00    +0.000 A 
ATOM     14  C   UNL     1      -6.953  -4.884  -0.132  0.00  0.00    +0.000 A 
ATOM     15  C   UNL     1      -6.373  -4.566   1.091  0.00  0.00    +0.000 A 
ATOM     16  C   UNL     1      -5.128  -3.931   1.121  0.00  0.00    +0.000 A 
ATOM     17  F   UNL     1      -8.147  -5.491  -0.155  0.00  0.00    +0.000 F 
ATOM     18  F   UNL     1      -6.864  -4.877  -2.497  0.00  0.00    +0.000 F 
ENDBRANCH  10  11
ENDBRANCH   1  10
TORSDOF 3
