REMARK  Name = *****
REMARK  5 active torsions:
REMARK  status: ('A' for Active; 'I' for Inactive)
REMARK    1  A    between atoms: C_4  and  C_7
REMARK    2  A    between atoms: C_7  and  N_8
REMARK    3  A    between atoms: N_8  and  C_9
REMARK    4  A    between atoms: C_14  and  C_15
REMARK    5  A    between atoms: C_15  and  C_16
REMARK                            x       y       z     vdW  Elec       q    Type
REMARK                         _______ _______ _______ _____ _____    ______ ____
ROOT
ATOM      1  C   UNL     1       5.422   0.307  -0.576  0.00  0.00    +0.000 A 
ATOM      2  C   UNL     1       5.977   1.582  -0.706  0.00  0.00    +0.000 A 
ATOM      3  C   UNL     1       7.353   1.720  -0.857  0.00  0.00    +0.000 A 
ATOM      4  C   UNL     1       8.163   0.586  -0.876  0.00  0.00    +0.000 A 
ATOM      5  C   UNL     1       7.597  -0.688  -0.744  0.00  0.00    +0.000 A 
ATOM      6  C   UNL     1       6.210  -0.856  -0.591  0.00  0.00    +0.000 A 
ENDROOT
BRANCH   1   7
ATOM      7  N   UNL     1       4.043   0.237  -0.426  0.00  0.00    +0.000 NA
BRANCH   7   8
ATOM      8  C   UNL     1       2.935   0.196  -0.306  0.00  0.00    +0.000 C 
BRANCH   8  12
ATOM      9  C   UNL     1      -1.259   0.034   0.155  0.00  0.00    +0.000 A 
ATOM     10  C   UNL     1      -0.620   1.266   0.017  0.00  0.00    +0.000 A 
ATOM     11  C   UNL     1       0.767   1.321  -0.135  0.00  0.00    +0.000 A 
ATOM     12  C   UNL     1       1.515   0.141  -0.150  0.00  0.00    +0.000 A 
ATOM     13  C   UNL     1       0.873  -1.092  -0.012  0.00  0.00    +0.000 A 
ATOM     14  C   UNL     1      -0.514  -1.145   0.140  0.00  0.00    +0.000 A 
ENDBRANCH   8  12
ENDBRANCH   7   8
ENDBRANCH   1   7
BRANCH   6  15
ATOM     15  C   UNL     1       5.608  -2.195  -0.454  0.00  0.00    +0.000 C 
BRANCH  15  16
ATOM     16  C   UNL     1       6.277  -3.310  -0.413  0.00  0.00    +0.000 C 
ATOM     17  N   UNL     1       6.914  -4.390  -0.372  0.00  0.00    +0.000 NA
ENDBRANCH  15  16
ENDBRANCH   6  15
TORSDOF 5
