REMARK  Name = *****
REMARK  3 active torsions:
REMARK  status: ('A' for Active; 'I' for Inactive)
REMARK    1  A    between atoms: C_4  and  S_7
REMARK    2  A    between atoms: S_7  and  S_8
REMARK    3  A    between atoms: S_8  and  C_11
REMARK                            x       y       z     vdW  Elec       q    Type
REMARK                         _______ _______ _______ _____ _____    ______ ____
ROOT
ATOM      1  S   UNL     1       3.469  -2.818   0.012  0.00  0.00    +0.000 S 
ATOM      2  O   UNL     1       3.544  -2.516   1.428  0.00  0.00    +0.000 OA
ATOM      3  O   UNL     1       2.644  -3.904  -0.480  0.00  0.00    +0.000 OA
ENDROOT
BRANCH   1   4
ATOM      4  C   UNL     1       5.122  -3.083  -0.582  0.00  0.00    +0.000 A 
ATOM      5  C   UNL     1       6.209  -2.617   0.164  0.00  0.00    +0.000 A 
ATOM      6  C   UNL     1       7.505  -2.846  -0.299  0.00  0.00    +0.000 A 
ATOM      7  C   UNL     1       7.708  -3.543  -1.492  0.00  0.00    +0.000 A 
ATOM      8  C   UNL     1       6.619  -4.018  -2.225  0.00  0.00    +0.000 A 
ATOM      9  C   UNL     1       5.320  -3.793  -1.770  0.00  0.00    +0.000 A 
ENDBRANCH   1   4
BRANCH   1  10
ATOM     10  S   UNL     1       2.887  -1.074  -0.976  0.00  0.00    +0.000 S 
BRANCH  10  14
ATOM     11  C   UNL     1      -1.370   0.472  -0.014  0.00  0.00    +0.000 C 
ATOM     12  C   UNL     1      -1.088  -1.005   0.240  0.00  0.00    +0.000 C 
ATOM     13  C   UNL     1       0.194  -1.465  -0.455  0.00  0.00    +0.000 C 
ATOM     14  C   UNL     1       1.389  -0.593  -0.054  0.00  0.00    +0.000 C 
ATOM     15  C   UNL     1       1.101   0.890  -0.325  0.00  0.00    +0.000 C 
ATOM     16  C   UNL     1      -0.181   1.344   0.374  0.00  0.00    +0.000 C 
ENDBRANCH  10  14
ENDBRANCH   1  10
TORSDOF 3
