REMARK  Name = *****
REMARK  6 active torsions:
REMARK  status: ('A' for Active; 'I' for Inactive)
REMARK    1  A    between atoms: C_1  and  C_2
REMARK    2  A    between atoms: C_2  and  C_3
REMARK    3  A    between atoms: C_3  and  N_4
REMARK    4  A    between atoms: N_4  and  C_5
REMARK    5  A    between atoms: N_4  and  O_11
REMARK    6  A    between atoms: O_11  and  C_12
REMARK                            x       y       z     vdW  Elec       q    Type
REMARK                         _______ _______ _______ _____ _____    ______ ____
ROOT
ATOM      1  N   UNL     1       5.025  -1.089   0.177  0.00  0.00    +0.000 N 
ENDROOT
BRANCH   1   2
ATOM      2  C   UNL     1       5.277   0.311   0.134  0.00  0.00    +0.000 A 
ATOM      3  C   UNL     1       4.541   1.196   0.940  0.00  0.00    +0.000 A 
ATOM      4  C   UNL     1       4.799   2.570   0.930  0.00  0.00    +0.000 A 
ATOM      5  C   UNL     1       5.811   3.082   0.123  0.00  0.00    +0.000 A 
ATOM      6  C   UNL     1       6.570   2.220  -0.664  0.00  0.00    +0.000 A 
ATOM      7  C   UNL     1       6.310   0.846  -0.651  0.00  0.00    +0.000 A 
ENDBRANCH   1   2
BRANCH   1   8
ATOM      8  C   UNL     1       3.641  -1.435  -0.204  0.00  0.00    +0.000 C 
BRANCH   8  10
ATOM      9  C   UNL     1       3.036  -2.629   1.955  0.00  0.00    +0.000 C 
ATOM     10  C   UNL     1       3.195  -2.748   0.446  0.00  0.00    +0.000 C 
ENDBRANCH   8  10
ENDBRANCH   1   8
BRANCH   1  11
ATOM     11  O   UNL     1       5.924  -1.933  -0.505  0.00  0.00    +0.000 OA
BRANCH  11  12
ATOM     12  C   UNL     1       6.733  -2.650   0.354  0.00  0.00    +0.000 A 
ATOM     13  C   UNL     1       6.980  -2.320   1.688  0.00  0.00    +0.000 A 
ATOM     14  C   UNL     1       7.832  -3.114   2.460  0.00  0.00    +0.000 A 
ATOM     15  C   UNL     1       8.445  -4.234   1.899  0.00  0.00    +0.000 A 
ATOM     16  C   UNL     1       8.210  -4.560   0.564  0.00  0.00    +0.000 A 
ATOM     17  C   UNL     1       7.359  -3.767  -0.207  0.00  0.00    +0.000 A 
ENDBRANCH  11  12
ENDBRANCH   1  11
TORSDOF 5
