REMARK  Name = *****
REMARK  4 active torsions:
REMARK  status: ('A' for Active; 'I' for Inactive)
REMARK    1  A    between atoms: C_1  and  N_2
REMARK    2  A    between atoms: C_3  and  C_4
REMARK    3  A    between atoms: C_3  and  C_11
REMARK    4  A    between atoms: C_4  and  C_5
REMARK                            x       y       z     vdW  Elec       q    Type
REMARK                         _______ _______ _______ _____ _____    ______ ____
ROOT
ATOM      1  C   UNL     1       1.345   0.127   0.551  0.00  0.00    +0.000 C 
ATOM      2  N   UNL     1       2.774   0.171   0.291  0.00  0.00    +0.000 NA
ATOM      3  C   UNL     1       3.237   0.845  -0.712  0.00  0.00    +0.000 C 
ENDROOT
BRANCH   3   4
ATOM      4  C   UNL     1       4.729   0.843  -0.931  0.00  0.00    +0.000 A 
ATOM      5  C   UNL     1       5.505  -0.119  -0.268  0.00  0.00    +0.000 A 
ATOM      6  C   UNL     1       6.891  -0.162  -0.443  0.00  0.00    +0.000 A 
ATOM      7  C   UNL     1       7.514   0.760  -1.280  0.00  0.00    +0.000 A 
ATOM      8  C   UNL     1       6.755   1.725  -1.939  0.00  0.00    +0.000 A 
ATOM      9  C   UNL     1       5.368   1.769  -1.766  0.00  0.00    +0.000 A 
ENDBRANCH   3   4
BRANCH   3  10
ATOM     10  C   UNL     1       2.365   1.628  -1.694  0.00  0.00    +0.000 C 
BRANCH  10  11
ATOM     11  C   UNL     1       2.233   3.111  -1.413  0.00  0.00    +0.000 A 
ATOM     12  C   UNL     1       2.429   3.663  -0.139  0.00  0.00    +0.000 A 
ATOM     13  C   UNL     1       2.275   5.035   0.073  0.00  0.00    +0.000 A 
ATOM     14  C   UNL     1       1.912   5.871  -0.980  0.00  0.00    +0.000 A 
ATOM     15  C   UNL     1       1.697   5.335  -2.247  0.00  0.00    +0.000 A 
ATOM     16  C   UNL     1       1.852   3.964  -2.461  0.00  0.00    +0.000 A 
ENDBRANCH  10  11
ENDBRANCH   3  10
TORSDOF 3
