REMARK  Name = *****
REMARK  3 active torsions:
REMARK  status: ('A' for Active; 'I' for Inactive)
REMARK    1  A    between atoms: C_4  and  N_7
REMARK    2  A    between atoms: N_7  and  P_8
REMARK    3  A    between atoms: P_8  and  C_9
REMARK                            x       y       z     vdW  Elec       q    Type
REMARK                         _______ _______ _______ _____ _____    ______ ____
ROOT
ATOM      1  P   UNL     1      -3.749  -0.665  -0.036  0.00  0.00    +0.000 P 
ENDROOT
BRANCH   1   2
ATOM      2  C   UNL     1      -5.336   0.072  -0.376  0.00  0.00    +0.000 A 
ATOM      3  C   UNL     1      -6.367  -0.872  -0.155  0.00  0.00    +0.000 A 
ATOM      4  C   UNL     1      -7.715  -0.555  -0.351  0.00  0.00    +0.000 A 
ATOM      5  C   UNL     1      -8.068   0.718  -0.771  0.00  0.00    +0.000 A 
ATOM      6  C   UNL     1      -7.069   1.664  -0.993  0.00  0.00    +0.000 A 
ATOM      7  C   UNL     1      -5.705   1.358  -0.800  0.00  0.00    +0.000 A 
ATOM      8 CL   UNL     1      -4.640   2.687  -1.127  0.00  0.00    +0.000 Cl
ENDBRANCH   1   2
BRANCH   1   9
ATOM      9  N   UNL     1      -2.770   0.462  -0.349  0.00  0.00    +0.000 NA
BRANCH   9  13
ATOM     10  C   UNL     1       1.292  -0.349   0.291  0.00  0.00    +0.000 A 
ATOM     11  C   UNL     1       0.690  -0.713  -0.910  0.00  0.00    +0.000 A 
ATOM     12  C   UNL     1      -0.670  -0.458  -1.118  0.00  0.00    +0.000 A 
ATOM     13  C   UNL     1      -1.471   0.146  -0.128  0.00  0.00    +0.000 A 
ATOM     14  C   UNL     1      -0.824   0.529   1.063  0.00  0.00    +0.000 A 
ATOM     15  C   UNL     1       0.536   0.276   1.277  0.00  0.00    +0.000 A 
ENDBRANCH   9  13
ENDBRANCH   1   9
TORSDOF 3
