REMARK  Name = *****
REMARK  4 active torsions:
REMARK  status: ('A' for Active; 'I' for Inactive)
REMARK    1  A    between atoms: C_1  and  C_2
REMARK    2  A    between atoms: C_3  and  C_7
REMARK    3  A    between atoms: N_8  and  C_9
REMARK    4  A    between atoms: C_14  and  S_15
REMARK                            x       y       z     vdW  Elec       q    Type
REMARK                         _______ _______ _______ _____ _____    ______ ____
ROOT
ATOM      1  C   UNL     1       0.752  -2.565   0.376  0.00  0.00    +0.000 C 
ATOM      2  N   UNL     1       1.764  -3.131  -0.206  0.00  0.00    +0.000 NA
ENDROOT
BRANCH   1   5
ATOM      3  C   UNL     1       2.606  -0.352  -1.004  0.00  0.00    +0.000 C 
ATOM      4  C   UNL     1       1.331  -0.138  -0.253  0.00  0.00    +0.000 A 
ATOM      5  C   UNL     1       0.558  -1.133   0.331  0.00  0.00    +0.000 A 
ATOM      6  S   UNL     1      -0.831  -0.496   1.109  0.00  0.00    +0.000 S 
ATOM      7  C   UNL     1      -0.425   1.102   0.677  0.00  0.00    +0.000 A 
ATOM      8  C   UNL     1       0.745   1.156  -0.043  0.00  0.00    +0.000 A 
ENDBRANCH   1   5
BRANCH   2   9
ATOM      9  C   UNL     1       1.836  -4.533  -0.078  0.00  0.00    +0.000 A 
ATOM     10  C   UNL     1       1.128  -5.337  -0.981  0.00  0.00    +0.000 A 
ATOM     11  C   UNL     1       1.180  -6.728  -0.886  0.00  0.00    +0.000 A 
ATOM     12  C   UNL     1       1.949  -7.330   0.107  0.00  0.00    +0.000 A 
ATOM     13  C   UNL     1       2.674  -6.542   1.002  0.00  0.00    +0.000 A 
ATOM     14  C   UNL     1       2.630  -5.145   0.911  0.00  0.00    +0.000 A 
BRANCH  14  15
ATOM     15  S   UNL     1       3.591  -4.181   2.071  0.00  0.00    +0.000 S 
ATOM     16  H   UNL     1       3.413  -2.857   1.816  0.00  0.00    +0.000 HD
ENDBRANCH  14  15
ENDBRANCH   2   9
TORSDOF 3
