REMARK  Name = *****
REMARK  6 active torsions:
REMARK  status: ('A' for Active; 'I' for Inactive)
REMARK    1  A    between atoms: C_1  and  C_2
REMARK    2  A    between atoms: C_5  and  N_8
REMARK    3  A    between atoms: N_8  and  S_9
REMARK    4  A    between atoms: S_9  and  C_11
REMARK    5  A    between atoms: S_9  and  C_12
REMARK    6  A    between atoms: C_15  and  C_18
REMARK                            x       y       z     vdW  Elec       q    Type
REMARK                         _______ _______ _______ _____ _____    ______ ____
ROOT
ATOM      1  S   UNL     1      -4.046   1.700  -0.172  0.00  0.00    +0.000 S 
ATOM      2  O   UNL     1      -3.919   2.589   0.969  0.00  0.00    +0.000 OA
ATOM      3  C   UNL     1      -3.905   2.715  -1.625  0.00  0.00    +0.000 C 
ENDROOT
BRANCH   1   4
ATOM      4  C   UNL     1      -5.755   1.184  -0.235  0.00  0.00    +0.000 A 
ATOM      5  C   UNL     1      -6.668   1.689   0.693  0.00  0.00    +0.000 A 
ATOM      6  C   UNL     1      -8.005   1.294   0.627  0.00  0.00    +0.000 A 
ATOM      7  C   UNL     1      -8.436   0.401  -0.364  0.00  0.00    +0.000 A 
ATOM      8  C   UNL     1      -7.504  -0.117  -1.273  0.00  0.00    +0.000 A 
ATOM      9  C   UNL     1      -6.165   0.275  -1.214  0.00  0.00    +0.000 A 
ATOM     10  C   UNL     1      -9.866  -0.052  -0.405  0.00  0.00    +0.000 C 
ENDBRANCH   1   4
BRANCH   1  11
ATOM     11  N   UNL     1      -3.211   0.426  -0.399  0.00  0.00    +0.000 NA
BRANCH  11  16
ATOM     12  C   UNL     1       2.449  -0.275   0.296  0.00  0.00    +0.000 C 
ATOM     13  C   UNL     1       0.969  -0.078   0.154  0.00  0.00    +0.000 A 
ATOM     14  C   UNL     1       0.376   1.137   0.514  0.00  0.00    +0.000 A 
ATOM     15  C   UNL     1      -1.001   1.333   0.353  0.00  0.00    +0.000 A 
ATOM     16  C   UNL     1      -1.802   0.323  -0.181  0.00  0.00    +0.000 A 
ATOM     17  C   UNL     1      -1.207  -0.885  -0.548  0.00  0.00    +0.000 A 
ATOM     18  C   UNL     1       0.168  -1.087  -0.390  0.00  0.00    +0.000 A 
ENDBRANCH  11  16
ENDBRANCH   1  11
TORSDOF 3
