REMARK  Name = *****
REMARK  5 active torsions:
REMARK  status: ('A' for Active; 'I' for Inactive)
REMARK    1  A    between atoms: C_1  and  C_2
REMARK    2  A    between atoms: C_2  and  C_4
REMARK    3  A    between atoms: C_9  and  C_10
REMARK    4  A    between atoms: C_10  and  C_11
REMARK    5  A    between atoms: C_11  and  C_12
REMARK                            x       y       z     vdW  Elec       q    Type
REMARK                         _______ _______ _______ _____ _____    ______ ____
ROOT
ATOM      1  C   UNL     1       3.576  -1.188  -1.963  0.00  0.00    +0.000 C 
ENDROOT
BRANCH   1   2
ATOM      2  C   UNL     1       3.923  -2.378  -2.820  0.00  0.00    +0.000 A 
ATOM      3  C   UNL     1       4.977  -3.227  -2.467  0.00  0.00    +0.000 A 
ATOM      4  C   UNL     1       5.315  -4.324  -3.256  0.00  0.00    +0.000 A 
ATOM      5  C   UNL     1       4.603  -4.587  -4.417  0.00  0.00    +0.000 A 
ATOM      6  C   UNL     1       3.555  -3.756  -4.788  0.00  0.00    +0.000 A 
ATOM      7  C   UNL     1       3.220  -2.660  -3.996  0.00  0.00    +0.000 A 
ATOM      8  F   UNL     1       2.204  -1.871  -4.372  0.00  0.00    +0.000 F 
ATOM      9  F   UNL     1       2.866  -4.008  -5.910  0.00  0.00    +0.000 F 
ATOM     10  F   UNL     1       4.927  -5.641  -5.179  0.00  0.00    +0.000 F 
ATOM     11  F   UNL     1       6.330  -5.121  -2.895  0.00  0.00    +0.000 F 
ATOM     12  F   UNL     1       5.678  -2.980  -1.351  0.00  0.00    +0.000 F 
ENDBRANCH   1   2
BRANCH   1  13
ATOM     13  C   UNL     1       4.544  -0.020  -2.186  0.00  0.00    +0.000 C 
BRANCH  13  19
ATOM     14  C   UNL     1       3.479   2.247  -1.581  0.00  0.00    +0.000 A 
ATOM     15  C   UNL     1       3.277   3.276  -0.645  0.00  0.00    +0.000 A 
ATOM     16  C   UNL     1       3.862   3.208   0.619  0.00  0.00    +0.000 A 
ATOM     17  C   UNL     1       4.648   2.113   0.961  0.00  0.00    +0.000 A 
ATOM     18  C   UNL     1       4.850   1.084   0.040  0.00  0.00    +0.000 A 
ATOM     19  C   UNL     1       4.273   1.133  -1.243  0.00  0.00    +0.000 A 
BRANCH  14  21
ATOM     20  C   UNL     1       2.779   3.719  -3.570  0.00  0.00    +0.000 C 
ATOM     21  C   UNL     1       2.815   2.365  -2.909  0.00  0.00    +0.000 C 
ATOM     22  O   UNL     1       2.293   1.384  -3.431  0.00  0.00    +0.000 OA
ENDBRANCH  14  21
ENDBRANCH  13  19
ENDBRANCH   1  13
TORSDOF 4
