REMARK  Name = *****
REMARK  3 active torsions:
REMARK  status: ('A' for Active; 'I' for Inactive)
REMARK    1  A    between atoms: C_4  and  C_7
REMARK    2  A    between atoms: C_8  and  C_9
REMARK    3  A    between atoms: C_8  and  C_11
REMARK                            x       y       z     vdW  Elec       q    Type
REMARK                         _______ _______ _______ _____ _____    ______ ____
ROOT
ATOM      1  C   UNL     1      -2.880   0.366  -0.008  0.00  0.00    +0.000 C 
ATOM      2  C   UNL     1      -3.648  -0.694  -0.331  0.00  0.00    +0.000 C 
ENDROOT
BRANCH   1   6
ATOM      3  C   UNL     1       1.355   0.274   0.472  0.00  0.00    +0.000 A 
ATOM      4  C   UNL     1       0.785   0.956  -0.603  0.00  0.00    +0.000 A 
ATOM      5  C   UNL     1      -0.603   0.984  -0.756  0.00  0.00    +0.000 A 
ATOM      6  C   UNL     1      -1.426   0.325   0.164  0.00  0.00    +0.000 A 
ATOM      7  C   UNL     1      -0.848  -0.350   1.245  0.00  0.00    +0.000 A 
ATOM      8  C   UNL     1       0.539  -0.377   1.396  0.00  0.00    +0.000 A 
ENDBRANCH   1   6
BRANCH   2   9
ATOM      9  C   UNL     1      -5.098  -0.465  -0.488  0.00  0.00    +0.000 A 
ATOM     10  C   UNL     1      -5.688  -0.485  -1.759  0.00  0.00    +0.000 A 
ATOM     11  C   UNL     1      -7.059  -0.261  -1.903  0.00  0.00    +0.000 A 
ATOM     12  C   UNL     1      -7.848  -0.014  -0.781  0.00  0.00    +0.000 A 
ATOM     13  C   UNL     1      -7.269   0.011   0.487  0.00  0.00    +0.000 A 
ATOM     14  C   UNL     1      -5.898  -0.211   0.633  0.00  0.00    +0.000 A 
ENDBRANCH   2   9
BRANCH   2  15
ATOM     15  C   UNL     1      -3.155  -2.086  -0.628  0.00  0.00    +0.000 C 
ATOM     16 CL   UNL     1      -3.452  -3.161   0.762  0.00  0.00    +0.000 Cl
ENDBRANCH   2  15
TORSDOF 3
