REMARK  Name = *****
REMARK  4 active torsions:
REMARK  status: ('A' for Active; 'I' for Inactive)
REMARK    1  A    between atoms: C_4  and  C_17
REMARK    2  A    between atoms: C_5  and  C_7
REMARK    3  A    between atoms: C_7  and  O_9
REMARK    4  A    between atoms: O_9  and  C_10
REMARK                            x       y       z     vdW  Elec       q    Type
REMARK                         _______ _______ _______ _____ _____    ______ ____
ROOT
ATOM      1  C   UNL     1       1.444  -0.355  -0.031  0.00  0.00    +0.000 A 
ATOM      2  C   UNL     1       0.498  -1.310  -0.395  0.00  0.00    +0.000 A 
ATOM      3  C   UNL     1      -0.859  -0.980  -0.415  0.00  0.00    +0.000 A 
ATOM      4  C   UNL     1      -1.294   0.312  -0.067  0.00  0.00    +0.000 A 
ATOM      5  C   UNL     1      -0.328   1.268   0.292  0.00  0.00    +0.000 A 
ATOM      6  C   UNL     1       1.036   0.933   0.308  0.00  0.00    +0.000 A 
ENDROOT
BRANCH   4   7
ATOM      7  C   UNL     1      -2.767   0.639  -0.077  0.00  0.00    +0.000 C 
ATOM      8  F   UNL     1      -3.546  -0.484  -0.074  0.00  0.00    +0.000 F 
ATOM      9  F   UNL     1      -3.166   1.343   1.018  0.00  0.00    +0.000 F 
ATOM     10  F   UNL     1      -3.155   1.342  -1.172  0.00  0.00    +0.000 F 
ENDBRANCH   4   7
BRANCH   5  11
ATOM     11  C   UNL     1      -0.723   2.656   0.612  0.00  0.00    +0.000 C 
ATOM     12  O   UNL     1      -1.494   3.304  -0.074  0.00  0.00    +0.000 OA
BRANCH  11  13
ATOM     13  O   UNL     1      -0.120   3.006   1.801  0.00  0.00    +0.000 OA
BRANCH  13  14
ATOM     14  C   UNL     1      -0.385   4.331   2.137  0.00  0.00    +0.000 A 
ATOM     15  C   UNL     1      -1.485   4.633   2.938  0.00  0.00    +0.000 A 
ATOM     16  C   UNL     1      -1.716   5.961   3.300  0.00  0.00    +0.000 A 
ATOM     17  C   UNL     1      -0.845   6.970   2.875  0.00  0.00    +0.000 A 
ATOM     18  C   UNL     1       0.265   6.653   2.088  0.00  0.00    +0.000 A 
ATOM     19  C   UNL     1       0.493   5.331   1.726  0.00  0.00    +0.000 A 
ATOM     20  F   UNL     1       1.566   5.023   0.983  0.00  0.00    +0.000 F 
ENDBRANCH  13  14
ENDBRANCH  11  13
ENDBRANCH   5  11
TORSDOF 4
