REMARK  Name = *****
REMARK  2 active torsions:
REMARK  status: ('A' for Active; 'I' for Inactive)
REMARK    1  A    between atoms: C_1  and  C_2
REMARK    2  A    between atoms: C_3  and  C_12
REMARK                            x       y       z     vdW  Elec       q    Type
REMARK                         _______ _______ _______ _____ _____    ______ ____
ROOT
ATOM      1  C   UNL     1       0.959  -0.030   0.272  0.00  0.00    +0.000 C 
ATOM      2  C   UNL     1       2.436  -0.031  -0.024  0.00  0.00    +0.000 A 
ATOM      3  C   UNL     1       3.122  -1.222  -0.290  0.00  0.00    +0.000 A 
ATOM      4  N   UNL     1       4.455  -1.227  -0.508  0.00  0.00    +0.000 NA
ATOM      5  N   UNL     1       5.167  -0.057  -0.506  0.00  0.00    +0.000 NA
ATOM      6  C   UNL     1       4.557   1.115  -0.304  0.00  0.00    +0.000 A 
ATOM      7  C   UNL     1       5.311   2.283  -0.337  0.00  0.00    +0.000 A 
ATOM      8  C   UNL     1       4.732   3.537  -0.142  0.00  0.00    +0.000 A 
ATOM      9  C   UNL     1       3.368   3.629   0.090  0.00  0.00    +0.000 A 
ATOM     10  C   UNL     1       2.595   2.467   0.130  0.00  0.00    +0.000 A 
ATOM     11  C   UNL     1       3.171   1.186  -0.061  0.00  0.00    +0.000 A 
ENDROOT
BRANCH   3  12
ATOM     12  C   UNL     1       2.503  -2.552  -0.371  0.00  0.00    +0.000 A 
ATOM     13  C   UNL     1       1.550  -2.855  -1.362  0.00  0.00    +0.000 A 
ATOM     14  C   UNL     1       0.972  -4.125  -1.434  0.00  0.00    +0.000 A 
ATOM     15  C   UNL     1       1.349  -5.102  -0.522  0.00  0.00    +0.000 A 
ATOM     16  C   UNL     1       2.297  -4.837   0.458  0.00  0.00    +0.000 A 
ATOM     17  C   UNL     1       2.875  -3.567   0.530  0.00  0.00    +0.000 A 
ATOM     18  F   UNL     1       0.794  -6.319  -0.592  0.00  0.00    +0.000 F 
ENDBRANCH   3  12
TORSDOF 1
