REMARK  Name = *****
REMARK  3 active torsions:
REMARK  status: ('A' for Active; 'I' for Inactive)
REMARK    1  A    between atoms: C_6  and  C_7
REMARK    2  A    between atoms: C_8  and  C_9
REMARK    3  A    between atoms: C_12  and  S_15
REMARK                            x       y       z     vdW  Elec       q    Type
REMARK                         _______ _______ _______ _____ _____    ______ ____
ROOT
ATOM      1  C   UNL     1       1.305   2.635  -0.293  0.00  0.00    +0.000 C 
ATOM      2  C   UNL     1       1.833   3.708  -0.414  0.00  0.00    +0.000 C 
ENDROOT
BRANCH   1   8
ATOM      3  C   UNL     1      -0.719   1.269  -0.095  0.00  0.00    +0.000 A 
ATOM      4  C   UNL     1      -1.332   0.022   0.043  0.00  0.00    +0.000 A 
ATOM      5  C   UNL     1      -0.546  -1.123   0.125  0.00  0.00    +0.000 A 
ATOM      6  C   UNL     1       0.841  -1.046   0.071  0.00  0.00    +0.000 A 
ATOM      7  C   UNL     1       1.456   0.200  -0.067  0.00  0.00    +0.000 A 
ATOM      8  C   UNL     1       0.676   1.359  -0.151  0.00  0.00    +0.000 A 
ATOM      9  F   UNL     1      -1.136  -2.318   0.258  0.00  0.00    +0.000 F 
ENDBRANCH   1   8
BRANCH   2  10
ATOM     10  C   UNL     1       2.460   4.984  -0.559  0.00  0.00    +0.000 A 
ATOM     11  C   UNL     1       1.808   6.139  -0.122  0.00  0.00    +0.000 A 
ATOM     12  C   UNL     1       2.422   7.387  -0.264  0.00  0.00    +0.000 A 
ATOM     13  C   UNL     1       3.687   7.487  -0.849  0.00  0.00    +0.000 A 
ATOM     14  C   UNL     1       4.340   6.329  -1.279  0.00  0.00    +0.000 A 
ATOM     15  C   UNL     1       3.728   5.080  -1.137  0.00  0.00    +0.000 A 
BRANCH  13  16
ATOM     16  S   UNL     1       4.484   9.068  -1.028  0.00  0.00    +0.000 S 
ATOM     17  H   UNL     1       3.668  10.043  -0.545  0.00  0.00    +0.000 HD
ENDBRANCH  13  16
ENDBRANCH   2  10
TORSDOF 3
