REMARK  Name = *****
REMARK  4 active torsions:
REMARK  status: ('A' for Active; 'I' for Inactive)
REMARK    1  A    between atoms: C_1  and  C_2
REMARK    2  A    between atoms: C_5  and  C_8
REMARK    3  A    between atoms: C_8  and  S_9
REMARK    4  A    between atoms: S_9  and  C_10
REMARK                            x       y       z     vdW  Elec       q    Type
REMARK                         _______ _______ _______ _____ _____    ______ ____
ROOT
ATOM      1  C   UNL     1      -3.342   0.298   0.109  0.00  0.00    +0.000 C 
ENDROOT
BRANCH   1   6
ATOM      2  C   UNL     1       2.473  -0.053  -0.039  0.00  0.00    +0.000 C 
ATOM      3  C   UNL     1       0.977   0.053  -0.022  0.00  0.00    +0.000 A 
ATOM      4  C   UNL     1       0.346   1.082   0.684  0.00  0.00    +0.000 A 
ATOM      5  C   UNL     1      -1.048   1.163   0.724  0.00  0.00    +0.000 A 
ATOM      6  C   UNL     1      -1.837   0.206   0.072  0.00  0.00    +0.000 A 
ATOM      7  C   UNL     1      -1.202  -0.828  -0.630  0.00  0.00    +0.000 A 
ATOM      8  C   UNL     1       0.192  -0.907  -0.669  0.00  0.00    +0.000 A 
ENDBRANCH   1   6
BRANCH   1   9
ATOM      9  S   UNL     1      -3.988   1.223  -1.324  0.00  0.00    +0.000 S 
BRANCH   9  10
ATOM     10  C   UNL     1      -5.705   1.345  -0.858  0.00  0.00    +0.000 A 
ATOM     11  C   UNL     1      -6.486   0.207  -0.631  0.00  0.00    +0.000 A 
ATOM     12  C   UNL     1      -7.830   0.334  -0.274  0.00  0.00    +0.000 A 
ATOM     13  C   UNL     1      -8.404   1.599  -0.152  0.00  0.00    +0.000 A 
ATOM     14  C   UNL     1      -7.635   2.736  -0.392  0.00  0.00    +0.000 A 
ATOM     15  C   UNL     1      -6.291   2.609  -0.748  0.00  0.00    +0.000 A 
ENDBRANCH   9  10
ENDBRANCH   1   9
TORSDOF 3
