REMARK  Name = *****
REMARK  4 active torsions:
REMARK  status: ('A' for Active; 'I' for Inactive)
REMARK    1  A    between atoms: C_1  and  C_2
REMARK    2  A    between atoms: C_7  and  C_8
REMARK    3  A    between atoms: C_8  and  O_10
REMARK    4  A    between atoms: O_10  and  C_11
REMARK                            x       y       z     vdW  Elec       q    Type
REMARK                         _______ _______ _______ _____ _____    ______ ____
ROOT
ATOM      1  C   UNL     1       1.025  -2.241  -0.647  0.00  0.00    +0.000 C 
ATOM      2  O   UNL     1       2.069  -2.615  -0.139  0.00  0.00    +0.000 OA
ENDROOT
BRANCH   1   9
ATOM      3  C   UNL     1       2.403   0.247   0.248  0.00  0.00    +0.000 C 
ATOM      4  C   UNL     1       0.905   0.120   0.232  0.00  0.00    +0.000 A 
ATOM      5  C   UNL     1       0.126   1.201   0.679  0.00  0.00    +0.000 A 
ATOM      6  C   UNL     1      -1.268   1.124   0.689  0.00  0.00    +0.000 A 
ATOM      7  C   UNL     1      -1.907  -0.035   0.260  0.00  0.00    +0.000 A 
ATOM      8  C   UNL     1      -1.153  -1.122  -0.179  0.00  0.00    +0.000 A 
ATOM      9  C   UNL     1       0.251  -1.052  -0.199  0.00  0.00    +0.000 A 
ENDBRANCH   1   9
BRANCH   1  10
ATOM     10  O   UNL     1       0.383  -2.781  -1.746  0.00  0.00    +0.000 OA
BRANCH  10  11
ATOM     11  C   UNL     1       1.004  -3.947  -2.201  0.00  0.00    +0.000 A 
ATOM     12  C   UNL     1       1.996  -3.834  -3.177  0.00  0.00    +0.000 A 
ATOM     13  C   UNL     1       2.602  -4.988  -3.672  0.00  0.00    +0.000 A 
ATOM     14  C   UNL     1       2.207  -6.243  -3.204  0.00  0.00    +0.000 A 
ATOM     15  C   UNL     1       1.199  -6.350  -2.241  0.00  0.00    +0.000 A 
ATOM     16  C   UNL     1       0.589  -5.199  -1.741  0.00  0.00    +0.000 A 
ATOM     17 CL   UNL     1      -0.674  -5.359  -0.577  0.00  0.00    +0.000 Cl
ENDBRANCH  10  11
ENDBRANCH   1  10
TORSDOF 3
