REMARK  Name = *****
REMARK  5 active torsions:
REMARK  status: ('A' for Active; 'I' for Inactive)
REMARK    1  A    between atoms: C_2  and  C_3
REMARK    2  A    between atoms: C_3  and  O_4
REMARK    3  A    between atoms: O_4  and  C_5
REMARK    4  A    between atoms: C_5  and  C_14
REMARK    5  A    between atoms: N_6  and  C_7
REMARK                            x       y       z     vdW  Elec       q    Type
REMARK                         _______ _______ _______ _____ _____    ______ ____
ROOT
ATOM      1  C   UNL     1       5.181   2.294  -0.229  0.00  0.00    +0.000 C 
ATOM      2  N   UNL     1       4.790   3.530  -0.187  0.00  0.00    +0.000 NA
ENDROOT
BRANCH   2   3
ATOM      3  C   UNL     1       3.435   3.873  -0.247  0.00  0.00    +0.000 A 
ATOM      4  C   UNL     1       2.849   4.536   0.833  0.00  0.00    +0.000 A 
ATOM      5  C   UNL     1       1.508   4.911   0.776  0.00  0.00    +0.000 A 
ATOM      6  C   UNL     1       0.744   4.646  -0.360  0.00  0.00    +0.000 A 
ATOM      7  C   UNL     1       1.330   4.008  -1.452  0.00  0.00    +0.000 A 
ATOM      8  C   UNL     1       2.673   3.631  -1.396  0.00  0.00    +0.000 A 
ATOM      9 CL   UNL     1       0.787   5.708   2.120  0.00  0.00    +0.000 Cl
ENDBRANCH   2   3
BRANCH   1  10
ATOM     10  C   UNL     1       6.619   1.917  -0.322  0.00  0.00    +0.000 A 
ATOM     11  C   UNL     1       7.029   0.590  -0.510  0.00  0.00    +0.000 A 
ATOM     12  C   UNL     1       8.389   0.277  -0.590  0.00  0.00    +0.000 A 
ATOM     13  C   UNL     1       9.346   1.285  -0.484  0.00  0.00    +0.000 A 
ATOM     14  C   UNL     1       8.948   2.608  -0.300  0.00  0.00    +0.000 A 
ATOM     15  C   UNL     1       7.590   2.924  -0.220  0.00  0.00    +0.000 A 
ENDBRANCH   1  10
BRANCH   1  16
ATOM     16  O   UNL     1       4.395   1.189  -0.225  0.00  0.00    +0.000 OA
BRANCH  16  17
ATOM     17  C   UNL     1       3.480   1.053   0.872  0.00  0.00    +0.000 C 
BRANCH  17  19
ATOM     18  C   UNL     1       2.521  -1.220   1.363  0.00  0.00    +0.000 C 
ATOM     19  C   UNL     1       3.555  -0.368   1.341  0.00  0.00    +0.000 C 
ENDBRANCH  17  19
ENDBRANCH  16  17
ENDBRANCH   1  16
TORSDOF 5
