REMARK  Name = *****
REMARK  3 active torsions:
REMARK  status: ('A' for Active; 'I' for Inactive)
REMARK    1  A    between atoms: C_4  and  C_6
REMARK    2  A    between atoms: C_6  and  C_8
REMARK    3  A    between atoms: C_8  and  C_9
REMARK                            x       y       z     vdW  Elec       q    Type
REMARK                         _______ _______ _______ _____ _____    ______ ____
ROOT
ATOM      1  C   UNL     1       0.955  -3.757   0.053  0.00  0.00    +0.000 C 
ENDROOT
BRANCH   1   2
ATOM      2  C   UNL     1       0.304  -5.126   0.092  0.00  0.00    +0.000 A 
ATOM      3  C   UNL     1      -0.543  -5.581  -0.934  0.00  0.00    +0.000 A 
ATOM      4  C   UNL     1      -1.145  -6.840  -0.858  0.00  0.00    +0.000 A 
ATOM      5  C   UNL     1      -0.909  -7.650   0.248  0.00  0.00    +0.000 A 
ATOM      6  C   UNL     1      -0.080  -7.216   1.279  0.00  0.00    +0.000 A 
ATOM      7  C   UNL     1       0.522  -5.958   1.203  0.00  0.00    +0.000 A 
ATOM      8 CL   UNL     1      -1.647  -9.201   0.344  0.00  0.00    +0.000 Cl
ATOM      9 CL   UNL     1      -0.871  -4.618  -2.332  0.00  0.00    +0.000 Cl
ENDBRANCH   1   2
BRANCH   1  10
ATOM     10  C   UNL     1       0.008  -2.613   0.411  0.00  0.00    +0.000 C 
ATOM     11  O   UNL     1      -1.097  -2.842   0.910  0.00  0.00    +0.000 OA
BRANCH  10  15
ATOM     12  C   UNL     1       0.438   1.099   0.097  0.00  0.00    +0.000 A 
ATOM     13  C   UNL     1       1.715   0.825  -0.335  0.00  0.00    +0.000 A 
ATOM     14  S   UNL     1       2.032  -0.854  -0.369  0.00  0.00    +0.000 S 
ATOM     15  C   UNL     1       0.459  -1.239   0.187  0.00  0.00    +0.000 A 
ATOM     16  C   UNL     1      -0.284  -0.091   0.400  0.00  0.00    +0.000 A 
ENDBRANCH  10  15
ENDBRANCH   1  10
TORSDOF 3
