REMARK  Name = *****
REMARK  2 active torsions:
REMARK  status: ('A' for Active; 'I' for Inactive)
REMARK    1  A    between atoms: C_1  and  C_2
REMARK    2  A    between atoms: C_2  and  C_10
REMARK                            x       y       z     vdW  Elec       q    Type
REMARK                         _______ _______ _______ _____ _____    ______ ____
ROOT
ATOM      1  C   UNL     1       1.140  -0.255   0.306  0.00  0.00    +0.000 C 
ATOM      2  C   UNL     1       2.624  -0.083   0.125  0.00  0.00    +0.000 C 
ATOM      3  C   UNL     1       3.269   0.848   0.778  0.00  0.00    +0.000 C 
ATOM      4  C   UNL     1       3.905   1.778   1.438  0.00  0.00    +0.000 C 
ATOM      5  C   UNL     1       3.346   3.164   1.636  0.00  0.00    +0.000 C 
ATOM      6  C   UNL     1       4.355   4.230   1.207  0.00  0.00    +0.000 C 
ATOM      7  C   UNL     1       5.715   4.029   1.877  0.00  0.00    +0.000 C 
ATOM      8  C   UNL     1       6.254   2.619   1.635  0.00  0.00    +0.000 C 
ATOM      9  C   UNL     1       5.255   1.547   2.070  0.00  0.00    +0.000 C 
ENDROOT
BRANCH   2  10
ATOM     10  C   UNL     1       3.346  -1.026  -0.775  0.00  0.00    +0.000 A 
ATOM     11  C   UNL     1       2.784  -2.256  -1.156  0.00  0.00    +0.000 A 
ATOM     12  C   UNL     1       3.468  -3.137  -2.002  0.00  0.00    +0.000 A 
ATOM     13  C   UNL     1       4.730  -2.804  -2.485  0.00  0.00    +0.000 A 
ATOM     14  C   UNL     1       5.308  -1.592  -2.123  0.00  0.00    +0.000 A 
ATOM     15  C   UNL     1       4.623  -0.713  -1.277  0.00  0.00    +0.000 A 
ENDBRANCH   2  10
TORSDOF 1
