REMARK  Name = *****
REMARK  2 active torsions:
REMARK  status: ('A' for Active; 'I' for Inactive)
REMARK    1  A    between atoms: C_4  and  C_7
REMARK    2  A    between atoms: C_8  and  C_9
REMARK                            x       y       z     vdW  Elec       q    Type
REMARK                         _______ _______ _______ _____ _____    ______ ____
ROOT
ATOM      1  C   UNL     1      -0.601  -0.034   0.032  0.00  0.00    +0.000 C 
ATOM      2  C   UNL     1       0.600  -0.039   0.030  0.00  0.00    +0.000 C 
ENDROOT
BRANCH   1   6
ATOM      3  C   UNL     1      -4.823   0.055  -0.030  0.00  0.00    +0.000 A 
ATOM      4  C   UNL     1      -4.153  -1.168   0.013  0.00  0.00    +0.000 A 
ATOM      5  C   UNL     1      -2.757  -1.200   0.038  0.00  0.00    +0.000 A 
ATOM      6  C   UNL     1      -2.031  -0.007   0.018  0.00  0.00    +0.000 A 
ATOM      7  C   UNL     1      -2.704   1.216  -0.024  0.00  0.00    +0.000 A 
ATOM      8  C   UNL     1      -4.100   1.247  -0.048  0.00  0.00    +0.000 A 
ENDBRANCH   1   6
BRANCH   2   9
ATOM      9  C   UNL     1       2.030  -0.024   0.012  0.00  0.00    +0.000 A 
ATOM     10  C   UNL     1       2.714   1.194   0.034  0.00  0.00    +0.000 A 
ATOM     11  C   UNL     1       4.110   1.214   0.005  0.00  0.00    +0.000 A 
ATOM     12  C   UNL     1       4.823   0.016  -0.046  0.00  0.00    +0.000 A 
ATOM     13  C   UNL     1       4.142  -1.201  -0.066  0.00  0.00    +0.000 A 
ATOM     14  C   UNL     1       2.746  -1.222  -0.037  0.00  0.00    +0.000 A 
ENDBRANCH   2   9
TORSDOF 2
