REMARK  Name = *****
REMARK  3 active torsions:
REMARK  status: ('A' for Active; 'I' for Inactive)
REMARK    1  A    between atoms: C_2  and  C_3
REMARK    2  A    between atoms: C_6  and  C_8
REMARK    3  A    between atoms: C_9  and  C_10
REMARK                            x       y       z     vdW  Elec       q    Type
REMARK                         _______ _______ _______ _____ _____    ______ ____
ROOT
ATOM      1  C   UNL     1       5.325   1.981   2.943  0.00  0.00    +0.000 C 
ATOM      2  C   UNL     1       6.537   2.166   3.491  0.00  0.00    +0.000 C 
ENDROOT
BRANCH   2   3
ATOM      3  C   UNL     1       6.829   1.999   4.922  0.00  0.00    +0.000 A 
ATOM      4  C   UNL     1       6.225   1.002   5.699  0.00  0.00    +0.000 A 
ATOM      5  C   UNL     1       6.553   0.854   7.050  0.00  0.00    +0.000 A 
ATOM      6  C   UNL     1       7.498   1.695   7.634  0.00  0.00    +0.000 A 
ATOM      7  C   UNL     1       8.118   2.679   6.869  0.00  0.00    +0.000 A 
ATOM      8  C   UNL     1       7.790   2.827   5.518  0.00  0.00    +0.000 A 
ENDBRANCH   2   3
BRANCH   1  12
ATOM      9  C   UNL     1       3.014   0.937   0.946  0.00  0.00    +0.000 C 
ATOM     10  C   UNL     1       2.757   2.398   0.583  0.00  0.00    +0.000 C 
ATOM     11  C   UNL     1       3.907   3.169   1.234  0.00  0.00    +0.000 C 
ATOM     12  C   UNL     1       5.038   2.151   1.470  0.00  0.00    +0.000 C 
ATOM     13  C   UNL     1       4.537   0.842   0.845  0.00  0.00    +0.000 C 
BRANCH   9  15
ATOM     14  C   UNL     1       1.449  -0.964   0.474  0.00  0.00    +0.000 C 
ATOM     15  C   UNL     1       2.305  -0.029   0.042  0.00  0.00    +0.000 C 
ENDBRANCH   9  15
ENDBRANCH   1  12
TORSDOF 3
