REMARK  Name = *****
REMARK  6 active torsions:
REMARK  status: ('A' for Active; 'I' for Inactive)
REMARK    1  A    between atoms: C_1  and  N_2
REMARK    2  A    between atoms: N_2  and  C_3
REMARK    3  A    between atoms: N_2  and  C_4
REMARK    4  A    between atoms: C_9  and  C_10
REMARK    5  A    between atoms: C_10  and  C_11
REMARK    6  A    between atoms: C_11  and  C_12
REMARK                            x       y       z     vdW  Elec       q    Type
REMARK                         _______ _______ _______ _____ _____    ______ ____
ROOT
ATOM      1  C   UNL     1       3.181   0.672  -0.754  0.00  0.00    +0.000 A 
ATOM      2  C   UNL     1       2.836   2.032  -0.837  0.00  0.00    +0.000 A 
ATOM      3  C   UNL     1       3.184   2.800  -1.950  0.00  0.00    +0.000 A 
ATOM      4  C   UNL     1       3.886   2.221  -3.001  0.00  0.00    +0.000 A 
ATOM      5  C   UNL     1       4.244   0.876  -2.937  0.00  0.00    +0.000 A 
ATOM      6  C   UNL     1       3.905   0.093  -1.819  0.00  0.00    +0.000 A 
ENDROOT
BRANCH   1   8
ATOM      7  C   UNL     1       1.432  -0.060   0.738  0.00  0.00    +0.000 C 
ATOM      8  N   UNL     1       2.848  -0.118   0.371  0.00  0.00    +0.000 N 
ATOM      9  C   UNL     1       3.767   0.140   1.484  0.00  0.00    +0.000 C 
ENDBRANCH   1   8
BRANCH   6  10
ATOM     10  C   UNL     1       4.293  -1.371  -1.809  0.00  0.00    +0.000 C 
BRANCH  10  11
ATOM     11  C   UNL     1       3.126  -2.272  -2.223  0.00  0.00    +0.000 C 
BRANCH  11  12
ATOM     12  C   UNL     1       3.523  -3.729  -2.237  0.00  0.00    +0.000 A 
ATOM     13  C   UNL     1       3.558  -4.462  -1.043  0.00  0.00    +0.000 A 
ATOM     14  C   UNL     1       3.940  -5.804  -1.048  0.00  0.00    +0.000 A 
ATOM     15  C   UNL     1       4.294  -6.424  -2.245  0.00  0.00    +0.000 A 
ATOM     16  C   UNL     1       4.267  -5.702  -3.437  0.00  0.00    +0.000 A 
ATOM     17  C   UNL     1       3.886  -4.359  -3.434  0.00  0.00    +0.000 A 
ENDBRANCH  11  12
ENDBRANCH  10  11
ENDBRANCH   6  10
TORSDOF 4
