REMARK  Name = *****
REMARK  4 active torsions:
REMARK  status: ('A' for Active; 'I' for Inactive)
REMARK    1  A    between atoms: C_1  and  C_2
REMARK    2  A    between atoms: C_2  and  O_3
REMARK    3  A    between atoms: O_3  and  N_4
REMARK    4  A    between atoms: C_12  and  C_13
REMARK                            x       y       z     vdW  Elec       q    Type
REMARK                         _______ _______ _______ _____ _____    ______ ____
ROOT
ATOM      1  N   UNL     1       4.548   1.354   0.423  0.00  0.00    +0.000 N 
ATOM      2  C   UNL     1       5.556   1.093  -0.477  0.00  0.00    +0.000 A 
ATOM      3  C   UNL     1       5.509   0.645  -1.806  0.00  0.00    +0.000 A 
ATOM      4  C   UNL     1       6.722   0.487  -2.483  0.00  0.00    +0.000 A 
ATOM      5  C   UNL     1       7.934   0.767  -1.855  0.00  0.00    +0.000 A 
ATOM      6  C   UNL     1       7.966   1.209  -0.527  0.00  0.00    +0.000 A 
ATOM      7  C   UNL     1       6.756   1.373   0.175  0.00  0.00    +0.000 A 
ATOM      8  C   UNL     1       6.428   1.778   1.498  0.00  0.00    +0.000 A 
ATOM      9  C   UNL     1       5.050   1.728   1.653  0.00  0.00    +0.000 A 
ENDROOT
BRANCH   9  10
ATOM     10  C   UNL     1       4.235   2.034   2.831  0.00  0.00    +0.000 A 
ATOM     11  C   UNL     1       4.546   3.141   3.633  0.00  0.00    +0.000 A 
ATOM     12  C   UNL     1       3.778   3.445   4.760  0.00  0.00    +0.000 A 
ATOM     13  C   UNL     1       2.694   2.640   5.103  0.00  0.00    +0.000 A 
ATOM     14  C   UNL     1       2.378   1.532   4.320  0.00  0.00    +0.000 A 
ATOM     15  C   UNL     1       3.146   1.229   3.193  0.00  0.00    +0.000 A 
ENDBRANCH   9  10
BRANCH   1  16
ATOM     16  O   UNL     1       3.184   1.204   0.123  0.00  0.00    +0.000 OA
BRANCH  16  18
ATOM     17  C   UNL     1       1.170   2.356  -0.422  0.00  0.00    +0.000 C 
ATOM     18  C   UNL     1       2.682   2.453  -0.356  0.00  0.00    +0.000 C 
ENDBRANCH  16  18
ENDBRANCH   1  16
TORSDOF 3
