REMARK  Name = *****
REMARK  6 active torsions:
REMARK  status: ('A' for Active; 'I' for Inactive)
REMARK    1  A    between atoms: C_1  and  O_2
REMARK    2  A    between atoms: O_2  and  C_3
REMARK    3  A    between atoms: C_6  and  C_9
REMARK    4  A    between atoms: C_10  and  C_11
REMARK    5  A    between atoms: C_14  and  O_17
REMARK    6  A    between atoms: O_17  and  C_18
REMARK                            x       y       z     vdW  Elec       q    Type
REMARK                         _______ _______ _______ _____ _____    ______ ____
ROOT
ATOM      1  C   UNL     1       5.311   3.219   3.675  0.00  0.00    +0.000 C 
ATOM      2  C   UNL     1       4.930   3.451   4.942  0.00  0.00    +0.000 C 
ENDROOT
BRANCH   1   6
ATOM      3  C   UNL     1       3.248   0.687   0.894  0.00  0.00    +0.000 A 
ATOM      4  C   UNL     1       2.519   1.475   1.784  0.00  0.00    +0.000 A 
ATOM      5  C   UNL     1       3.183   2.300   2.701  0.00  0.00    +0.000 A 
ATOM      6  C   UNL     1       4.582   2.341   2.750  0.00  0.00    +0.000 A 
ATOM      7  C   UNL     1       5.306   1.560   1.843  0.00  0.00    +0.000 A 
ATOM      8  C   UNL     1       4.643   0.736   0.928  0.00  0.00    +0.000 A 
BRANCH   3  10
ATOM      9  C   UNL     1       1.311  -0.250  -0.114  0.00  0.00    +0.000 C 
ATOM     10  O   UNL     1       2.728  -0.157  -0.048  0.00  0.00    +0.000 OA
ENDBRANCH   3  10
ENDBRANCH   1   6
BRANCH   2  11
ATOM     11  C   UNL     1       5.668   4.318   5.872  0.00  0.00    +0.000 A 
ATOM     12  C   UNL     1       6.259   5.520   5.465  0.00  0.00    +0.000 A 
ATOM     13  C   UNL     1       6.926   6.341   6.385  0.00  0.00    +0.000 A 
ATOM     14  C   UNL     1       7.000   5.973   7.728  0.00  0.00    +0.000 A 
ATOM     15  C   UNL     1       6.398   4.783   8.140  0.00  0.00    +0.000 A 
ATOM     16  C   UNL     1       5.732   3.964   7.223  0.00  0.00    +0.000 A 
BRANCH  14  17
ATOM     17  O   UNL     1       7.615   6.678   8.724  0.00  0.00    +0.000 OA
ATOM     18  C   UNL     1       8.251   7.894   8.352  0.00  0.00    +0.000 C 
ENDBRANCH  14  17
ENDBRANCH   2  11
TORSDOF 4
