REMARK  Name = *****
REMARK  0 active torsions:
REMARK  status: ('A' for Active; 'I' for Inactive)
REMARK                            x       y       z     vdW  Elec       q    Type
REMARK                         _______ _______ _______ _____ _____    ______ ____
ROOT
ATOM      1  C   UNL     1       1.811   0.299  -0.357  0.00  0.00    +0.000 C 
ATOM      2  C   UNL     1       2.854  -0.408   0.121  0.00  0.00    +0.000 C 
ATOM      3  C   UNL     1       2.651  -1.401   1.245  0.00  0.00    +0.000 C 
ATOM      4  C   UNL     1       2.114  -2.735   0.763  0.00  0.00    +0.000 A 
ATOM      5  C   UNL     1       0.729  -2.971   0.857  0.00  0.00    +0.000 A 
ATOM      6  C   UNL     1       0.165  -4.161   0.399  0.00  0.00    +0.000 A 
ATOM      7  C   UNL     1       0.976  -5.135  -0.168  0.00  0.00    +0.000 A 
ATOM      8  C   UNL     1       2.350  -4.919  -0.272  0.00  0.00    +0.000 A 
ATOM      9  C   UNL     1       2.938  -3.726   0.190  0.00  0.00    +0.000 A 
ATOM     10  C   UNL     1       4.435  -3.571   0.073  0.00  0.00    +0.000 C 
ATOM     11  O   UNL     1       4.782  -2.555  -0.863  0.00  0.00    +0.000 OA
ATOM     12  C   UNL     1       5.262  -1.351  -0.264  0.00  0.00    +0.000 C 
ATOM     13  C   UNL     1       4.249  -0.197  -0.468  0.00  0.00    +0.000 C 
ATOM     14  C   UNL     1       4.852   1.117   0.073  0.00  0.00    +0.000 C 
ATOM     15  C   UNL     1       6.199   1.436  -0.573  0.00  0.00    +0.000 C 
ATOM     16  C   UNL     1       7.186   0.284  -0.428  0.00  0.00    +0.000 C 
ATOM     17  C   UNL     1       6.596  -1.021  -0.946  0.00  0.00    +0.000 C 
ENDROOT
TORSDOF 0
