REMARK  Name = *****
REMARK  5 active torsions:
REMARK  status: ('A' for Active; 'I' for Inactive)
REMARK    1  A    between atoms: C_1  and  C_2
REMARK    2  A    between atoms: C_3  and  C_7
REMARK    3  A    between atoms: C_7  and  O_9
REMARK    4  A    between atoms: O_9  and  C_10
REMARK    5  A    between atoms: C_11  and  C_17
REMARK                            x       y       z     vdW  Elec       q    Type
REMARK                         _______ _______ _______ _____ _____    ______ ____
ROOT
ATOM      1  O   UNL     1       2.253  -2.994  -0.199  0.00  0.00    +0.000 OA
ENDROOT
BRANCH   1   2
ATOM      2  C   UNL     1       2.318  -4.392  -0.174  0.00  0.00    +0.000 A 
ATOM      3  C   UNL     1       1.242  -5.136  -0.675  0.00  0.00    +0.000 A 
ATOM      4  C   UNL     1       1.350  -6.534  -0.681  0.00  0.00    +0.000 A 
ATOM      5  C   UNL     1       2.513  -7.153  -0.215  0.00  0.00    +0.000 A 
ATOM      6  C   UNL     1       3.583  -6.395   0.259  0.00  0.00    +0.000 A 
ATOM      7  C   UNL     1       3.491  -5.004   0.274  0.00  0.00    +0.000 A 
ATOM      8 CL   UNL     1       2.629  -8.870  -0.235  0.00  0.00    +0.000 Cl
ATOM      9  C   UNL     1      -0.002  -4.466  -1.177  0.00  0.00    +0.000 C 
ENDBRANCH   1   2
BRANCH   1  10
ATOM     10  C   UNL     1       1.977  -2.405   1.034  0.00  0.00    +0.000 C 
ATOM     11  O   UNL     1       1.807  -3.030   2.077  0.00  0.00    +0.000 OA
BRANCH  10  14
ATOM     12  C   UNL     1       2.234  -0.565  -1.647  0.00  0.00    +0.000 C 
ATOM     13  C   UNL     1       2.034  -0.126  -0.230  0.00  0.00    +0.000 A 
ATOM     14  C   UNL     1       1.927  -0.952   0.890  0.00  0.00    +0.000 A 
ATOM     15  S   UNL     1       1.691  -0.029   2.326  0.00  0.00    +0.000 S 
ATOM     16  C   UNL     1       1.739   1.447   1.483  0.00  0.00    +0.000 A 
ATOM     17  C   UNL     1       1.925   1.260   0.135  0.00  0.00    +0.000 A 
ENDBRANCH  10  14
ENDBRANCH   1  10
TORSDOF 3
