REMARK  Name = *****
REMARK  3 active torsions:
REMARK  status: ('A' for Active; 'I' for Inactive)
REMARK    1  A    between atoms: C_1  and  C_2
REMARK    2  A    between atoms: C_5  and  C_8
REMARK    3  A    between atoms: C_9  and  C_10
REMARK                            x       y       z     vdW  Elec       q    Type
REMARK                         _______ _______ _______ _____ _____    ______ ____
ROOT
ATOM      1  C   UNL     1      -3.189  -0.516   0.166  0.00  0.00    +0.000 C 
ATOM      2  C   UNL     1      -3.741  -1.741   0.206  0.00  0.00    +0.000 C 
ATOM      3 CL   UNL     1      -4.093   0.929  -0.100  0.00  0.00    +0.000 Cl
ENDROOT
BRANCH   1   8
ATOM      4  C   UNL     1       2.500   0.158   0.971  0.00  0.00    +0.000 C 
ATOM      5  C   UNL     1       1.027  -0.043   0.774  0.00  0.00    +0.000 A 
ATOM      6  C   UNL     1       0.542  -0.632  -0.399  0.00  0.00    +0.000 A 
ATOM      7  C   UNL     1      -0.833  -0.787  -0.598  0.00  0.00    +0.000 A 
ATOM      8  C   UNL     1      -1.744  -0.343   0.369  0.00  0.00    +0.000 A 
ATOM      9  C   UNL     1      -1.259   0.261   1.535  0.00  0.00    +0.000 A 
ATOM     10  C   UNL     1       0.116   0.414   1.733  0.00  0.00    +0.000 A 
ENDBRANCH   1   8
BRANCH   2  11
ATOM     11  C   UNL     1      -5.187  -2.088   0.018  0.00  0.00    +0.000 C 
ATOM     12  S   UNL     1      -5.423  -3.197  -1.398  0.00  0.00    +0.000 S 
ATOM     13  C   UNL     1      -4.689  -4.733  -0.774  0.00  0.00    +0.000 C 
ATOM     14  C   UNL     1      -5.335  -5.232   0.509  0.00  0.00    +0.000 C 
ATOM     15  C   UNL     1      -5.098  -4.323   1.705  0.00  0.00    +0.000 C 
ATOM     16  S   UNL     1      -5.923  -2.716   1.550  0.00  0.00    +0.000 S 
ENDBRANCH   2  11
TORSDOF 2
