REMARK  Name = *****
REMARK  6 active torsions:
REMARK  status: ('A' for Active; 'I' for Inactive)
REMARK    1  A    between atoms: C_1  and  C_2
REMARK    2  A    between atoms: C_5  and  N_8
REMARK    3  A    between atoms: N_8  and  C_9
REMARK    4  A    between atoms: N_8  and  C_10
REMARK    5  A    between atoms: C_10  and  S_11
REMARK    6  A    between atoms: S_11  and  C_12
REMARK                            x       y       z     vdW  Elec       q    Type
REMARK                         _______ _______ _______ _____ _____    ______ ____
ROOT
ATOM      1  N   UNL     1      -3.364  -0.109   0.507  0.00  0.00    +0.000 N 
ATOM      2  C   UNL     1      -3.914  -1.292  -0.168  0.00  0.00    +0.000 C 
ENDROOT
BRANCH   1   7
ATOM      3  C   UNL     1       2.315   0.090  -0.343  0.00  0.00    +0.000 C 
ATOM      4  C   UNL     1       0.834   0.071  -0.111  0.00  0.00    +0.000 A 
ATOM      5  C   UNL     1      -0.014   0.900  -0.852  0.00  0.00    +0.000 A 
ATOM      6  C   UNL     1      -1.400   0.861  -0.657  0.00  0.00    +0.000 A 
ATOM      7  C   UNL     1      -1.975  -0.014   0.275  0.00  0.00    +0.000 A 
ATOM      8  C   UNL     1      -1.115  -0.855   0.996  0.00  0.00    +0.000 A 
ATOM      9  C   UNL     1       0.270  -0.818   0.807  0.00  0.00    +0.000 A 
ENDBRANCH   1   7
BRANCH   1  10
ATOM     10  C   UNL     1      -4.129   1.129   0.320  0.00  0.00    +0.000 C 
BRANCH  10  11
ATOM     11  S   UNL     1      -5.650   1.109   1.333  0.00  0.00    +0.000 S 
BRANCH  11  12
ATOM     12  C   UNL     1      -6.390   2.633   0.779  0.00  0.00    +0.000 A 
ATOM     13  C   UNL     1      -7.620   2.595   0.116  0.00  0.00    +0.000 A 
ATOM     14  C   UNL     1      -8.221   3.776  -0.324  0.00  0.00    +0.000 A 
ATOM     15  C   UNL     1      -7.598   5.002  -0.096  0.00  0.00    +0.000 A 
ATOM     16  C   UNL     1      -6.379   5.049   0.578  0.00  0.00    +0.000 A 
ATOM     17  C   UNL     1      -5.778   3.867   1.018  0.00  0.00    +0.000 A 
ENDBRANCH  11  12
ENDBRANCH  10  11
ENDBRANCH   1  10
TORSDOF 4
