REMARK  Name = *****
REMARK  4 active torsions:
REMARK  status: ('A' for Active; 'I' for Inactive)
REMARK    1  A    between atoms: C_1  and  C_2
REMARK    2  A    between atoms: C_2  and  O_3
REMARK    3  A    between atoms: O_3  and  C_4
REMARK    4  A    between atoms: C_6  and  C_14
REMARK                            x       y       z     vdW  Elec       q    Type
REMARK                         _______ _______ _______ _____ _____    ______ ____
ROOT
ATOM      1  C   UNL     1       4.394  -1.428   0.995  0.00  0.00    +0.000 A 
ATOM      2  N   UNL     1       4.884  -2.647   0.671  0.00  0.00    +0.000 NA
ATOM      3  C   UNL     1       6.228  -2.804   0.639  0.00  0.00    +0.000 A 
ATOM      4  C   UNL     1       7.096  -1.749   0.917  0.00  0.00    +0.000 A 
ATOM      5  C   UNL     1       6.581  -0.488   1.247  0.00  0.00    +0.000 A 
ATOM      6  C   UNL     1       7.429   0.597   1.532  0.00  0.00    +0.000 A 
ATOM      7  C   UNL     1       6.905   1.849   1.857  0.00  0.00    +0.000 A 
ATOM      8  C   UNL     1       5.528   2.036   1.900  0.00  0.00    +0.000 A 
ATOM      9  C   UNL     1       4.674   0.969   1.619  0.00  0.00    +0.000 A 
ATOM     10  C   UNL     1       5.187  -0.306   1.289  0.00  0.00    +0.000 A 
ENDROOT
BRANCH   3  11
ATOM     11  C   UNL     1       6.704  -4.155   0.273  0.00  0.00    +0.000 A 
ATOM     12  C   UNL     1       5.989  -4.941  -0.649  0.00  0.00    +0.000 A 
ATOM     13  C   UNL     1       6.427  -6.217  -1.017  0.00  0.00    +0.000 A 
ATOM     14  C   UNL     1       7.592  -6.738  -0.463  0.00  0.00    +0.000 A 
ATOM     15  C   UNL     1       8.314  -5.988   0.461  0.00  0.00    +0.000 A 
ATOM     16  C   UNL     1       7.873  -4.711   0.826  0.00  0.00    +0.000 A 
ENDBRANCH   3  11
BRANCH   1  17
ATOM     17  O   UNL     1       3.019  -1.256   1.027  0.00  0.00    +0.000 OA
BRANCH  17  19
ATOM     18  C   UNL     1       0.810  -2.142   0.969  0.00  0.00    +0.000 C 
ATOM     19  C   UNL     1       2.289  -2.473   0.876  0.00  0.00    +0.000 C 
ENDBRANCH  17  19
ENDBRANCH   1  17
TORSDOF 3
