REMARK  Name = *****
REMARK  5 active torsions:
REMARK  status: ('A' for Active; 'I' for Inactive)
REMARK    1  A    between atoms: C_1  and  N_2
REMARK    2  A    between atoms: N_2  and  C_3
REMARK    3  A    between atoms: N_2  and  C_4
REMARK    4  A    between atoms: C_5  and  C_11
REMARK    5  A    between atoms: C_12  and  C_13
REMARK                            x       y       z     vdW  Elec       q    Type
REMARK                         _______ _______ _______ _____ _____    ______ ____
ROOT
ATOM      1  C   UNL     1       2.958  -1.025  -0.713  0.00  0.00    +0.000 A 
ATOM      2  C   UNL     1       2.608  -1.623  -1.950  0.00  0.00    +0.000 A 
ATOM      3  C   UNL     1       3.231  -2.803  -2.377  0.00  0.00    +0.000 A 
ATOM      4  C   UNL     1       4.201  -3.394  -1.581  0.00  0.00    +0.000 A 
ATOM      5  C   UNL     1       4.566  -2.833  -0.366  0.00  0.00    +0.000 A 
ATOM      6  C   UNL     1       3.949  -1.656   0.065  0.00  0.00    +0.000 A 
ATOM      7  F   UNL     1       4.796  -4.521  -1.992  0.00  0.00    +0.000 F 
ENDROOT
BRANCH   1   9
ATOM      8  C   UNL     1       2.066   0.303   1.135  0.00  0.00    +0.000 C 
ATOM      9  N   UNL     1       2.341   0.175  -0.295  0.00  0.00    +0.000 N 
ATOM     10  C   UNL     1       2.978   1.350  -0.897  0.00  0.00    +0.000 C 
ENDBRANCH   1   9
BRANCH   2  11
ATOM     11  C   UNL     1       1.590  -1.064  -2.794  0.00  0.00    +0.000 C 
ATOM     12  C   UNL     1       0.741  -0.597  -3.504  0.00  0.00    +0.000 C 
BRANCH  12  13
ATOM     13  C   UNL     1      -0.266  -0.032  -4.348  0.00  0.00    +0.000 A 
ATOM     14  C   UNL     1      -1.141  -0.864  -5.049  0.00  0.00    +0.000 A 
ATOM     15  C   UNL     1      -2.121  -0.310  -5.875  0.00  0.00    +0.000 A 
ATOM     16  C   UNL     1      -2.226   1.075  -6.002  0.00  0.00    +0.000 A 
ATOM     17  C   UNL     1      -1.353   1.908  -5.302  0.00  0.00    +0.000 A 
ATOM     18  C   UNL     1      -0.373   1.355  -4.475  0.00  0.00    +0.000 A 
ENDBRANCH  12  13
ENDBRANCH   2  11
TORSDOF 3
