REMARK  Name = *****
REMARK  4 active torsions:
REMARK  status: ('A' for Active; 'I' for Inactive)
REMARK    1  A    between atoms: C_1  and  N_2
REMARK    2  A    between atoms: C_5  and  C_8
REMARK    3  A    between atoms: C_8  and  C_9
REMARK    4  A    between atoms: C_9  and  C_10
REMARK                            x       y       z     vdW  Elec       q    Type
REMARK                         _______ _______ _______ _____ _____    ______ ____
ROOT
ATOM      1  C   UNL     1       4.764   0.045  -3.356  0.00  0.00    +0.000 C 
ENDROOT
BRANCH   1   6
ATOM      2  C   UNL     1       0.950  -0.323  -0.482  0.00  0.00    +0.000 C 
ATOM      3  N   UNL     1       2.183   0.051   0.209  0.00  0.00    +0.000 N 
ATOM      4  C   UNL     1       2.708   1.340  -0.266  0.00  0.00    +0.000 C 
ATOM      5  C   UNL     1       3.226   1.324  -1.718  0.00  0.00    +0.000 C 
ATOM      6  C   UNL     1       4.012   0.075  -2.047  0.00  0.00    +0.000 C 
ATOM      7  C   UNL     1       3.994  -0.971  -1.200  0.00  0.00    +0.000 C 
ATOM      8  C   UNL     1       3.210  -0.993   0.085  0.00  0.00    +0.000 C 
ATOM      9  H   UNL     1       1.945   0.151   1.196  0.00  0.00    +0.000 HD
ENDBRANCH   1   6
BRANCH   1  10
ATOM     10  C   UNL     1       6.027   0.916  -3.330  0.00  0.00    +0.000 C 
BRANCH  10  11
ATOM     11  C   UNL     1       6.819   0.804  -4.617  0.00  0.00    +0.000 A 
ATOM     12  C   UNL     1       6.523   1.561  -5.770  0.00  0.00    +0.000 A 
ATOM     13  C   UNL     1       7.292   1.390  -6.934  0.00  0.00    +0.000 A 
ATOM     14  C   UNL     1       8.345   0.472  -6.956  0.00  0.00    +0.000 A 
ATOM     15  C   UNL     1       8.638  -0.282  -5.823  0.00  0.00    +0.000 A 
ATOM     16  C   UNL     1       7.879  -0.119  -4.664  0.00  0.00    +0.000 A 
ATOM     17 CL   UNL     1       6.993   2.281  -8.388  0.00  0.00    +0.000 Cl
ATOM     18 CL   UNL     1       5.213   2.701  -5.746  0.00  0.00    +0.000 Cl
ENDBRANCH  10  11
ENDBRANCH   1  10
TORSDOF 3
