REMARK  Name = *****
REMARK  3 active torsions:
REMARK  status: ('A' for Active; 'I' for Inactive)
REMARK    1  A    between atoms: C_1  and  C_2
REMARK    2  A    between atoms: C_5  and  C_8
REMARK    3  A    between atoms: N_9  and  C_10
REMARK                            x       y       z     vdW  Elec       q    Type
REMARK                         _______ _______ _______ _____ _____    ______ ____
ROOT
ATOM      1  C   UNL     1      -3.299   0.245  -0.353  0.00  0.00    +0.000 C 
ATOM      2  N   UNL     1      -4.012   1.064   0.354  0.00  0.00    +0.000 NA
ENDROOT
BRANCH   2   3
ATOM      3  C   UNL     1      -5.404   1.057   0.148  0.00  0.00    +0.000 A 
ATOM      4  C   UNL     1      -6.003   1.251  -1.109  0.00  0.00    +0.000 A 
ATOM      5  C   UNL     1      -7.386   1.269  -1.260  0.00  0.00    +0.000 A 
ATOM      6  C   UNL     1      -8.184   1.101  -0.138  0.00  0.00    +0.000 A 
ATOM      7  C   UNL     1      -7.624   0.920   1.122  0.00  0.00    +0.000 A 
ATOM      8  C   UNL     1      -6.234   0.904   1.263  0.00  0.00    +0.000 A 
ATOM      9  F   UNL     1      -9.517   1.116  -0.270  0.00  0.00    +0.000 F 
ATOM     10  F   UNL     1      -5.240   1.416  -2.201  0.00  0.00    +0.000 F 
ENDBRANCH   2   3
BRANCH   1  15
ATOM     11  C   UNL     1       2.450  -0.087   0.112  0.00  0.00    +0.000 C 
ATOM     12  C   UNL     1       0.960   0.022  -0.027  0.00  0.00    +0.000 A 
ATOM     13  C   UNL     1       0.243   0.938   0.755  0.00  0.00    +0.000 A 
ATOM     14  C   UNL     1      -1.147   1.021   0.653  0.00  0.00    +0.000 A 
ATOM     15  C   UNL     1      -1.830   0.178  -0.227  0.00  0.00    +0.000 A 
ATOM     16  C   UNL     1      -1.128  -0.748  -1.001  0.00  0.00    +0.000 A 
ATOM     17  C   UNL     1       0.263  -0.828  -0.895  0.00  0.00    +0.000 A 
ENDBRANCH   1  15
TORSDOF 2
