REMARK  Name = *****
REMARK  1 active torsions:
REMARK  status: ('A' for Active; 'I' for Inactive)
REMARK    1  A    between atoms: C_4  and  C_7
REMARK                            x       y       z     vdW  Elec       q    Type
REMARK                         _______ _______ _______ _____ _____    ______ ____
ROOT
ATOM      1  C   UNL     1      -0.895  -0.845  -0.349  0.00  0.00    +0.000 A 
ATOM      2  C   UNL     1      -0.126  -1.677   0.377  0.00  0.00    +0.000 A 
ATOM      3  C   UNL     1      -0.451  -3.073   0.678  0.00  0.00    +0.000 A 
ATOM      4  C   UNL     1       0.532  -3.886   1.264  0.00  0.00    +0.000 A 
ATOM      5  C   UNL     1       0.262  -5.219   1.579  0.00  0.00    +0.000 A 
ATOM      6  C   UNL     1      -0.996  -5.751   1.317  0.00  0.00    +0.000 A 
ATOM      7  C   UNL     1      -1.981  -4.949   0.741  0.00  0.00    +0.000 A 
ATOM      8  C   UNL     1      -1.716  -3.611   0.416  0.00  0.00    +0.000 A 
ATOM      9  S   UNL     1      -3.027  -2.651  -0.296  0.00  0.00    +0.000 S 
ATOM     10  C   UNL     1      -2.200  -1.255  -0.957  0.00  0.00    +0.000 A 
ATOM     11  O   UNL     1      -2.722  -0.613  -1.861  0.00  0.00    +0.000 OA
ENDROOT
BRANCH   1  15
ATOM     12  C   UNL     1       0.648   3.089  -1.048  0.00  0.00    +0.000 A 
ATOM     13  C   UNL     1       0.521   2.191  -2.106  0.00  0.00    +0.000 A 
ATOM     14  C   UNL     1       0.013   0.910  -1.881  0.00  0.00    +0.000 A 
ATOM     15  C   UNL     1      -0.373   0.516  -0.592  0.00  0.00    +0.000 A 
ATOM     16  C   UNL     1      -0.244   1.429   0.466  0.00  0.00    +0.000 A 
ATOM     17  C   UNL     1       0.265   2.709   0.237  0.00  0.00    +0.000 A 
ENDBRANCH   1  15
TORSDOF 1
