REMARK  Name = *****
REMARK  5 active torsions:
REMARK  status: ('A' for Active; 'I' for Inactive)
REMARK    1  A    between atoms: C_1  and  C_2
REMARK    2  A    between atoms: C_2  and  O_4
REMARK    3  A    between atoms: O_4  and  C_5
REMARK    4  A    between atoms: C_8  and  C_11
REMARK    5  A    between atoms: C_12  and  C_13
REMARK                            x       y       z     vdW  Elec       q    Type
REMARK                         _______ _______ _______ _____ _____    ______ ____
ROOT
ATOM      1  C   UNL     1       4.594   0.787  -0.989  0.00  0.00    +0.000 A 
ATOM      2  C   UNL     1       5.286  -0.381  -1.302  0.00  0.00    +0.000 A 
ATOM      3  C   UNL     1       6.682  -0.382  -1.256  0.00  0.00    +0.000 A 
ATOM      4  C   UNL     1       7.388   0.785  -0.929  0.00  0.00    +0.000 A 
ATOM      5  C   UNL     1       6.669   1.951  -0.624  0.00  0.00    +0.000 A 
ATOM      6  C   UNL     1       5.273   1.958  -0.666  0.00  0.00    +0.000 A 
ENDROOT
BRANCH   4   7
ATOM      7  C   UNL     1       8.855   0.814  -0.842  0.00  0.00    +0.000 C 
ATOM      8  C   UNL     1       9.664   0.172  -1.701  0.00  0.00    +0.000 C 
BRANCH   8   9
ATOM      9  C   UNL     1      11.131   0.214  -1.627  0.00  0.00    +0.000 A 
ATOM     10  C   UNL     1      11.820   0.173  -0.407  0.00  0.00    +0.000 A 
ATOM     11  C   UNL     1      13.218   0.183  -0.379  0.00  0.00    +0.000 A 
ATOM     12  C   UNL     1      13.935   0.223  -1.572  0.00  0.00    +0.000 A 
ATOM     13  C   UNL     1      13.266   0.247  -2.793  0.00  0.00    +0.000 A 
ATOM     14  C   UNL     1      11.868   0.237  -2.820  0.00  0.00    +0.000 A 
ATOM     15 CL   UNL     1      15.654   0.234  -1.538  0.00  0.00    +0.000 Cl
ENDBRANCH   8   9
ENDBRANCH   4   7
BRANCH   1  16
ATOM     16  O   UNL     1       3.199   0.849  -1.079  0.00  0.00    +0.000 OA
BRANCH  16  18
ATOM     17  C   UNL     1       1.033   0.200  -0.442  0.00  0.00    +0.000 C 
ATOM     18  C   UNL     1       2.503   0.020  -0.205  0.00  0.00    +0.000 C 
ATOM     19  O   UNL     1       2.978  -0.732   0.635  0.00  0.00    +0.000 OA
ENDBRANCH  16  18
ENDBRANCH   1  16
TORSDOF 4
