REMARK  Name = *****
REMARK  5 active torsions:
REMARK  status: ('A' for Active; 'I' for Inactive)
REMARK    1  A    between atoms: C_4  and  C_7
REMARK    2  A    between atoms: C_7  and  S_8
REMARK    3  A    between atoms: S_8  and  C_9
REMARK    4  A    between atoms: C_9  and  S_10
REMARK    5  A    between atoms: S_10  and  C_11
REMARK                            x       y       z     vdW  Elec       q    Type
REMARK                         _______ _______ _______ _____ _____    ______ ____
ROOT
ATOM      1  S   UNL     1      -3.729  -1.215  -0.367  0.00  0.00    +0.000 S 
ENDROOT
BRANCH   1   2
ATOM      2  C   UNL     1      -2.811   0.356  -0.419  0.00  0.00    +0.000 C 
BRANCH   2   6
ATOM      3  C   UNL     1       1.300  -0.202   0.766  0.00  0.00    +0.000 A 
ATOM      4  C   UNL     1       0.936  -0.327  -0.574  0.00  0.00    +0.000 A 
ATOM      5  C   UNL     1      -0.394  -0.147  -0.957  0.00  0.00    +0.000 A 
ATOM      6  C   UNL     1      -1.373   0.168  -0.004  0.00  0.00    +0.000 A 
ATOM      7  C   UNL     1      -0.997   0.281   1.343  0.00  0.00    +0.000 A 
ATOM      8  C   UNL     1       0.334   0.100   1.724  0.00  0.00    +0.000 A 
ENDBRANCH   2   6
ENDBRANCH   1   2
BRANCH   1   9
ATOM      9  C   UNL     1      -5.374  -0.602  -0.821  0.00  0.00    +0.000 C 
BRANCH   9  10
ATOM     10  S   UNL     1      -5.482  -0.214  -2.592  0.00  0.00    +0.000 S 
BRANCH  10  11
ATOM     11  C   UNL     1      -7.119   0.490  -2.644  0.00  0.00    +0.000 A 
ATOM     12  C   UNL     1      -7.280   1.807  -3.085  0.00  0.00    +0.000 A 
ATOM     13  C   UNL     1      -8.552   2.382  -3.140  0.00  0.00    +0.000 A 
ATOM     14  C   UNL     1      -9.670   1.639  -2.762  0.00  0.00    +0.000 A 
ATOM     15  C   UNL     1      -9.517   0.321  -2.337  0.00  0.00    +0.000 A 
ATOM     16  C   UNL     1      -8.246  -0.254  -2.282  0.00  0.00    +0.000 A 
ENDBRANCH  10  11
ENDBRANCH   9  10
ENDBRANCH   1   9
TORSDOF 5
