REMARK  Name = *****
REMARK  5 active torsions:
REMARK  status: ('A' for Active; 'I' for Inactive)
REMARK    1  A    between atoms: C_4  and  C_7
REMARK    2  A    between atoms: C_7  and  C_8
REMARK    3  A    between atoms: C_7  and  N_17
REMARK    4  A    between atoms: C_8  and  C_9
REMARK    5  A    between atoms: C_8  and  N_15
REMARK                            x       y       z     vdW  Elec       q    Type
REMARK                         _______ _______ _______ _____ _____    ______ ____
ROOT
ATOM      1  C   UNL     1      -2.824   0.429  -0.365  0.00  0.00    +0.000 C 
ENDROOT
BRANCH   1   5
ATOM      2  C   UNL     1       1.390  -0.419   0.242  0.00  0.00    +0.000 A 
ATOM      3  C   UNL     1       0.590  -0.014   1.307  0.00  0.00    +0.000 A 
ATOM      4  C   UNL     1      -0.764   0.258   1.102  0.00  0.00    +0.000 A 
ATOM      5  C   UNL     1      -1.337   0.134  -0.176  0.00  0.00    +0.000 A 
ATOM      6  C   UNL     1      -0.518  -0.290  -1.237  0.00  0.00    +0.000 A 
ATOM      7  C   UNL     1       0.837  -0.558  -1.028  0.00  0.00    +0.000 A 
ENDBRANCH   1   5
BRANCH   1   8
ATOM      8  N   UNL     1      -3.542  -0.894  -0.537  0.00  0.00    +0.000 NA
ATOM      9  O   UNL     1      -4.340  -1.116   0.381  0.00  0.00    +0.000 OA
ENDBRANCH   1   8
BRANCH   1  10
ATOM     10  C   UNL     1      -3.167   1.369  -1.558  0.00  0.00    +0.000 C 
BRANCH  10  11
ATOM     11  C   UNL     1      -4.657   1.690  -1.671  0.00  0.00    +0.000 A 
ATOM     12  C   UNL     1      -5.340   2.401  -0.668  0.00  0.00    +0.000 A 
ATOM     13  C   UNL     1      -6.705   2.669  -0.789  0.00  0.00    +0.000 A 
ATOM     14  C   UNL     1      -7.407   2.230  -1.909  0.00  0.00    +0.000 A 
ATOM     15  C   UNL     1      -6.746   1.526  -2.911  0.00  0.00    +0.000 A 
ATOM     16  C   UNL     1      -5.380   1.257  -2.796  0.00  0.00    +0.000 A 
ENDBRANCH  10  11
BRANCH  10  17
ATOM     17  N   UNL     1      -2.401   2.670  -1.433  0.00  0.00    +0.000 NA
ATOM     18  O   UNL     1      -1.652   2.868  -2.398  0.00  0.00    +0.000 OA
ENDBRANCH  10  17
ENDBRANCH   1  10
TORSDOF 5
