REMARK  Name = *****
REMARK  3 active torsions:
REMARK  status: ('A' for Active; 'I' for Inactive)
REMARK    1  A    between atoms: C_4  and  C_7
REMARK    2  A    between atoms: C_7  and  O_9
REMARK    3  A    between atoms: O_9  and  C_10
REMARK                            x       y       z     vdW  Elec       q    Type
REMARK                         _______ _______ _______ _____ _____    ______ ____
ROOT
ATOM      1  C   UNL     1      -2.699   0.177   0.542  0.00  0.00    +0.000 C 
ATOM      2  O   UNL     1      -3.334   1.205   0.360  0.00  0.00    +0.000 OA
ENDROOT
BRANCH   1   6
ATOM      3  C   UNL     1       1.386  -0.193  -0.717  0.00  0.00    +0.000 A 
ATOM      4  C   UNL     1       0.746  -1.297  -0.154  0.00  0.00    +0.000 A 
ATOM      5  C   UNL     1      -0.584  -1.199   0.263  0.00  0.00    +0.000 A 
ATOM      6  C   UNL     1      -1.280   0.010   0.119  0.00  0.00    +0.000 A 
ATOM      7  C   UNL     1      -0.629   1.113  -0.451  0.00  0.00    +0.000 A 
ATOM      8  C   UNL     1       0.700   1.011  -0.867  0.00  0.00    +0.000 A 
ENDBRANCH   1   6
BRANCH   1   9
ATOM      9  O   UNL     1      -3.138  -0.973   1.169  0.00  0.00    +0.000 OA
BRANCH   9  10
ATOM     10  C   UNL     1      -4.489  -0.907   1.518  0.00  0.00    +0.000 A 
ATOM     11  C   UNL     1      -4.821  -0.451   2.796  0.00  0.00    +0.000 A 
ATOM     12  C   UNL     1      -6.160  -0.412   3.181  0.00  0.00    +0.000 A 
ATOM     13  C   UNL     1      -7.156  -0.839   2.299  0.00  0.00    +0.000 A 
ATOM     14  C   UNL     1      -6.815  -1.313   1.029  0.00  0.00    +0.000 A 
ATOM     15  C   UNL     1      -5.477  -1.354   0.636  0.00  0.00    +0.000 A 
ATOM     16 CL   UNL     1      -5.079  -1.973  -0.923  0.00  0.00    +0.000 Cl
ENDBRANCH   9  10
ENDBRANCH   1   9
TORSDOF 3
