REMARK  Name = *****
REMARK  3 active torsions:
REMARK  status: ('A' for Active; 'I' for Inactive)
REMARK    1  A    between atoms: C_4  and  C_7
REMARK    2  A    between atoms: C_7  and  O_9
REMARK    3  A    between atoms: O_9  and  C_10
REMARK                            x       y       z     vdW  Elec       q    Type
REMARK                         _______ _______ _______ _____ _____    ______ ____
ROOT
ATOM      1  C   UNL     1      -2.842   0.637  -0.123  0.00  0.00    +0.000 C 
ATOM      2  S   UNL     1      -3.617   1.855   0.714  0.00  0.00    +0.000 S 
ENDROOT
BRANCH   1   6
ATOM      3  C   UNL     1       1.328  -0.379  -0.013  0.00  0.00    +0.000 A 
ATOM      4  C   UNL     1       0.724   0.196   1.103  0.00  0.00    +0.000 A 
ATOM      5  C   UNL     1      -0.633   0.527   1.073  0.00  0.00    +0.000 A 
ATOM      6  C   UNL     1      -1.398   0.284  -0.078  0.00  0.00    +0.000 A 
ATOM      7  C   UNL     1      -0.778  -0.294  -1.197  0.00  0.00    +0.000 A 
ATOM      8  C   UNL     1       0.579  -0.625  -1.162  0.00  0.00    +0.000 A 
ENDBRANCH   1   6
BRANCH   1   9
ATOM      9  O   UNL     1      -3.496  -0.264  -0.970  0.00  0.00    +0.000 OA
BRANCH   9  10
ATOM     10  C   UNL     1      -4.871  -0.191  -1.281  0.00  0.00    +0.000 A 
ATOM     11  C   UNL     1      -5.295   0.647  -2.311  0.00  0.00    +0.000 A 
ATOM     12  C   UNL     1      -6.650   0.676  -2.641  0.00  0.00    +0.000 A 
ATOM     13  C   UNL     1      -7.550  -0.140  -1.951  0.00  0.00    +0.000 A 
ATOM     14  C   UNL     1      -7.108  -0.991  -0.935  0.00  0.00    +0.000 A 
ATOM     15  C   UNL     1      -5.755  -1.024  -0.599  0.00  0.00    +0.000 A 
ATOM     16 CL   UNL     1      -9.220  -0.104  -2.365  0.00  0.00    +0.000 Cl
ENDBRANCH   9  10
ENDBRANCH   1   9
TORSDOF 3
