REMARK  Name = *****
REMARK  4 active torsions:
REMARK  status: ('A' for Active; 'I' for Inactive)
REMARK    1  A    between atoms: C_1  and  N_2
REMARK    2  A    between atoms: N_2  and  C_3
REMARK    3  A    between atoms: N_2  and  C_10
REMARK    4  A    between atoms: C_3  and  C_4
REMARK                            x       y       z     vdW  Elec       q    Type
REMARK                         _______ _______ _______ _____ _____    ______ ____
ROOT
ATOM      1  C   UNL     1       1.030  -0.017   0.002  0.00  0.00    +0.000 C 
ATOM      2  N   UNL     1       2.477   0.166  -0.018  0.00  0.00    +0.000 N 
ENDROOT
BRANCH   2   3
ATOM      3  C   UNL     1       3.178   0.349   1.176  0.00  0.00    +0.000 A 
ATOM      4  C   UNL     1       2.552   0.295   2.434  0.00  0.00    +0.000 A 
ATOM      5  C   UNL     1       3.259   0.492   3.629  0.00  0.00    +0.000 A 
ATOM      6  C   UNL     1       4.621   0.761   3.598  0.00  0.00    +0.000 A 
ATOM      7  C   UNL     1       5.270   0.838   2.374  0.00  0.00    +0.000 A 
ATOM      8  C   UNL     1       4.555   0.638   1.186  0.00  0.00    +0.000 A 
ENDBRANCH   2   3
BRANCH   2   9
ATOM      9  C   UNL     1       3.175  -0.393  -1.188  0.00  0.00    +0.000 C 
BRANCH   9  10
ATOM     10  C   UNL     1       3.715   0.663  -2.134  0.00  0.00    +0.000 A 
ATOM     11  C   UNL     1       4.752   0.319  -3.018  0.00  0.00    +0.000 A 
ATOM     12  C   UNL     1       5.257   1.251  -3.927  0.00  0.00    +0.000 A 
ATOM     13  C   UNL     1       4.726   2.538  -3.973  0.00  0.00    +0.000 A 
ATOM     14  C   UNL     1       3.689   2.891  -3.112  0.00  0.00    +0.000 A 
ATOM     15  C   UNL     1       3.184   1.959  -2.203  0.00  0.00    +0.000 A 
ENDBRANCH   9  10
ENDBRANCH   2   9
TORSDOF 3
