REMARK  Name = *****
REMARK  5 active torsions:
REMARK  status: ('A' for Active; 'I' for Inactive)
REMARK    1  A    between atoms: C_1  and  C_2
REMARK    2  A    between atoms: C_2  and  C_3
REMARK    3  A    between atoms: C_2  and  N_9
REMARK    4  A    between atoms: N_9  and  C_10
REMARK    5  A    between atoms: C_10  and  C_12
REMARK                            x       y       z     vdW  Elec       q    Type
REMARK                         _______ _______ _______ _____ _____    ______ ____
ROOT
ATOM      1  N   UNL     1       3.286  -0.156  -1.256  0.00  0.00    +0.000 N 
ATOM      2  H   UNL     1       2.752  -0.607  -1.949  0.00  0.00    +0.000 HD
ENDROOT
BRANCH   1   4
ATOM      3  C   UNL     1       3.266  -1.277   0.945  0.00  0.00    +0.000 C 
ATOM      4  C   UNL     1       2.710  -0.134   0.090  0.00  0.00    +0.000 C 
BRANCH   4   5
ATOM      5  C   UNL     1       1.194  -0.163  -0.023  0.00  0.00    +0.000 A 
ATOM      6  C   UNL     1       0.488  -1.341  -0.317  0.00  0.00    +0.000 A 
ATOM      7  C   UNL     1      -0.903  -1.326  -0.442  0.00  0.00    +0.000 A 
ATOM      8  C   UNL     1      -1.607  -0.134  -0.284  0.00  0.00    +0.000 A 
ATOM      9  C   UNL     1      -0.921   1.045  -0.007  0.00  0.00    +0.000 A 
ATOM     10  C   UNL     1       0.470   1.033   0.117  0.00  0.00    +0.000 A 
ENDBRANCH   4   5
ENDBRANCH   1   4
BRANCH   1  11
ATOM     11  C   UNL     1       4.493   0.382  -1.669  0.00  0.00    +0.000 C 
ATOM     12  S   UNL     1       5.553   1.246  -0.695  0.00  0.00    +0.000 S 
BRANCH  11  13
ATOM     13  C   UNL     1       4.780   0.137  -3.111  0.00  0.00    +0.000 A 
ATOM     14  C   UNL     1       3.829   0.509  -4.071  0.00  0.00    +0.000 A 
ATOM     15  C   UNL     1       4.075   0.267  -5.424  0.00  0.00    +0.000 A 
ATOM     16  C   UNL     1       5.265  -0.345  -5.818  0.00  0.00    +0.000 A 
ATOM     17  C   UNL     1       6.213  -0.716  -4.863  0.00  0.00    +0.000 A 
ATOM     18  C   UNL     1       5.973  -0.477  -3.509  0.00  0.00    +0.000 A 
ENDBRANCH  11  13
ENDBRANCH   1  11
TORSDOF 4
