REMARK  Name = *****
REMARK  2 active torsions:
REMARK  status: ('A' for Active; 'I' for Inactive)
REMARK    1  A    between atoms: C_4  and  C_7
REMARK    2  A    between atoms: C_7  and  C_8
REMARK                            x       y       z     vdW  Elec       q    Type
REMARK                         _______ _______ _______ _____ _____    ______ ____
ROOT
ATOM      1  C   UNL     1       2.661  -0.717  -0.402  0.00  0.00    +0.000 C 
ENDROOT
BRANCH   1   5
ATOM      2  C   UNL     1      -1.363   1.039  -0.406  0.00  0.00    +0.000 C 
ATOM      3  C   UNL     1      -1.190  -0.333   0.235  0.00  0.00    +0.000 C 
ATOM      4  C   UNL     1       0.122  -0.995  -0.183  0.00  0.00    +0.000 C 
ATOM      5  C   UNL     1       1.337  -0.097   0.100  0.00  0.00    +0.000 C 
ATOM      6  C   UNL     1       1.142   1.288  -0.544  0.00  0.00    +0.000 C 
ATOM      7  C   UNL     1      -0.169   1.941  -0.115  0.00  0.00    +0.000 C 
ENDBRANCH   1   5
BRANCH   1   8
ATOM      8  C   UNL     1       3.018  -2.094   0.191  0.00  0.00    +0.000 C 
ATOM      9  C   UNL     1       3.125  -2.139   1.720  0.00  0.00    +0.000 C 
ATOM     10  C   UNL     1       4.256  -1.294   2.303  0.00  0.00    +0.000 C 
ATOM     11  C   UNL     1       5.631  -1.734   1.808  0.00  0.00    +0.000 C 
ATOM     12  C   UNL     1       5.781  -1.662   0.295  0.00  0.00    +0.000 C 
ATOM     13  S   UNL     1       4.573  -2.713  -0.566  0.00  0.00    +0.000 S 
ENDBRANCH   1   8
TORSDOF 2
