REMARK  Name = *****
REMARK  6 active torsions:
REMARK  status: ('A' for Active; 'I' for Inactive)
REMARK    1  A    between atoms: C_1  and  C_2
REMARK    2  A    between atoms: C_4  and  C_18
REMARK    3  A    between atoms: C_5  and  S_9
REMARK    4  A    between atoms: C_6  and  C_8
REMARK    5  A    between atoms: S_9  and  C_11
REMARK    6  A    between atoms: C_11  and  C_12
REMARK                            x       y       z     vdW  Elec       q    Type
REMARK                         _______ _______ _______ _____ _____    ______ ____
ROOT
ATOM      1  C   UNL     1       2.343   1.594  -0.314  0.00  0.00    +0.000 C 
ATOM      2  C   UNL     1       1.071   0.813  -0.166  0.00  0.00    +0.000 A 
ATOM      3  C   UNL     1       1.078  -0.579  -0.254  0.00  0.00    +0.000 A 
ATOM      4  C   UNL     1      -0.100  -1.325  -0.075  0.00  0.00    +0.000 A 
ATOM      5  C   UNL     1      -1.319  -0.657   0.201  0.00  0.00    +0.000 A 
ATOM      6  C   UNL     1      -1.331   0.753   0.307  0.00  0.00    +0.000 A 
ATOM      7  C   UNL     1      -0.128   1.464   0.132  0.00  0.00    +0.000 A 
ATOM      8  C   UNL     1      -2.562   1.554   0.644  0.00  0.00    +0.000 C 
ATOM      9  C   UNL     1      -0.007  -2.827  -0.174  0.00  0.00    +0.000 C 
ENDROOT
BRANCH   5  10
ATOM     10  S   UNL     1      -2.826  -1.677   0.397  0.00  0.00    +0.000 S 
ATOM     11  O   UNL     1      -3.764  -0.921   1.291  0.00  0.00    +0.000 OA
BRANCH  10  12
ATOM     12  C   UNL     1      -3.417  -1.520  -1.323  0.00  0.00    +0.000 C 
BRANCH  12  13
ATOM     13  C   UNL     1      -4.543  -2.478  -1.618  0.00  0.00    +0.000 A 
ATOM     14  C   UNL     1      -5.834  -2.228  -1.130  0.00  0.00    +0.000 A 
ATOM     15  C   UNL     1      -6.877  -3.115  -1.397  0.00  0.00    +0.000 A 
ATOM     16  C   UNL     1      -6.641  -4.262  -2.153  0.00  0.00    +0.000 A 
ATOM     17  C   UNL     1      -5.362  -4.523  -2.639  0.00  0.00    +0.000 A 
ATOM     18  C   UNL     1      -4.316  -3.638  -2.373  0.00  0.00    +0.000 A 
ENDBRANCH  12  13
ENDBRANCH  10  12
ENDBRANCH   5  10
TORSDOF 3
