REMARK  Name = *****
REMARK  2 active torsions:
REMARK  status: ('A' for Active; 'I' for Inactive)
REMARK    1  A    between atoms: C_4  and  P_7
REMARK    2  A    between atoms: P_7  and  C_8
REMARK                            x       y       z     vdW  Elec       q    Type
REMARK                         _______ _______ _______ _____ _____    ______ ____
ROOT
ATOM      1  P   UNL     1       3.113  -0.350  -0.705  0.00  0.00    +0.000 P 
ENDROOT
BRANCH   1   5
ATOM      2  C   UNL     1      -1.526   0.261  -0.143  0.00  0.00    +0.000 C 
ATOM      3  C   UNL     1      -0.913  -1.065   0.299  0.00  0.00    +0.000 C 
ATOM      4  C   UNL     1       0.487  -1.261  -0.283  0.00  0.00    +0.000 C 
ATOM      5  C   UNL     1       1.413  -0.081   0.068  0.00  0.00    +0.000 C 
ATOM      6  C   UNL     1       0.788   1.240  -0.407  0.00  0.00    +0.000 C 
ATOM      7  C   UNL     1      -0.610   1.437   0.179  0.00  0.00    +0.000 C 
ENDBRANCH   1   5
BRANCH   1   8
ATOM      8  C   UNL     1       4.201   0.619   0.273  0.00  0.00    +0.000 C 
ATOM      9  C   UNL     1       3.861   1.497   1.478  0.00  0.00    +0.000 C 
ATOM     10  C   UNL     1       4.670   1.029   2.684  0.00  0.00    +0.000 C 
ATOM     11  C   UNL     1       6.170   1.024   2.392  0.00  0.00    +0.000 C 
ATOM     12  C   UNL     1       6.499   0.186   1.157  0.00  0.00    +0.000 C 
ATOM     13  C   UNL     1       5.704   0.644  -0.061  0.00  0.00    +0.000 C 
ENDBRANCH   1   8
TORSDOF 2
