REMARK  Name = *****
REMARK  2 active torsions:
REMARK  status: ('A' for Active; 'I' for Inactive)
REMARK    1  A    between atoms: C_4  and  C_7
REMARK    2  A    between atoms: N_8  and  C_9
REMARK                            x       y       z     vdW  Elec       q    Type
REMARK                         _______ _______ _______ _____ _____    ______ ____
ROOT
ATOM      1  C   UNL     1      -2.816   0.569   0.065  0.00  0.00    +0.000 C 
ATOM      2  N   UNL     1      -3.248   1.791  -0.032  0.00  0.00    +0.000 NA
ATOM      3 CL   UNL     1      -4.058  -0.618   0.309  0.00  0.00    +0.000 Cl
ENDROOT
BRANCH   2   4
ATOM      4  C   UNL     1      -2.351   2.864  -0.178  0.00  0.00    +0.000 A 
ATOM      5  C   UNL     1      -2.164   3.518  -1.410  0.00  0.00    +0.000 A 
ATOM      6  C   UNL     1      -1.290   4.601  -1.519  0.00  0.00    +0.000 A 
ATOM      7  C   UNL     1      -0.614   5.043  -0.390  0.00  0.00    +0.000 A 
ATOM      8  C   UNL     1      -0.800   4.432   0.845  0.00  0.00    +0.000 A 
ATOM      9  C   UNL     1      -1.675   3.350   0.951  0.00  0.00    +0.000 A 
ATOM     10  F   UNL     1       0.226   6.081  -0.489  0.00  0.00    +0.000 F 
ATOM     11 CL   UNL     1      -2.996   2.999  -2.835  0.00  0.00    +0.000 Cl
ENDBRANCH   2   4
BRANCH   1  15
ATOM     12  C   UNL     1       1.241  -0.736  -0.065  0.00  0.00    +0.000 A 
ATOM     13  C   UNL     1       0.500  -0.869   1.111  0.00  0.00    +0.000 A 
ATOM     14  C   UNL     1      -0.827  -0.442   1.152  0.00  0.00    +0.000 A 
ATOM     15  C   UNL     1      -1.404   0.125   0.011  0.00  0.00    +0.000 A 
ATOM     16  C   UNL     1      -0.671   0.246  -1.172  0.00  0.00    +0.000 A 
ATOM     17  C   UNL     1       0.656  -0.182  -1.206  0.00  0.00    +0.000 A 
ENDBRANCH   1  15
TORSDOF 2
