REMARK  Name = *****
REMARK  5 active torsions:
REMARK  status: ('A' for Active; 'I' for Inactive)
REMARK    1  A    between atoms: C_1  and  C_2
REMARK    2  A    between atoms: C_4  and  C_8
REMARK    3  A    between atoms: C_8  and  N_9
REMARK    4  A    between atoms: N_9  and  S_10
REMARK    5  A    between atoms: S_10  and  C_11
REMARK                            x       y       z     vdW  Elec       q    Type
REMARK                         _______ _______ _______ _____ _____    ______ ____
ROOT
ATOM      1  C   UNL     1      -1.791   2.623  -0.023  0.00  0.00    +0.000 C 
ENDROOT
BRANCH   1   5
ATOM      2  C   UNL     1       2.510   0.035  -0.046  0.00  0.00    +0.000 C 
ATOM      3  C   UNL     1       1.012   0.077   0.012  0.00  0.00    +0.000 A 
ATOM      4  C   UNL     1       0.336   1.304  -0.019  0.00  0.00    +0.000 A 
ATOM      5  C   UNL     1      -1.063   1.338   0.000  0.00  0.00    +0.000 A 
ATOM      6  C   UNL     1      -1.796   0.149   0.038  0.00  0.00    +0.000 A 
ATOM      7  C   UNL     1      -1.127  -1.074   0.054  0.00  0.00    +0.000 A 
ATOM      8  C   UNL     1       0.269  -1.110   0.035  0.00  0.00    +0.000 A 
ENDBRANCH   1   5
BRANCH   1   9
ATOM      9  N   UNL     1      -1.169   3.756  -0.038  0.00  0.00    +0.000 NA
BRANCH   9  10
ATOM     10  S   UNL     1      -2.168   5.099  -0.065  0.00  0.00    +0.000 S 
BRANCH  10  11
ATOM     11  C   UNL     1      -0.947   6.406  -0.089  0.00  0.00    +0.000 A 
ATOM     12  C   UNL     1      -1.239   7.591  -0.776  0.00  0.00    +0.000 A 
ATOM     13  C   UNL     1      -0.317   8.641  -0.800  0.00  0.00    +0.000 A 
ATOM     14  C   UNL     1       0.900   8.517  -0.135  0.00  0.00    +0.000 A 
ATOM     15  C   UNL     1       1.197   7.344   0.557  0.00  0.00    +0.000 A 
ATOM     16  C   UNL     1       0.276   6.294   0.582  0.00  0.00    +0.000 A 
ENDBRANCH  10  11
ENDBRANCH   9  10
ENDBRANCH   1   9
TORSDOF 4
