REMARK  Name = *****
REMARK  2 active torsions:
REMARK  status: ('A' for Active; 'I' for Inactive)
REMARK    1  A    between atoms: C_5  and  C_9
REMARK    2  A    between atoms: C_10  and  C_11
REMARK                            x       y       z     vdW  Elec       q    Type
REMARK                         _______ _______ _______ _____ _____    ______ ____
ROOT
ATOM      1  C   UNL     1      -1.757  -0.140   0.612  0.00  0.00    +0.000 C 
ATOM      2  C   UNL     1      -1.024   1.191   0.408  0.00  0.00    +0.000 C 
ATOM      3  C   UNL     1       0.447   1.117  -0.011  0.00  0.00    +0.000 C 
ATOM      4  C   UNL     1       1.139  -0.103   0.507  0.00  0.00    +0.000 C 
ATOM      5  C   UNL     1       0.749  -1.461  -0.034  0.00  0.00    +0.000 C 
ATOM      6  O   UNL     1       1.950  -0.792  -0.450  0.00  0.00    +0.000 OA
ATOM      7  C   UNL     1      -0.325  -1.521  -1.083  0.00  0.00    +0.000 C 
ATOM      8  C   UNL     1      -1.710  -1.150  -0.540  0.00  0.00    +0.000 C 
ENDROOT
BRANCH   5   9
ATOM      9  C   UNL     1       0.990  -2.620   0.771  0.00  0.00    +0.000 C 
ATOM     10  C   UNL     1       1.183  -3.593   1.449  0.00  0.00    +0.000 C 
BRANCH  10  11
ATOM     11  C   UNL     1       1.413  -4.750   2.258  0.00  0.00    +0.000 A 
ATOM     12  C   UNL     1       2.559  -4.831   3.052  0.00  0.00    +0.000 A 
ATOM     13  C   UNL     1       2.783  -5.960   3.842  0.00  0.00    +0.000 A 
ATOM     14  C   UNL     1       1.863  -7.008   3.838  0.00  0.00    +0.000 A 
ATOM     15  C   UNL     1       0.719  -6.929   3.045  0.00  0.00    +0.000 A 
ATOM     16  C   UNL     1       0.493  -5.801   2.255  0.00  0.00    +0.000 A 
ENDBRANCH  10  11
ENDBRANCH   5   9
TORSDOF 2
