REMARK  Name = *****
REMARK  4 active torsions:
REMARK  status: ('A' for Active; 'I' for Inactive)
REMARK    1  A    between atoms: C_1  and  O_2
REMARK    2  A    between atoms: O_2  and  C_3
REMARK    3  A    between atoms: C_6  and  C_9
REMARK    4  A    between atoms: C_10  and  C_11
REMARK                            x       y       z     vdW  Elec       q    Type
REMARK                         _______ _______ _______ _____ _____    ______ ____
ROOT
ATOM      1  C   UNL     1       2.939  -1.071  -0.657  0.00  0.00    +0.000 A 
ATOM      2  C   UNL     1       2.549  -1.341  -1.968  0.00  0.00    +0.000 A 
ATOM      3  C   UNL     1       3.302  -2.216  -2.762  0.00  0.00    +0.000 A 
ATOM      4  C   UNL     1       4.460  -2.823  -2.261  0.00  0.00    +0.000 A 
ATOM      5  C   UNL     1       4.837  -2.559  -0.940  0.00  0.00    +0.000 A 
ATOM      6  C   UNL     1       4.085  -1.685  -0.149  0.00  0.00    +0.000 A 
ENDROOT
BRANCH   1   8
ATOM      7  C   UNL     1       1.119   0.402  -0.249  0.00  0.00    +0.000 C 
ATOM      8  O   UNL     1       2.296  -0.243   0.221  0.00  0.00    +0.000 OA
ENDBRANCH   1   8
BRANCH   4   9
ATOM      9  C   UNL     1       5.255  -3.773  -3.051  0.00  0.00    +0.000 C 
ATOM     10  C   UNL     1       5.474  -3.662  -4.372  0.00  0.00    +0.000 C 
BRANCH  10  11
ATOM     11  C   UNL     1       6.295  -4.638  -5.166  0.00  0.00    +0.000 C 
ATOM     12  C   UNL     1       7.429  -3.961  -5.891  0.00  0.00    +0.000 C 
ATOM     13  C   UNL     1       7.302  -4.145  -7.216  0.00  0.00    +0.000 C 
ATOM     14  C   UNL     1       6.119  -4.925  -7.478  0.00  0.00    +0.000 C 
ATOM     15  C   UNL     1       5.516  -5.223  -6.317  0.00  0.00    +0.000 C 
ENDBRANCH  10  11
ENDBRANCH   4   9
TORSDOF 3
