REMARK  Name = *****
REMARK  3 active torsions:
REMARK  status: ('A' for Active; 'I' for Inactive)
REMARK    1  A    between atoms: C_6  and  C_7
REMARK    2  A    between atoms: C_7  and  C_8
REMARK    3  A    between atoms: C_8  and  C_9
REMARK                            x       y       z     vdW  Elec       q    Type
REMARK                         _______ _______ _______ _____ _____    ______ ____
ROOT
ATOM      1  C   UNL     1      -3.993   1.511   0.107  0.00  0.00    +0.000 C 
ATOM      2  F   UNL     1      -3.603   2.342   1.124  0.00  0.00    +0.000 F 
ENDROOT
BRANCH   1   3
ATOM      3  C   UNL     1      -5.498   1.525  -0.077  0.00  0.00    +0.000 A 
ATOM      4  C   UNL     1      -6.336   1.974   0.956  0.00  0.00    +0.000 A 
ATOM      5  C   UNL     1      -7.722   1.978   0.793  0.00  0.00    +0.000 A 
ATOM      6  C   UNL     1      -8.271   1.532  -0.403  0.00  0.00    +0.000 A 
ATOM      7  C   UNL     1      -7.462   1.083  -1.439  0.00  0.00    +0.000 A 
ATOM      8  C   UNL     1      -6.075   1.079  -1.278  0.00  0.00    +0.000 A 
ATOM      9  F   UNL     1      -9.602   1.535  -0.559  0.00  0.00    +0.000 F 
ENDBRANCH   1   3
BRANCH   1  10
ATOM     10  C   UNL     1      -3.485   0.098   0.425  0.00  0.00    +0.000 C 
BRANCH  10  16
ATOM     11  C   UNL     1      -1.379  -0.551  -0.823  0.00  0.00    +0.000 A 
ATOM     12  C   UNL     1       0.011  -0.633  -0.918  0.00  0.00    +0.000 A 
ATOM     13  C   UNL     1       0.799  -0.171   0.130  0.00  0.00    +0.000 A 
ATOM     14  C   UNL     1       0.224   0.374   1.270  0.00  0.00    +0.000 A 
ATOM     15  C   UNL     1      -1.165   0.458   1.367  0.00  0.00    +0.000 A 
ATOM     16  C   UNL     1      -1.979  -0.007   0.323  0.00  0.00    +0.000 A 
ATOM     17  F   UNL     1       2.133  -0.251   0.036  0.00  0.00    +0.000 F 
ENDBRANCH  10  16
ENDBRANCH   1  10
TORSDOF 3
