REMARK  Name = *****
REMARK  4 active torsions:
REMARK  status: ('A' for Active; 'I' for Inactive)
REMARK    1  A    between atoms: C_1  and  C_2
REMARK    2  A    between atoms: C_7  and  S_8
REMARK    3  A    between atoms: S_8  and  N_9
REMARK    4  A    between atoms: N_9  and  C_10
REMARK                            x       y       z     vdW  Elec       q    Type
REMARK                         _______ _______ _______ _____ _____    ______ ____
ROOT
ATOM      1  N   UNL     1       2.335  -2.291  -1.420  0.00  0.00    +0.000 N 
ATOM      2  H   UNL     1       1.869  -1.792  -2.129  0.00  0.00    +0.000 HD
ENDROOT
BRANCH   1   3
ATOM      3  C   UNL     1       3.612  -2.824  -1.703  0.00  0.00    +0.000 A 
ATOM      4  C   UNL     1       4.534  -3.202  -0.715  0.00  0.00    +0.000 A 
ATOM      5  C   UNL     1       5.814  -3.658  -1.054  0.00  0.00    +0.000 A 
ATOM      6  C   UNL     1       6.195  -3.719  -2.390  0.00  0.00    +0.000 A 
ATOM      7  C   UNL     1       5.313  -3.320  -3.388  0.00  0.00    +0.000 A 
ATOM      8  C   UNL     1       4.036  -2.865  -3.042  0.00  0.00    +0.000 A 
ATOM      9 CL   UNL     1       7.768  -4.274  -2.808  0.00  0.00    +0.000 Cl
ENDBRANCH   1   3
BRANCH   1  10
ATOM     10  S   UNL     1       1.579  -2.464   0.053  0.00  0.00    +0.000 S 
BRANCH  10  17
ATOM     11  C   UNL     1       2.397   0.621   0.294  0.00  0.00    +0.000 C 
ATOM     12  C   UNL     1       0.945   0.284   0.091  0.00  0.00    +0.000 A 
ATOM     13  C   UNL     1       0.014   1.333  -0.005  0.00  0.00    +0.000 A 
ATOM     14  C   UNL     1      -1.343   1.073  -0.197  0.00  0.00    +0.000 A 
ATOM     15  C   UNL     1      -1.791  -0.240  -0.300  0.00  0.00    +0.000 A 
ATOM     16  C   UNL     1      -0.880  -1.293  -0.217  0.00  0.00    +0.000 A 
ATOM     17  C   UNL     1       0.488  -1.044  -0.029  0.00  0.00    +0.000 A 
ENDBRANCH  10  17
ENDBRANCH   1  10
TORSDOF 3
