REMARK  Name = *****
REMARK  3 active torsions:
REMARK  status: ('A' for Active; 'I' for Inactive)
REMARK    1  A    between atoms: C_4  and  C_7
REMARK    2  A    between atoms: C_7  and  C_8
REMARK    3  A    between atoms: C_8  and  C_10
REMARK                            x       y       z     vdW  Elec       q    Type
REMARK                         _______ _______ _______ _____ _____    ______ ____
ROOT
ATOM      1  C   UNL     1      -3.204   1.179  -1.414  0.00  0.00    +0.000 C 
ATOM      2  O   UNL     1      -3.514   0.515  -2.405  0.00  0.00    +0.000 OA
ENDROOT
BRANCH   1   3
ATOM      3  C   UNL     1      -3.065   2.658  -1.586  0.00  0.00    +0.000 A 
ATOM      4  C   UNL     1      -2.297   3.453  -0.723  0.00  0.00    +0.000 A 
ATOM      5  C   UNL     1      -2.212   4.833  -0.933  0.00  0.00    +0.000 A 
ATOM      6  C   UNL     1      -2.885   5.413  -2.003  0.00  0.00    +0.000 A 
ATOM      7  C   UNL     1      -3.640   4.639  -2.874  0.00  0.00    +0.000 A 
ATOM      8  C   UNL     1      -3.728   3.261  -2.669  0.00  0.00    +0.000 A 
ATOM      9  F   UNL     1      -2.798   6.735  -2.197  0.00  0.00    +0.000 F 
ENDBRANCH   1   3
BRANCH   1  10
ATOM     10  C   UNL     1      -2.951   0.574  -0.034  0.00  0.00    +0.000 C 
ATOM     11 CL   UNL     1      -4.050  -0.818   0.216  0.00  0.00    +0.000 Cl
BRANCH  10  15
ATOM     12  C   UNL     1       1.130  -0.687   0.648  0.00  0.00    +0.000 A 
ATOM     13  C   UNL     1       0.441   0.024   1.628  0.00  0.00    +0.000 A 
ATOM     14  C   UNL     1      -0.876   0.427   1.403  0.00  0.00    +0.000 A 
ATOM     15  C   UNL     1      -1.520   0.133   0.189  0.00  0.00    +0.000 A 
ATOM     16  C   UNL     1      -0.816  -0.600  -0.781  0.00  0.00    +0.000 A 
ATOM     17  C   UNL     1       0.501  -1.003  -0.553  0.00  0.00    +0.000 A 
ENDBRANCH  10  15
ENDBRANCH   1  10
TORSDOF 3
