REMARK  Name = *****
REMARK  4 active torsions:
REMARK  status: ('A' for Active; 'I' for Inactive)
REMARK    1  A    between atoms: C_1  and  C_2
REMARK    2  A    between atoms: C_5  and  C_8
REMARK    3  A    between atoms: C_9  and  C_11
REMARK    4  A    between atoms: C_14  and  C_17
REMARK                            x       y       z     vdW  Elec       q    Type
REMARK                         _______ _______ _______ _____ _____    ______ ____
ROOT
ATOM      1  C   UNL     1      -3.799   0.411  -0.427  0.00  0.00    +0.000 C 
ATOM      2  C   UNL     1      -5.218   0.904  -0.669  0.00  0.00    +0.000 C 
ATOM      3  O   UNL     1      -4.256   0.803  -1.731  0.00  0.00    +0.000 OA
ENDROOT
BRANCH   1   8
ATOM      4  C   UNL     1      -2.850  -5.270   0.563  0.00  0.00    +0.000 C 
ATOM      5  C   UNL     1      -3.068  -3.807   0.320  0.00  0.00    +0.000 A 
ATOM      6  C   UNL     1      -2.690  -3.225  -0.893  0.00  0.00    +0.000 A 
ATOM      7  C   UNL     1      -2.925  -1.867  -1.131  0.00  0.00    +0.000 A 
ATOM      8  C   UNL     1      -3.555  -1.054  -0.176  0.00  0.00    +0.000 A 
ATOM      9  C   UNL     1      -3.938  -1.657   1.033  0.00  0.00    +0.000 A 
ATOM     10  C   UNL     1      -3.706  -3.014   1.277  0.00  0.00    +0.000 A 
ENDBRANCH   1   8
BRANCH   2  11
ATOM     11  C   UNL     1      -5.615   2.281  -0.204  0.00  0.00    +0.000 A 
ATOM     12  C   UNL     1      -5.850   3.323  -1.114  0.00  0.00    +0.000 A 
ATOM     13  C   UNL     1      -6.229   4.598  -0.683  0.00  0.00    +0.000 A 
ATOM     14  C   UNL     1      -6.398   4.863   0.679  0.00  0.00    +0.000 A 
ATOM     15  C   UNL     1      -6.158   3.839   1.599  0.00  0.00    +0.000 A 
ATOM     16  C   UNL     1      -5.779   2.566   1.160  0.00  0.00    +0.000 A 
ATOM     17  C   UNL     1      -6.768   6.238   1.146  0.00  0.00    +0.000 C 
ENDBRANCH   2  11
TORSDOF 2
