REMARK  Name = *****
REMARK  2 active torsions:
REMARK  status: ('A' for Active; 'I' for Inactive)
REMARK    1  A    between atoms: C_4  and  S_7
REMARK    2  A    between atoms: S_7  and  C_8
REMARK                            x       y       z     vdW  Elec       q    Type
REMARK                         _______ _______ _______ _____ _____    ______ ____
ROOT
ATOM      1  C   UNL     1      -1.154   1.021   0.044  0.00  0.00    +0.000 C 
ATOM      2  C   UNL     1       0.191   1.419  -0.571  0.00  0.00    +0.000 C 
ATOM      3  C   UNL     1       1.376   0.671   0.049  0.00  0.00    +0.000 C 
ATOM      4  C   UNL     1       1.193  -0.865   0.000  0.00  0.00    +0.000 C 
ATOM      5  C   UNL     1      -0.228  -1.293   0.286  0.00  0.00    +0.000 C 
ATOM      6  C   UNL     1      -1.270  -0.449   0.320  0.00  0.00    +0.000 C 
ATOM      7 CL   UNL     1       1.601   1.207   1.760  0.00  0.00    +0.000 Cl
ENDROOT
BRANCH   4   8
ATOM      8  S   UNL     1       1.609  -1.556  -1.667  0.00  0.00    +0.000 S 
BRANCH   8   9
ATOM      9  C   UNL     1       3.369  -1.271  -1.725  0.00  0.00    +0.000 A 
ATOM     10  C   UNL     1       4.232  -1.789  -0.754  0.00  0.00    +0.000 A 
ATOM     11  C   UNL     1       5.605  -1.545  -0.829  0.00  0.00    +0.000 A 
ATOM     12  C   UNL     1       6.124  -0.793  -1.882  0.00  0.00    +0.000 A 
ATOM     13  C   UNL     1       5.272  -0.290  -2.863  0.00  0.00    +0.000 A 
ATOM     14  C   UNL     1       3.899  -0.533  -2.788  0.00  0.00    +0.000 A 
ENDBRANCH   8   9
ENDBRANCH   4   8
TORSDOF 2
