REMARK  Name = *****
REMARK  3 active torsions:
REMARK  status: ('A' for Active; 'I' for Inactive)
REMARK    1  A    between atoms: C_6  and  C_7
REMARK    2  A    between atoms: C_7  and  O_9
REMARK    3  A    between atoms: O_9  and  C_10
REMARK                            x       y       z     vdW  Elec       q    Type
REMARK                         _______ _______ _______ _____ _____    ______ ____
ROOT
ATOM      1  C   UNL     1      -2.949  -1.426   0.874  0.00  0.00    +0.000 C 
ATOM      2  O   UNL     1      -4.046  -0.913   1.031  0.00  0.00    +0.000 OA
ENDROOT
BRANCH   1   8
ATOM      3  C   UNL     1      -1.959   0.663  -0.030  0.00  0.00    +0.000 A 
ATOM      4  C   UNL     1      -0.903   1.402  -0.571  0.00  0.00    +0.000 A 
ATOM      5  C   UNL     1       0.326   0.786  -0.779  0.00  0.00    +0.000 A 
ATOM      6  C   UNL     1       0.503  -0.554  -0.454  0.00  0.00    +0.000 A 
ATOM      7  C   UNL     1      -0.541  -1.301   0.086  0.00  0.00    +0.000 A 
ATOM      8  C   UNL     1      -1.785  -0.693   0.302  0.00  0.00    +0.000 A 
ATOM      9  F   UNL     1       1.689  -1.144  -0.658  0.00  0.00    +0.000 F 
ATOM     10  F   UNL     1       1.337   1.494  -1.298  0.00  0.00    +0.000 F 
ENDBRANCH   1   8
BRANCH   1  11
ATOM     11  O   UNL     1      -2.582  -2.723   1.180  0.00  0.00    +0.000 OA
BRANCH  11  12
ATOM     12  C   UNL     1      -3.619  -3.478   1.733  0.00  0.00    +0.000 A 
ATOM     13  C   UNL     1      -4.221  -4.455   0.943  0.00  0.00    +0.000 A 
ATOM     14  C   UNL     1      -5.222  -5.242   1.503  0.00  0.00    +0.000 A 
ATOM     15  C   UNL     1      -5.612  -5.079   2.827  0.00  0.00    +0.000 A 
ATOM     16  C   UNL     1      -4.981  -4.110   3.599  0.00  0.00    +0.000 A 
ATOM     17  C   UNL     1      -3.977  -3.307   3.069  0.00  0.00    +0.000 A 
ATOM     18  F   UNL     1      -5.341  -3.953   4.880  0.00  0.00    +0.000 F 
ATOM     19  F   UNL     1      -5.814  -6.181   0.754  0.00  0.00    +0.000 F 
ENDBRANCH  11  12
ENDBRANCH   1  11
TORSDOF 3
