REMARK  Name = *****
REMARK  5 active torsions:
REMARK  status: ('A' for Active; 'I' for Inactive)
REMARK    1  A    between atoms: C_4  and  C_7
REMARK    2  A    between atoms: C_7  and  O_8
REMARK    3  A    between atoms: O_8  and  C_9
REMARK    4  A    between atoms: C_9  and  S_10
REMARK    5  A    between atoms: S_10  and  C_11
REMARK                            x       y       z     vdW  Elec       q    Type
REMARK                         _______ _______ _______ _____ _____    ______ ____
ROOT
ATOM      1  O   UNL     1      -3.591  -0.540  -0.328  0.00  0.00    +0.000 OA
ENDROOT
BRANCH   1   2
ATOM      2  C   UNL     1      -2.810   0.654  -0.310  0.00  0.00    +0.000 C 
BRANCH   2   6
ATOM      3  C   UNL     1       1.350  -0.242   0.417  0.00  0.00    +0.000 A 
ATOM      4  C   UNL     1       0.599  -1.060  -0.424  0.00  0.00    +0.000 A 
ATOM      5  C   UNL     1      -0.749  -0.779  -0.652  0.00  0.00    +0.000 A 
ATOM      6  C   UNL     1      -1.365   0.319  -0.032  0.00  0.00    +0.000 A 
ATOM      7  C   UNL     1      -0.594   1.142   0.802  0.00  0.00    +0.000 A 
ATOM      8  C   UNL     1       0.754   0.860   1.028  0.00  0.00    +0.000 A 
ENDBRANCH   2   6
ENDBRANCH   1   2
BRANCH   1   9
ATOM      9  C   UNL     1      -4.967  -0.288  -0.608  0.00  0.00    +0.000 C 
BRANCH   9  10
ATOM     10  S   UNL     1      -5.297  -0.150  -2.392  0.00  0.00    +0.000 S 
BRANCH  10  11
ATOM     11  C   UNL     1      -7.027   0.274  -2.334  0.00  0.00    +0.000 A 
ATOM     12  C   UNL     1      -7.445   1.513  -2.830  0.00  0.00    +0.000 A 
ATOM     13  C   UNL     1      -8.795   1.866  -2.797  0.00  0.00    +0.000 A 
ATOM     14  C   UNL     1      -9.736   0.979  -2.278  0.00  0.00    +0.000 A 
ATOM     15  C   UNL     1      -9.328  -0.264  -1.796  0.00  0.00    +0.000 A 
ATOM     16  C   UNL     1      -7.977  -0.618  -1.828  0.00  0.00    +0.000 A 
ENDBRANCH  10  11
ENDBRANCH   9  10
ENDBRANCH   1   9
TORSDOF 5
