REMARK  Name = *****
REMARK  4 active torsions:
REMARK  status: ('A' for Active; 'I' for Inactive)
REMARK    1  A    between atoms: C_1  and  C_2
REMARK    2  A    between atoms: C_7  and  C_8
REMARK    3  A    between atoms: C_9  and  C_10
REMARK    4  A    between atoms: C_10  and  C_11
REMARK                            x       y       z     vdW  Elec       q    Type
REMARK                         _______ _______ _______ _____ _____    ______ ____
ROOT
ATOM      1  C   UNL     1       0.917  -2.496   0.205  0.00  0.00    +0.000 C 
ATOM      2  C   UNL     1       2.098  -2.966  -0.229  0.00  0.00    +0.000 C 
ENDROOT
BRANCH   1   9
ATOM      3  C   UNL     1      -0.022  -0.767   2.424  0.00  0.00    +0.000 C 
ATOM      4  C   UNL     1      -0.012  -0.301   0.993  0.00  0.00    +0.000 A 
ATOM      5  C   UNL     1      -0.482   0.988   0.693  0.00  0.00    +0.000 A 
ATOM      6  C   UNL     1      -0.490   1.460  -0.620  0.00  0.00    +0.000 A 
ATOM      7  C   UNL     1      -0.034   0.647  -1.652  0.00  0.00    +0.000 A 
ATOM      8  C   UNL     1       0.431  -0.638  -1.371  0.00  0.00    +0.000 A 
ATOM      9  C   UNL     1       0.454  -1.124  -0.053  0.00  0.00    +0.000 A 
ENDBRANCH   1   9
BRANCH   2  10
ATOM     10  C   UNL     1       2.592  -4.359   0.040  0.00  0.00    +0.000 C 
BRANCH  10  11
ATOM     11  C   UNL     1       3.911  -4.368   0.776  0.00  0.00    +0.000 A 
ATOM     12  C   UNL     1       3.960  -4.089   2.149  0.00  0.00    +0.000 A 
ATOM     13  C   UNL     1       5.179  -4.087   2.829  0.00  0.00    +0.000 A 
ATOM     14  C   UNL     1       6.361  -4.362   2.144  0.00  0.00    +0.000 A 
ATOM     15  C   UNL     1       6.326  -4.635   0.778  0.00  0.00    +0.000 A 
ATOM     16  C   UNL     1       5.108  -4.636   0.095  0.00  0.00    +0.000 A 
ENDBRANCH  10  11
ENDBRANCH   2  10
TORSDOF 3
