REMARK  Name = *****
REMARK  2 active torsions:
REMARK  status: ('A' for Active; 'I' for Inactive)
REMARK    1  A    between atoms: C_4  and  C_7
REMARK    2  A    between atoms: N_8  and  C_9
REMARK                            x       y       z     vdW  Elec       q    Type
REMARK                         _______ _______ _______ _____ _____    ______ ____
ROOT
ATOM      1  C   UNL     1      -2.891   0.265  -0.181  0.00  0.00    +0.000 C 
ATOM      2  N   UNL     1      -3.636  -0.604  -0.790  0.00  0.00    +0.000 NA
ENDROOT
BRANCH   2   3
ATOM      3  C   UNL     1      -5.008  -0.325  -0.814  0.00  0.00    +0.000 A 
ATOM      4  C   UNL     1      -5.553   0.457  -1.838  0.00  0.00    +0.000 A 
ATOM      5  C   UNL     1      -6.923   0.720  -1.871  0.00  0.00    +0.000 A 
ATOM      6  C   UNL     1      -7.744   0.189  -0.882  0.00  0.00    +0.000 A 
ATOM      7  C   UNL     1      -7.222  -0.603   0.134  0.00  0.00    +0.000 A 
ATOM      8  C   UNL     1      -5.851  -0.864   0.164  0.00  0.00    +0.000 A 
ATOM      9  F   UNL     1      -9.059   0.440  -0.912  0.00  0.00    +0.000 F 
ENDBRANCH   2   3
BRANCH   1  13
ATOM     10  C   UNL     1       1.338  -0.156   0.149  0.00  0.00    +0.000 A 
ATOM     11  C   UNL     1       0.597  -1.137  -0.512  0.00  0.00    +0.000 A 
ATOM     12  C   UNL     1      -0.787  -1.008  -0.626  0.00  0.00    +0.000 A 
ATOM     13  C   UNL     1      -1.428   0.106  -0.075  0.00  0.00    +0.000 A 
ATOM     14  C   UNL     1      -0.689   1.089   0.587  0.00  0.00    +0.000 A 
ATOM     15  C   UNL     1       0.697   0.956   0.698  0.00  0.00    +0.000 A 
ENDBRANCH   1  13
TORSDOF 2
