REMARK  Name = *****
REMARK  3 active torsions:
REMARK  status: ('A' for Active; 'I' for Inactive)
REMARK    1  A    between atoms: C_1  and  C_2
REMARK    2  A    between atoms: C_5  and  C_8
REMARK    3  A    between atoms: C_9  and  C_10
REMARK                            x       y       z     vdW  Elec       q    Type
REMARK                         _______ _______ _______ _____ _____    ______ ____
ROOT
ATOM      1  C   UNL     1       2.518  -0.009   0.010  0.00  0.00    +0.000 C 
ATOM      2  C   UNL     1       1.020   0.050  -0.031  0.00  0.00    +0.000 A 
ATOM      3  C   UNL     1       0.325   1.019   0.700  0.00  0.00    +0.000 A 
ATOM      4  C   UNL     1      -1.073   1.052   0.685  0.00  0.00    +0.000 A 
ATOM      5  C   UNL     1      -1.802   0.117  -0.060  0.00  0.00    +0.000 A 
ATOM      6  C   UNL     1      -1.104  -0.871  -0.764  0.00  0.00    +0.000 A 
ATOM      7  C   UNL     1       0.294  -0.904  -0.751  0.00  0.00    +0.000 A 
ENDROOT
BRANCH   5   8
ATOM      8  C   UNL     1      -3.271   0.098  -0.074  0.00  0.00    +0.000 C 
ATOM      9  C   UNL     1      -4.038   1.200  -0.094  0.00  0.00    +0.000 C 
BRANCH   9  10
ATOM     10  C   UNL     1      -5.539   1.163  -0.118  0.00  0.00    +0.000 C 
ATOM     11  C   UNL     1      -6.136   1.875  -1.331  0.00  0.00    +0.000 C 
ATOM     12  C   UNL     1      -7.583   2.150  -0.931  0.00  0.00    +0.000 C 
ATOM     13  C   UNL     1      -7.614   2.142   0.597  0.00  0.00    +0.000 C 
ATOM     14  C   UNL     1      -6.173   1.923   1.046  0.00  0.00    +0.000 C 
ENDBRANCH   9  10
ENDBRANCH   5   8
TORSDOF 2
