REMARK  Name = *****
REMARK  2 active torsions:
REMARK  status: ('A' for Active; 'I' for Inactive)
REMARK    1  A    between atoms: C_4  and  C_8
REMARK    2  A    between atoms: C_9  and  C_10
REMARK                            x       y       z     vdW  Elec       q    Type
REMARK                         _______ _______ _______ _____ _____    ______ ____
ROOT
ATOM      1  C   UNL     1      -0.817  -1.435   1.723  0.00  0.00    +0.000 C 
ATOM      2  C   UNL     1      -0.216  -2.352   2.503  0.00  0.00    +0.000 C 
ENDROOT
BRANCH   1   6
ATOM      3  C   UNL     1       1.703   0.531  -0.367  0.00  0.00    +0.000 C 
ATOM      4  C   UNL     1       1.973  -0.916   0.025  0.00  0.00    +0.000 C 
ATOM      5  S   UNL     1       0.694  -2.064  -0.569  0.00  0.00    +0.000 S 
ATOM      6  C   UNL     1      -0.781  -1.332   0.215  0.00  0.00    +0.000 C 
ATOM      7  S   UNL     1      -1.060   0.384  -0.389  0.00  0.00    +0.000 S 
ATOM      8  O   UNL     1      -2.222   0.977   0.356  0.00  0.00    +0.000 OA
ATOM      9  C   UNL     1       0.458   1.110   0.286  0.00  0.00    +0.000 C 
ENDBRANCH   1   6
BRANCH   2  10
ATOM     10  C   UNL     1      -0.300  -2.376   3.971  0.00  0.00    +0.000 A 
ATOM     11  C   UNL     1      -1.452  -1.991   4.670  0.00  0.00    +0.000 A 
ATOM     12  C   UNL     1      -1.494  -2.057   6.065  0.00  0.00    +0.000 A 
ATOM     13  C   UNL     1      -0.389  -2.518   6.777  0.00  0.00    +0.000 A 
ATOM     14  C   UNL     1       0.756  -2.921   6.094  0.00  0.00    +0.000 A 
ATOM     15  C   UNL     1       0.798  -2.855   4.699  0.00  0.00    +0.000 A 
ENDBRANCH   2  10
TORSDOF 2
