REMARK  Name = *****
REMARK  2 active torsions:
REMARK  status: ('A' for Active; 'I' for Inactive)
REMARK    1  A    between atoms: C_4  and  C_6
REMARK    2  A    between atoms: C_7  and  C_8
REMARK                            x       y       z     vdW  Elec       q    Type
REMARK                         _______ _______ _______ _____ _____    ______ ____
ROOT
ATOM      1  C   UNL     1       2.305  -1.543  -0.251  0.00  0.00    +0.000 C 
ATOM      2  C   UNL     1       3.287  -2.221  -0.387  0.00  0.00    +0.000 C 
ENDROOT
BRANCH   1   6
ATOM      3  C   UNL     1      -1.116  -0.070  -0.131  0.00  0.00    +0.000 C 
ATOM      4  C   UNL     1      -0.220   1.143   0.118  0.00  0.00    +0.000 C 
ATOM      5  C   UNL     1       1.151   0.588  -0.078  0.00  0.00    +0.000 C 
ATOM      6  C   UNL     1       1.144  -0.749  -0.095  0.00  0.00    +0.000 C 
ATOM      7  C   UNL     1      -0.234  -1.300   0.088  0.00  0.00    +0.000 C 
ENDBRANCH   1   6
BRANCH   2   8
ATOM      8  C   UNL     1       4.446  -3.014  -0.550  0.00  0.00    +0.000 C 
ATOM      9  C   UNL     1       4.445  -4.351  -0.531  0.00  0.00    +0.000 C 
ATOM     10  C   UNL     1       5.818  -4.906  -0.715  0.00  0.00    +0.000 C 
ATOM     11  C   UNL     1       6.612  -3.693  -1.196  0.00  0.00    +0.000 C 
ATOM     12  C   UNL     1       5.822  -2.463  -0.748  0.00  0.00    +0.000 C 
ENDBRANCH   2   8
TORSDOF 2
