REMARK  Name = *****
REMARK  2 active torsions:
REMARK  status: ('A' for Active; 'I' for Inactive)
REMARK    1  A    between atoms: C_5  and  C_8
REMARK    2  A    between atoms: C_9  and  C_10
REMARK                            x       y       z     vdW  Elec       q    Type
REMARK                         _______ _______ _______ _____ _____    ______ ____
ROOT
ATOM      1  C   UNL     1       3.982   1.090  -2.350  0.00  0.00    +0.000 C 
ATOM      2  C   UNL     1       3.783   1.347  -3.507  0.00  0.00    +0.000 C 
ENDROOT
BRANCH   1   7
ATOM      3  C   UNL     1       1.342  -0.078   1.182  0.00  0.00    +0.000 C 
ATOM      4  C   UNL     1       2.360   0.026   0.321  0.00  0.00    +0.000 C 
ATOM      5  C   UNL     1       3.008  -1.118  -0.394  0.00  0.00    +0.000 C 
ATOM      6  O   UNL     1       4.314  -0.658  -0.768  0.00  0.00    +0.000 OA
ATOM      7  C   UNL     1       4.229   0.767  -0.937  0.00  0.00    +0.000 C 
ATOM      8  C   UNL     1       3.092   1.215  -0.055  0.00  0.00    +0.000 C 
ATOM      9  C   UNL     1       2.855   2.474   0.339  0.00  0.00    +0.000 C 
ENDBRANCH   1   7
BRANCH   2  10
ATOM     10  C   UNL     1       3.544   1.645  -4.884  0.00  0.00    +0.000 A 
ATOM     11  C   UNL     1       3.419   0.605  -5.812  0.00  0.00    +0.000 A 
ATOM     12  C   UNL     1       3.185   0.895  -7.157  0.00  0.00    +0.000 A 
ATOM     13  C   UNL     1       3.078   2.220  -7.564  0.00  0.00    +0.000 A 
ATOM     14  C   UNL     1       3.201   3.262  -6.651  0.00  0.00    +0.000 A 
ATOM     15  C   UNL     1       3.434   2.974  -5.305  0.00  0.00    +0.000 A 
ATOM     16  F   UNL     1       2.854   2.498  -8.854  0.00  0.00    +0.000 F 
ENDBRANCH   2  10
TORSDOF 2
