REMARK  Name = *****
REMARK  4 active torsions:
REMARK  status: ('A' for Active; 'I' for Inactive)
REMARK    1  A    between atoms: C_4  and  C_7
REMARK    2  A    between atoms: C_7  and  N_8
REMARK    3  A    between atoms: N_8  and  C_9
REMARK    4  A    between atoms: C_9  and  C_11
REMARK                            x       y       z     vdW  Elec       q    Type
REMARK                         _______ _______ _______ _____ _____    ______ ____
ROOT
ATOM      1  N   UNL     1      -4.224  -0.248  -1.113  0.00  0.00    +0.000 N 
ATOM      2  H   UNL     1      -3.927  -0.673  -1.950  0.00  0.00    +0.000 HD
ENDROOT
BRANCH   1   3
ATOM      3  C   UNL     1      -5.368  -0.754  -0.521  0.00  0.00    +0.000 C 
ATOM      4  S   UNL     1      -6.066  -0.147   0.879  0.00  0.00    +0.000 S 
BRANCH   3   5
ATOM      5  C   UNL     1      -5.953  -1.912  -1.256  0.00  0.00    +0.000 A 
ATOM      6  C   UNL     1      -6.233  -3.114  -0.592  0.00  0.00    +0.000 A 
ATOM      7  C   UNL     1      -6.769  -4.193  -1.301  0.00  0.00    +0.000 A 
ATOM      8  C   UNL     1      -7.022  -4.069  -2.667  0.00  0.00    +0.000 A 
ATOM      9  C   UNL     1      -6.745  -2.876  -3.334  0.00  0.00    +0.000 A 
ATOM     10  C   UNL     1      -6.209  -1.795  -2.629  0.00  0.00    +0.000 A 
ATOM     11 CL   UNL     1      -7.680  -5.399  -3.537  0.00  0.00    +0.000 Cl
ENDBRANCH   3   5
ENDBRANCH   1   3
BRANCH   1  12
ATOM     12  C   UNL     1      -3.419   0.856  -0.611  0.00  0.00    +0.000 C 
BRANCH  12  16
ATOM     13  C   UNL     1      -0.283   1.741  -3.430  0.00  0.00    +0.000 A 
ATOM     14  C   UNL     1      -1.531   2.346  -3.563  0.00  0.00    +0.000 A 
ATOM     15  C   UNL     1      -2.544   2.067  -2.645  0.00  0.00    +0.000 A 
ATOM     16  C   UNL     1      -2.314   1.185  -1.579  0.00  0.00    +0.000 A 
ATOM     17  C   UNL     1      -1.058   0.572  -1.462  0.00  0.00    +0.000 A 
ATOM     18  C   UNL     1      -0.047   0.853  -2.382  0.00  0.00    +0.000 A 
ENDBRANCH  12  16
ENDBRANCH   1  12
TORSDOF 4
