REMARK  Name = *****
REMARK  6 active torsions:
REMARK  status: ('A' for Active; 'I' for Inactive)
REMARK    1  A    between atoms: C_1  and  C_2
REMARK    2  A    between atoms: C_2  and  C_4
REMARK    3  A    between atoms: C_7  and  C_10
REMARK    4  A    between atoms: C_11  and  C_12
REMARK    5  A    between atoms: C_14  and  C_17
REMARK    6  A    between atoms: C_14  and  C_18
REMARK                            x       y       z     vdW  Elec       q    Type
REMARK                         _______ _______ _______ _____ _____    ______ ____
ROOT
ATOM      1  C   UNL     1       3.268  -0.278  -1.169  0.00  0.00    +0.000 A 
ATOM      2  C   UNL     1       2.565  -0.110  -2.370  0.00  0.00    +0.000 A 
ATOM      3  C   UNL     1       3.206  -0.248  -3.608  0.00  0.00    +0.000 A 
ATOM      4  C   UNL     1       4.572  -0.544  -3.675  0.00  0.00    +0.000 A 
ATOM      5  C   UNL     1       5.275  -0.723  -2.478  0.00  0.00    +0.000 A 
ATOM      6  C   UNL     1       4.633  -0.583  -1.241  0.00  0.00    +0.000 A 
ENDROOT
BRANCH   1   8
ATOM      7  C   UNL     1       3.309   0.676   1.200  0.00  0.00    +0.000 C 
ATOM      8  C   UNL     1       2.594  -0.114   0.138  0.00  0.00    +0.000 C 
ATOM      9  C   UNL     1       1.389  -0.665   0.365  0.00  0.00    +0.000 C 
ENDBRANCH   1   8
BRANCH   4  10
ATOM     10  C   UNL     1       5.281  -0.732  -4.948  0.00  0.00    +0.000 C 
ATOM     11  C   UNL     1       5.005  -0.049  -6.070  0.00  0.00    +0.000 C 
BRANCH  11  12
ATOM     12  C   UNL     1       5.731  -0.247  -7.329  0.00  0.00    +0.000 C 
ATOM     13  N   UNL     1       5.485   0.373  -8.437  0.00  0.00    +0.000 NA
ATOM     14  C   UNL     1       6.534  -0.120  -9.352  0.00  0.00    +0.000 C 
ATOM     15  C   UNL     1       7.100  -1.345  -8.646  0.00  0.00    +0.000 C 
ATOM     16  O   UNL     1       6.727  -1.162  -7.286  0.00  0.00    +0.000 OA
ATOM     17  C   UNL     1       5.910  -0.470 -10.699  0.00  0.00    +0.000 C 
ATOM     18  C   UNL     1       7.584   0.982  -9.515  0.00  0.00    +0.000 C 
ENDBRANCH  11  12
ENDBRANCH   4  10
TORSDOF 3
