REMARK  Name = *****
REMARK  3 active torsions:
REMARK  status: ('A' for Active; 'I' for Inactive)
REMARK    1  A    between atoms: C_5  and  O_7
REMARK    2  A    between atoms: O_7  and  C_8
REMARK    3  A    between atoms: C_8  and  C_10
REMARK                            x       y       z     vdW  Elec       q    Type
REMARK                         _______ _______ _______ _____ _____    ______ ____
ROOT
ATOM      1  C   UNL     1      -1.762  -2.579  -0.350  0.00  0.00    +0.000 C 
ATOM      2  O   UNL     1      -2.121  -1.572   0.238  0.00  0.00    +0.000 OA
ENDROOT
BRANCH   1   3
ATOM      3  C   UNL     1      -2.351  -3.900  -0.131  0.00  0.00    +0.000 A 
ATOM      4  C   UNL     1      -3.732  -4.054  -0.178  0.00  0.00    +0.000 A 
ATOM      5  C   UNL     1      -4.313  -5.303   0.041  0.00  0.00    +0.000 A 
ATOM      6  C   UNL     1      -3.505  -6.408   0.317  0.00  0.00    +0.000 A 
ATOM      7  C   UNL     1      -2.119  -6.255   0.374  0.00  0.00    +0.000 A 
ATOM      8  C   UNL     1      -1.550  -5.002   0.152  0.00  0.00    +0.000 A 
ATOM      9  F   UNL     1      -0.217  -4.879   0.237  0.00  0.00    +0.000 F 
ATOM     10  F   UNL     1      -4.532  -3.017  -0.459  0.00  0.00    +0.000 F 
ENDBRANCH   1   3
BRANCH   1  11
ATOM     11  O   UNL     1      -0.802  -2.703  -1.333  0.00  0.00    +0.000 OA
BRANCH  11  16
ATOM     12  C   UNL     1       1.542   0.122  -1.398  0.00  0.00    +0.000 A 
ATOM     13  C   UNL     1       0.967   0.931  -2.382  0.00  0.00    +0.000 A 
ATOM     14  C   UNL     1      -0.209   0.530  -3.024  0.00  0.00    +0.000 A 
ATOM     15  C   UNL     1      -0.814  -0.679  -2.678  0.00  0.00    +0.000 A 
ATOM     16  C   UNL     1      -0.243  -1.471  -1.678  0.00  0.00    +0.000 A 
ATOM     17  C   UNL     1       0.941  -1.087  -1.047  0.00  0.00    +0.000 A 
ATOM     18 CL   UNL     1      -2.242  -1.169  -3.512  0.00  0.00    +0.000 Cl
ENDBRANCH  11  16
ENDBRANCH   1  11
TORSDOF 3
