REMARK  Name = *****
REMARK  3 active torsions:
REMARK  status: ('A' for Active; 'I' for Inactive)
REMARK    1  A    between atoms: C_4  and  O_7
REMARK    2  A    between atoms: O_7  and  C_8
REMARK    3  A    between atoms: C_8  and  C_11
REMARK                            x       y       z     vdW  Elec       q    Type
REMARK                         _______ _______ _______ _____ _____    ______ ____
ROOT
ATOM      1  C   UNL     1      -3.487  -0.949  -0.798  0.00  0.00    +0.000 C 
ATOM      2  C   UNL     1      -3.367  -2.245  -1.126  0.00  0.00    +0.000 C 
ATOM      3 CL   UNL     1      -1.915  -2.990  -1.655  0.00  0.00    +0.000 Cl
ENDROOT
BRANCH   1   4
ATOM      4  C   UNL     1      -4.799  -0.364  -0.456  0.00  0.00    +0.000 A 
ATOM      5  C   UNL     1      -5.654  -0.981   0.473  0.00  0.00    +0.000 A 
ATOM      6  C   UNL     1      -6.888  -0.409   0.791  0.00  0.00    +0.000 A 
ATOM      7  C   UNL     1      -7.270   0.782   0.185  0.00  0.00    +0.000 A 
ATOM      8  C   UNL     1      -6.439   1.415  -0.730  0.00  0.00    +0.000 A 
ATOM      9  C   UNL     1      -5.203   0.845  -1.047  0.00  0.00    +0.000 A 
ATOM     10  F   UNL     1      -8.454   1.328   0.490  0.00  0.00    +0.000 F 
ENDBRANCH   1   4
BRANCH   1  11
ATOM     11  O   UNL     1      -2.450  -0.035  -0.902  0.00  0.00    +0.000 OA
BRANCH  11  15
ATOM     12  C   UNL     1       0.661   0.115   1.872  0.00  0.00    +0.000 A 
ATOM     13  C   UNL     1       0.801   0.644   0.590  0.00  0.00    +0.000 A 
ATOM     14  C   UNL     1      -0.261   0.575  -0.312  0.00  0.00    +0.000 A 
ATOM     15  C   UNL     1      -1.464  -0.031   0.060  0.00  0.00    +0.000 A 
ATOM     16  C   UNL     1      -1.608  -0.547   1.351  0.00  0.00    +0.000 A 
ATOM     17  C   UNL     1      -0.543  -0.478   2.252  0.00  0.00    +0.000 A 
ENDBRANCH  11  15
ENDBRANCH   1  11
TORSDOF 3
