REMARK  Name = *****
REMARK  3 active torsions:
REMARK  status: ('A' for Active; 'I' for Inactive)
REMARK    1  A    between atoms: C_4  and  C_7
REMARK    2  A    between atoms: C_7  and  C_8
REMARK    3  A    between atoms: C_8  and  C_9
REMARK                            x       y       z     vdW  Elec       q    Type
REMARK                         _______ _______ _______ _____ _____    ______ ____
ROOT
ATOM      1  C   UNL     1      -0.084   0.927   2.093  0.00  0.00    +0.000 C 
ENDROOT
BRANCH   1   5
ATOM      2  C   UNL     1       0.021  -1.961  -0.493  0.00  0.00    +0.000 C 
ATOM      3  C   UNL     1       1.267  -1.366   0.149  0.00  0.00    +0.000 C 
ATOM      4  S   UNL     1       1.457   0.409  -0.177  0.00  0.00    +0.000 S 
ATOM      5  C   UNL     1      -0.084   1.049   0.559  0.00  0.00    +0.000 C 
ATOM      6  S   UNL     1      -1.542   0.336  -0.270  0.00  0.00    +0.000 S 
ATOM      7  C   UNL     1      -1.286  -1.427   0.074  0.00  0.00    +0.000 C 
ENDBRANCH   1   5
BRANCH   1   8
ATOM      8  C   UNL     1      -1.256   1.674   2.760  0.00  0.00    +0.000 C 
BRANCH   8   9
ATOM      9  C   UNL     1      -1.245   1.566   4.295  0.00  0.00    +0.000 C 
ATOM     10  S   UNL     1       0.200   2.322   5.108  0.00  0.00    +0.000 S 
ATOM     11  C   UNL     1      -0.101   4.075   4.750  0.00  0.00    +0.000 C 
ATOM     12  C   UNL     1      -1.419   4.583   5.318  0.00  0.00    +0.000 C 
ATOM     13  C   UNL     1      -2.652   3.951   4.687  0.00  0.00    +0.000 C 
ATOM     14  S   UNL     1      -2.797   2.176   5.034  0.00  0.00    +0.000 S 
ENDBRANCH   8   9
ENDBRANCH   1   8
TORSDOF 3
