REMARK  Name = *****
REMARK  3 active torsions:
REMARK  status: ('A' for Active; 'I' for Inactive)
REMARK    1  A    between atoms: C_4  and  C_7
REMARK    2  A    between atoms: C_7  and  S_9
REMARK    3  A    between atoms: S_9  and  C_10
REMARK                            x       y       z     vdW  Elec       q    Type
REMARK                         _______ _______ _______ _____ _____    ______ ____
ROOT
ATOM      1  C   UNL     1      -3.059   0.598   0.255  0.00  0.00    +0.000 C 
ATOM      2  S   UNL     1      -3.379   1.944   1.209  0.00  0.00    +0.000 S 
ENDROOT
BRANCH   1   6
ATOM      3  C   UNL     1       0.901  -0.646  -0.779  0.00  0.00    +0.000 A 
ATOM      4  C   UNL     1       0.053  -1.520  -0.098  0.00  0.00    +0.000 A 
ATOM      5  C   UNL     1      -1.238  -1.116   0.245  0.00  0.00    +0.000 A 
ATOM      6  C   UNL     1      -1.681   0.169  -0.096  0.00  0.00    +0.000 A 
ATOM      7  C   UNL     1      -0.826   1.046  -0.776  0.00  0.00    +0.000 A 
ATOM      8  C   UNL     1       0.464   0.635  -1.118  0.00  0.00    +0.000 A 
ENDBRANCH   1   6
BRANCH   1   9
ATOM      9  S   UNL     1      -4.368  -0.417  -0.366  0.00  0.00    +0.000 S 
BRANCH   9  10
ATOM     10  C   UNL     1      -4.126  -0.212  -2.121  0.00  0.00    +0.000 A 
ATOM     11  C   UNL     1      -3.657  -1.283  -2.888  0.00  0.00    +0.000 A 
ATOM     12  C   UNL     1      -3.455  -1.128  -4.261  0.00  0.00    +0.000 A 
ATOM     13  C   UNL     1      -3.728   0.095  -4.872  0.00  0.00    +0.000 A 
ATOM     14  C   UNL     1      -4.206   1.162  -4.114  0.00  0.00    +0.000 A 
ATOM     15  C   UNL     1      -4.408   1.009  -2.741  0.00  0.00    +0.000 A 
ENDBRANCH   9  10
ENDBRANCH   1   9
TORSDOF 3
