REMARK  Name = *****
REMARK  3 active torsions:
REMARK  status: ('A' for Active; 'I' for Inactive)
REMARK    1  A    between atoms: C_3  and  C_8
REMARK    2  A    between atoms: C_8  and  S_9
REMARK    3  A    between atoms: S_9  and  C_10
REMARK                            x       y       z     vdW  Elec       q    Type
REMARK                         _______ _______ _______ _____ _____    ______ ____
ROOT
ATOM      1  C   UNL     1      -1.892   2.580   0.026  0.00  0.00    +0.000 C 
ENDROOT
BRANCH   1   4
ATOM      2  C   UNL     1      -0.116  -0.567   1.264  0.00  0.00    +0.000 A 
ATOM      3  C   UNL     1      -0.806   0.649   1.252  0.00  0.00    +0.000 A 
ATOM      4  C   UNL     1      -1.159   1.260   0.037  0.00  0.00    +0.000 A 
ATOM      5  C   UNL     1      -0.796   0.637  -1.165  0.00  0.00    +0.000 A 
ATOM      6  C   UNL     1      -0.109  -0.573  -1.140  0.00  0.00    +0.000 A 
ATOM      7  C   UNL     1       0.232  -1.181   0.063  0.00  0.00    +0.000 A 
ATOM      8  F   UNL     1       0.230  -1.162  -2.295  0.00  0.00    +0.000 F 
ENDBRANCH   1   4
BRANCH   1   9
ATOM      9  S   UNL     1      -0.723   3.978   0.039  0.00  0.00    +0.000 S 
BRANCH   9  10
ATOM     10  C   UNL     1      -1.862   5.349   0.037  0.00  0.00    +0.000 A 
ATOM     11  N   UNL     1      -3.189   5.090   0.035  0.00  0.00    +0.000 NA
ATOM     12  C   UNL     1      -4.035   6.143   0.035  0.00  0.00    +0.000 A 
ATOM     13  C   UNL     1      -3.619   7.458   0.038  0.00  0.00    +0.000 A 
ATOM     14  C   UNL     1      -2.253   7.695   0.040  0.00  0.00    +0.000 A 
ATOM     15  C   UNL     1      -1.352   6.638   0.040  0.00  0.00    +0.000 A 
ATOM     16 CL   UNL     1      -1.670   9.314   0.044  0.00  0.00    +0.000 Cl
ENDBRANCH   9  10
ENDBRANCH   1   9
TORSDOF 3
