REMARK  Name = *****
REMARK  3 active torsions:
REMARK  status: ('A' for Active; 'I' for Inactive)
REMARK    1  A    between atoms: C_4  and  C_7
REMARK    2  A    between atoms: C_7  and  O_9
REMARK    3  A    between atoms: O_9  and  C_10
REMARK                            x       y       z     vdW  Elec       q    Type
REMARK                         _______ _______ _______ _____ _____    ______ ____
ROOT
ATOM      1  O   UNL     1      -3.140  -1.080   1.039  0.00  0.00    +0.000 OA
ENDROOT
BRANCH   1   2
ATOM      2  C   UNL     1      -4.470  -1.035   1.457  0.00  0.00    +0.000 A 
ATOM      3  C   UNL     1      -4.766  -0.638   2.760  0.00  0.00    +0.000 A 
ATOM      4  C   UNL     1      -6.096  -0.635   3.186  0.00  0.00    +0.000 A 
ATOM      5  C   UNL     1      -7.113  -1.042   2.310  0.00  0.00    +0.000 A 
ATOM      6  C   UNL     1      -6.795  -1.456   1.011  0.00  0.00    +0.000 A 
ATOM      7  C   UNL     1      -5.467  -1.460   0.582  0.00  0.00    +0.000 A 
ATOM      8 CL   UNL     1      -8.778  -1.067   2.773  0.00  0.00    +0.000 Cl
ATOM      9 CL   UNL     1      -6.419  -0.127   4.806  0.00  0.00    +0.000 Cl
ENDBRANCH   1   2
BRANCH   1  10
ATOM     10  C   UNL     1      -2.696   0.127   0.531  0.00  0.00    +0.000 C 
ATOM     11  O   UNL     1      -3.341   1.160   0.426  0.00  0.00    +0.000 OA
BRANCH  10  15
ATOM     12  C   UNL     1       1.406  -0.101  -0.707  0.00  0.00    +0.000 A 
ATOM     13  C   UNL     1       0.787  -1.240  -0.193  0.00  0.00    +0.000 A 
ATOM     14  C   UNL     1      -0.548  -1.190   0.216  0.00  0.00    +0.000 A 
ATOM     15  C   UNL     1      -1.271   0.007   0.113  0.00  0.00    +0.000 A 
ATOM     16  C   UNL     1      -0.640   1.148  -0.405  0.00  0.00    +0.000 A 
ATOM     17  C   UNL     1       0.694   1.093  -0.813  0.00  0.00    +0.000 A 
ENDBRANCH  10  15
ENDBRANCH   1  10
TORSDOF 3
