REMARK  Name = *****
REMARK  6 active torsions:
REMARK  status: ('A' for Active; 'I' for Inactive)
REMARK    1  A    between atoms: C_1  and  C_2
REMARK    2  A    between atoms: C_3  and  C_9
REMARK    3  A    between atoms: C_4  and  C_8
REMARK    4  A    between atoms: C_9  and  C_10
REMARK    5  A    between atoms: C_10  and  C_11
REMARK    6  A    between atoms: C_11  and  C_13
REMARK                            x       y       z     vdW  Elec       q    Type
REMARK                         _______ _______ _______ _____ _____    ______ ____
ROOT
ATOM      1  C   UNL     1       0.458   3.846  -0.460  0.00  0.00    +0.000 C 
ENDROOT
BRANCH   1   2
ATOM      2  C   UNL     1       1.413   3.806  -1.634  0.00  0.00    +0.000 C 
ATOM      3  O   UNL     1       1.035   3.813  -2.802  0.00  0.00    +0.000 OA
BRANCH   2   4
ATOM      4  C   UNL     1       2.858   3.681  -1.352  0.00  0.00    +0.000 A 
ATOM      5  C   UNL     1       3.580   4.657  -0.654  0.00  0.00    +0.000 A 
ATOM      6  C   UNL     1       4.942   4.468  -0.410  0.00  0.00    +0.000 A 
ATOM      7  C   UNL     1       5.568   3.315  -0.873  0.00  0.00    +0.000 A 
ATOM      8  C   UNL     1       4.866   2.350  -1.585  0.00  0.00    +0.000 A 
ATOM      9  C   UNL     1       3.507   2.535  -1.834  0.00  0.00    +0.000 A 
ATOM     10  F   UNL     1       6.874   3.138  -0.636  0.00  0.00    +0.000 F 
ATOM     11 CL   UNL     1       2.867   6.133  -0.112  0.00  0.00    +0.000 Cl
ENDBRANCH   2   4
ENDBRANCH   1   2
BRANCH   1  12
ATOM     12  C   UNL     1      -0.425   2.598  -0.401  0.00  0.00    +0.000 C 
BRANCH  12  15
ATOM     13  C   UNL     1       0.816   2.004   2.302  0.00  0.00    +0.000 C 
ATOM     14  C   UNL     1       0.929   1.060   1.133  0.00  0.00    +0.000 A 
ATOM     15  C   UNL     1       0.340   1.309  -0.134  0.00  0.00    +0.000 A 
ATOM     16  C   UNL     1       0.481   0.333  -1.156  0.00  0.00    +0.000 A 
ATOM     17  C   UNL     1       1.240  -0.825  -0.917  0.00  0.00    +0.000 A 
ATOM     18  C   UNL     1       1.851  -1.037   0.312  0.00  0.00    +0.000 A 
ATOM     19  C   UNL     1       1.695  -0.102   1.328  0.00  0.00    +0.000 A 
ATOM     20  C   UNL     1      -0.167   0.475  -2.510  0.00  0.00    +0.000 C 
ENDBRANCH  12  15
ENDBRANCH   1  12
TORSDOF 4
