REMARK  Name = *****
REMARK  4 active torsions:
REMARK  status: ('A' for Active; 'I' for Inactive)
REMARK    1  A    between atoms: C_1  and  C_2
REMARK    2  A    between atoms: C_5  and  S_8
REMARK    3  A    between atoms: S_8  and  C_9
REMARK    4  A    between atoms: C_10  and  C_11
REMARK                            x       y       z     vdW  Elec       q    Type
REMARK                         _______ _______ _______ _____ _____    ______ ____
ROOT
ATOM      1  S   UNL     1      -3.370  -0.357  -0.060  0.00  0.00    +0.000 S 
ENDROOT
BRANCH   1   6
ATOM      2  C   UNL     1       2.567   1.008  -0.185  0.00  0.00    +0.000 C 
ATOM      3  C   UNL     1       1.099   0.704  -0.157  0.00  0.00    +0.000 A 
ATOM      4  C   UNL     1       0.407   0.666   1.059  0.00  0.00    +0.000 A 
ATOM      5  C   UNL     1      -0.954   0.347   1.090  0.00  0.00    +0.000 A 
ATOM      6  C   UNL     1      -1.637   0.058  -0.095  0.00  0.00    +0.000 A 
ATOM      7  C   UNL     1      -0.945   0.073  -1.308  0.00  0.00    +0.000 A 
ATOM      8  C   UNL     1       0.416   0.391  -1.339  0.00  0.00    +0.000 A 
ENDBRANCH   1   6
BRANCH   1   9
ATOM      9  C   UNL     1      -4.036   1.237   0.087  0.00  0.00    +0.000 C 
ATOM     10  C   UNL     1      -5.320   1.513   0.363  0.00  0.00    +0.000 C 
BRANCH  10  11
ATOM     11  C   UNL     1      -6.405   0.561   0.628  0.00  0.00    +0.000 A 
ATOM     12  C   UNL     1      -6.371  -0.295   1.735  0.00  0.00    +0.000 A 
ATOM     13  C   UNL     1      -7.430  -1.171   1.984  0.00  0.00    +0.000 A 
ATOM     14  C   UNL     1      -8.535  -1.189   1.134  0.00  0.00    +0.000 A 
ATOM     15  C   UNL     1      -8.583  -0.331   0.037  0.00  0.00    +0.000 A 
ATOM     16  C   UNL     1      -7.523   0.544  -0.214  0.00  0.00    +0.000 A 
ENDBRANCH  10  11
ENDBRANCH   1   9
TORSDOF 3
