REMARK  Name = *****
REMARK  4 active torsions:
REMARK  status: ('A' for Active; 'I' for Inactive)
REMARK    1  A    between atoms: C_1  and  C_2
REMARK    2  A    between atoms: C_5  and  C_8
REMARK    3  A    between atoms: C_9  and  C_11
REMARK    4  A    between atoms: C_14  and  C_17
REMARK                            x       y       z     vdW  Elec       q    Type
REMARK                         _______ _______ _______ _____ _____    ______ ____
ROOT
ATOM      1  C   UNL     1      -4.270  -0.135   0.366  0.00  0.00    +0.000 C 
ATOM      2  C   UNL     1      -5.504   0.739   0.490  0.00  0.00    +0.000 C 
ATOM      3  S   UNL     1      -5.397  -0.190  -0.959  0.00  0.00    +0.000 S 
ENDROOT
BRANCH   1   8
ATOM      4  C   UNL     1       1.132   1.922  -0.623  0.00  0.00    +0.000 C 
ATOM      5  C   UNL     1      -0.260   1.417  -0.392  0.00  0.00    +0.000 A 
ATOM      6  C   UNL     1      -0.990   1.829   0.724  0.00  0.00    +0.000 A 
ATOM      7  C   UNL     1      -2.278   1.332   0.953  0.00  0.00    +0.000 A 
ATOM      8  C   UNL     1      -2.887   0.415   0.079  0.00  0.00    +0.000 A 
ATOM      9  C   UNL     1      -2.117  -0.014  -1.018  0.00  0.00    +0.000 A 
ATOM     10  C   UNL     1      -0.828   0.477  -1.254  0.00  0.00    +0.000 A 
ENDBRANCH   1   8
BRANCH   2  11
ATOM     11  C   UNL     1      -5.438   2.257   0.437  0.00  0.00    +0.000 A 
ATOM     12  C   UNL     1      -5.156   3.015  -0.715  0.00  0.00    +0.000 A 
ATOM     13  C   UNL     1      -5.104   4.414  -0.687  0.00  0.00    +0.000 A 
ATOM     14  C   UNL     1      -5.347   5.111   0.497  0.00  0.00    +0.000 A 
ATOM     15  C   UNL     1      -5.616   4.385   1.657  0.00  0.00    +0.000 A 
ATOM     16  C   UNL     1      -5.665   2.987   1.621  0.00  0.00    +0.000 A 
ATOM     17  C   UNL     1      -5.254   6.607   0.534  0.00  0.00    +0.000 C 
ENDBRANCH   2  11
TORSDOF 2
