REMARK  Name = *****
REMARK  5 active torsions:
REMARK  status: ('A' for Active; 'I' for Inactive)
REMARK    1  A    between atoms: C_1  and  C_2
REMARK    2  A    between atoms: C_5  and  N_8
REMARK    3  A    between atoms: N_8  and  S_9
REMARK    4  A    between atoms: S_9  and  C_11
REMARK    5  A    between atoms: S_9  and  C_12
REMARK                            x       y       z     vdW  Elec       q    Type
REMARK                         _______ _______ _______ _____ _____    ______ ____
ROOT
ATOM      1  S   UNL     1      -4.028   1.642  -0.196  0.00  0.00    +0.000 S 
ATOM      2  O   UNL     1      -3.889   2.596   0.890  0.00  0.00    +0.000 OA
ATOM      3  C   UNL     1      -3.944   2.577  -1.706  0.00  0.00    +0.000 C 
ENDROOT
BRANCH   1   4
ATOM      4  C   UNL     1      -5.727   1.092  -0.185  0.00  0.00    +0.000 A 
ATOM      5  C   UNL     1      -6.626   1.633   0.738  0.00  0.00    +0.000 A 
ATOM      6  C   UNL     1      -7.956   1.209   0.730  0.00  0.00    +0.000 A 
ATOM      7  C   UNL     1      -8.379   0.249  -0.191  0.00  0.00    +0.000 A 
ATOM      8  C   UNL     1      -7.474  -0.297  -1.104  0.00  0.00    +0.000 A 
ATOM      9  C   UNL     1      -6.144   0.122  -1.103  0.00  0.00    +0.000 A 
ENDBRANCH   1   4
BRANCH   1  10
ATOM     10  N   UNL     1      -3.173   0.373  -0.375  0.00  0.00    +0.000 NA
BRANCH  10  15
ATOM     11  C   UNL     1       2.514  -0.189   0.218  0.00  0.00    +0.000 C 
ATOM     12  C   UNL     1       1.027  -0.026   0.102  0.00  0.00    +0.000 A 
ATOM     13  C   UNL     1       0.420   1.196   0.410  0.00  0.00    +0.000 A 
ATOM     14  C   UNL     1      -0.964   1.359   0.272  0.00  0.00    +0.000 A 
ATOM     15  C   UNL     1      -1.759   0.307  -0.186  0.00  0.00    +0.000 A 
ATOM     16  C   UNL     1      -1.149  -0.909  -0.501  0.00  0.00    +0.000 A 
ATOM     17  C   UNL     1       0.233  -1.077  -0.367  0.00  0.00    +0.000 A 
ENDBRANCH  10  15
ENDBRANCH   1  10
TORSDOF 3
