REMARK  Name = *****
REMARK  2 active torsions:
REMARK  status: ('A' for Active; 'I' for Inactive)
REMARK    1  A    between atoms: C_4  and  O_7
REMARK    2  A    between atoms: O_7  and  C_8
REMARK                            x       y       z     vdW  Elec       q    Type
REMARK                         _______ _______ _______ _____ _____    ______ ____
ROOT
ATOM      1  O   UNL     1       2.939  -0.687   0.439  0.00  0.00    +0.000 OA
ENDROOT
BRANCH   1   2
ATOM      2  C   UNL     1       3.569  -1.562  -0.520  0.00  0.00    +0.000 C 
ATOM      3  C   UNL     1       5.050  -1.745  -0.322  0.00  0.00    +0.000 C 
ATOM      4  C   UNL     1       4.103  -2.861   0.044  0.00  0.00    +0.000 C 
ATOM      5  C   UNL     1       4.021  -4.104  -0.789  0.00  0.00    +0.000 C 
ATOM      6  C   UNL     1       5.260  -4.306  -1.658  0.00  0.00    +0.000 C 
ATOM      7  C   UNL     1       5.606  -3.036  -2.430  0.00  0.00    +0.000 C 
ATOM      8  C   UNL     1       5.988  -1.902  -1.480  0.00  0.00    +0.000 C 
ENDBRANCH   1   2
BRANCH   1  12
ATOM      9  C   UNL     1      -1.127  -0.398   1.600  0.00  0.00    +0.000 C 
ATOM     10  C   UNL     1      -0.448   0.833   1.006  0.00  0.00    +0.000 C 
ATOM     11  C   UNL     1       1.070   0.687   1.005  0.00  0.00    +0.000 C 
ATOM     12  C   UNL     1       1.520  -0.591   0.292  0.00  0.00    +0.000 C 
ATOM     13  C   UNL     1       0.835  -1.821   0.895  0.00  0.00    +0.000 C 
ATOM     14  C   UNL     1      -0.683  -1.678   0.898  0.00  0.00    +0.000 C 
ENDBRANCH   1  12
TORSDOF 2
