REMARK  Name = *****
REMARK  3 active torsions:
REMARK  status: ('A' for Active; 'I' for Inactive)
REMARK    1  A    between atoms: C_4  and  C_7
REMARK    2  A    between atoms: N_9  and  C_10
REMARK    3  A    between atoms: N_9  and  N_18
REMARK                            x       y       z     vdW  Elec       q    Type
REMARK                         _______ _______ _______ _____ _____    ______ ____
ROOT
ATOM      1  C   UNL     1      -2.880   0.406  -0.525  0.00  0.00    +0.000 C 
ATOM      2  O   UNL     1      -3.320   1.554  -0.408  0.00  0.00    +0.000 OA
ATOM      3  N   UNL     1      -3.718  -0.722  -0.428  0.00  0.00    +0.000 N 
ENDROOT
BRANCH   3   4
ATOM      4  C   UNL     1      -3.337  -2.073  -0.176  0.00  0.00    +0.000 A 
ATOM      5  C   UNL     1      -2.356  -2.454   0.761  0.00  0.00    +0.000 A 
ATOM      6  C   UNL     1      -2.006  -3.803   0.914  0.00  0.00    +0.000 A 
ATOM      7  C   UNL     1      -2.644  -4.788   0.161  0.00  0.00    +0.000 A 
ATOM      8  C   UNL     1      -3.650  -4.427  -0.729  0.00  0.00    +0.000 A 
ATOM      9  C   UNL     1      -4.004  -3.087  -0.889  0.00  0.00    +0.000 A 
ATOM     10 CL   UNL     1      -4.455  -5.640  -1.644  0.00  0.00    +0.000 Cl
ATOM     11 CL   UNL     1      -1.661  -1.354   1.902  0.00  0.00    +0.000 Cl
ENDBRANCH   3   4
BRANCH   1  15
ATOM     12  C   UNL     1       1.230   0.052  -1.669  0.00  0.00    +0.000 A 
ATOM     13  C   UNL     1       0.842   0.984  -0.706  0.00  0.00    +0.000 A 
ATOM     14  C   UNL     1      -0.500   1.089  -0.339  0.00  0.00    +0.000 A 
ATOM     15  C   UNL     1      -1.455   0.245  -0.921  0.00  0.00    +0.000 A 
ATOM     16  C   UNL     1      -1.066  -0.664  -1.913  0.00  0.00    +0.000 A 
ATOM     17  C   UNL     1       0.278  -0.766  -2.277  0.00  0.00    +0.000 A 
ENDBRANCH   1  15
BRANCH   3  18
ATOM     18  N   UNL     1      -5.121  -0.472  -0.542  0.00  0.00    +0.000 NA
ATOM     19  H   UNL     1      -5.276   0.520  -0.721  0.00  0.00    +0.000 HD
ATOM     20  H   UNL     1      -5.585  -0.737   0.327  0.00  0.00    +0.000 HD
ENDBRANCH   3  18
TORSDOF 3
