REMARK  Name = *****
REMARK  6 active torsions:
REMARK  status: ('A' for Active; 'I' for Inactive)
REMARK    1  A    between atoms: C_1  and  N_2
REMARK    2  A    between atoms: N_2  and  C_3
REMARK    3  A    between atoms: N_2  and  C_4
REMARK    4  A    between atoms: C_7  and  S_10
REMARK    5  A    between atoms: S_10  and  C_11
REMARK    6  A    between atoms: C_11  and  C_12
REMARK                            x       y       z     vdW  Elec       q    Type
REMARK                         _______ _______ _______ _____ _____    ______ ____
ROOT
ATOM      1  C   UNL     1       3.315  -0.981  -0.779  0.00  0.00    +0.000 A 
ATOM      2  C   UNL     1       2.767  -1.540  -1.947  0.00  0.00    +0.000 A 
ATOM      3  C   UNL     1       3.374  -2.608  -2.627  0.00  0.00    +0.000 A 
ATOM      4  C   UNL     1       4.572  -3.146  -2.168  0.00  0.00    +0.000 A 
ATOM      5  C   UNL     1       5.141  -2.616  -1.015  0.00  0.00    +0.000 A 
ATOM      6  C   UNL     1       4.525  -1.548  -0.343  0.00  0.00    +0.000 A 
ENDROOT
BRANCH   1   8
ATOM      7  C   UNL     1       1.350   0.479  -0.462  0.00  0.00    +0.000 C 
ATOM      8  N   UNL     1       2.718   0.097  -0.116  0.00  0.00    +0.000 N 
ATOM      9  C   UNL     1       3.128   0.398   1.255  0.00  0.00    +0.000 C 
ENDBRANCH   1   8
BRANCH   4  10
ATOM     10  S   UNL     1       5.373  -4.502  -2.997  0.00  0.00    +0.000 S 
BRANCH  10  11
ATOM     11  C   UNL     1       5.652  -3.741  -4.630  0.00  0.00    +0.000 C 
BRANCH  11  12
ATOM     12  C   UNL     1       6.489  -4.632  -5.515  0.00  0.00    +0.000 A 
ATOM     13  C   UNL     1       5.884  -5.623  -6.305  0.00  0.00    +0.000 A 
ATOM     14  C   UNL     1       6.661  -6.454  -7.114  0.00  0.00    +0.000 A 
ATOM     15  C   UNL     1       8.042  -6.299  -7.129  0.00  0.00    +0.000 A 
ATOM     16  C   UNL     1       8.662  -5.331  -6.349  0.00  0.00    +0.000 A 
ATOM     17  C   UNL     1       7.888  -4.499  -5.539  0.00  0.00    +0.000 A 
ATOM     18  F   UNL     1       8.787  -7.098  -7.905  0.00  0.00    +0.000 F 
ENDBRANCH  11  12
ENDBRANCH  10  11
ENDBRANCH   4  10
TORSDOF 4
