REMARK  Name = *****
REMARK  6 active torsions:
REMARK  status: ('A' for Active; 'I' for Inactive)
REMARK    1  A    between atoms: C_1  and  C_2
REMARK    2  A    between atoms: C_4  and  C_8
REMARK    3  A    between atoms: C_8  and  O_9
REMARK    4  A    between atoms: O_9  and  C_10
REMARK    5  A    between atoms: C_10  and  C_12
REMARK    6  A    between atoms: C_17  and  C_18
REMARK                            x       y       z     vdW  Elec       q    Type
REMARK                         _______ _______ _______ _____ _____    ______ ____
ROOT
ATOM      1  O   UNL     1      -0.902   3.653   0.108  0.00  0.00    +0.000 OA
ENDROOT
BRANCH   1   2
ATOM      2  C   UNL     1      -1.414   4.881  -0.153  0.00  0.00    +0.000 C 
ATOM      3  O   UNL     1      -2.568   5.104  -0.476  0.00  0.00    +0.000 OA
BRANCH   2   4
ATOM      4  C   UNL     1      -0.350   5.931   0.011  0.00  0.00    +0.000 A 
ATOM      5  C   UNL     1       0.925   5.566   0.488  0.00  0.00    +0.000 A 
ATOM      6  C   UNL     1       1.932   6.518   0.656  0.00  0.00    +0.000 A 
ATOM      7  C   UNL     1       1.683   7.850   0.352  0.00  0.00    +0.000 A 
ATOM      8  C   UNL     1       0.429   8.232  -0.121  0.00  0.00    +0.000 A 
ATOM      9  C   UNL     1      -0.600   7.287  -0.301  0.00  0.00    +0.000 A 
ATOM     10  C   UNL     1      -1.926   7.779  -0.817  0.00  0.00    +0.000 C 
ENDBRANCH   2   4
ENDBRANCH   1   2
BRANCH   1  11
ATOM     11  C   UNL     1      -1.792   2.542  -0.046  0.00  0.00    +0.000 C 
BRANCH  11  15
ATOM     12  C   UNL     1      -1.565   1.300  -4.932  0.00  0.00    +0.000 C 
ATOM     13  C   UNL     1      -1.151   1.071  -3.509  0.00  0.00    +0.000 A 
ATOM     14  C   UNL     1      -1.646   1.878  -2.476  0.00  0.00    +0.000 A 
ATOM     15  C   UNL     1      -1.265   1.655  -1.143  0.00  0.00    +0.000 A 
ATOM     16  C   UNL     1      -0.361   0.624  -0.857  0.00  0.00    +0.000 A 
ATOM     17  C   UNL     1       0.134  -0.184  -1.879  0.00  0.00    +0.000 A 
ATOM     18  C   UNL     1      -0.262   0.036  -3.198  0.00  0.00    +0.000 A 
ENDBRANCH  11  15
ENDBRANCH   1  11
TORSDOF 4
