REMARK  Name = *****
REMARK  2 active torsions:
REMARK  status: ('A' for Active; 'I' for Inactive)
REMARK    1  A    between atoms: C_4  and  C_5
REMARK    2  A    between atoms: C_6  and  C_7
REMARK                            x       y       z     vdW  Elec       q    Type
REMARK                         _______ _______ _______ _____ _____    ______ ____
ROOT
ATOM      1  C   UNL     1      -1.368  -2.208   1.067  0.00  0.00    +0.000 C 
ATOM      2  C   UNL     1      -1.904  -3.057   1.726  0.00  0.00    +0.000 C 
ENDROOT
BRANCH   1   6
ATOM      3  C   UNL     1       0.706   1.159  -0.232  0.00  0.00    +0.000 C 
ATOM      4  C   UNL     1       1.413  -0.090   0.293  0.00  0.00    +0.000 C 
ATOM      5  C   UNL     1       0.656  -1.367  -0.072  0.00  0.00    +0.000 C 
ATOM      6  C   UNL     1      -0.789  -1.283   0.354  0.00  0.00    +0.000 C 
ATOM      7  C   UNL     1      -1.516  -0.051  -0.127  0.00  0.00    +0.000 C 
ATOM      8  C   UNL     1      -0.747   1.219   0.239  0.00  0.00    +0.000 C 
ENDBRANCH   1   6
BRANCH   2   9
ATOM      9  C   UNL     1      -2.488  -3.978   2.442  0.00  0.00    +0.000 C 
ATOM     10  C   UNL     1      -1.784  -5.238   2.880  0.00  0.00    +0.000 C 
ATOM     11  C   UNL     1      -2.604  -6.480   2.528  0.00  0.00    +0.000 C 
ATOM     12  C   UNL     1      -4.038  -6.381   3.051  0.00  0.00    +0.000 C 
ATOM     13  C   UNL     1      -4.723  -5.104   2.565  0.00  0.00    +0.000 C 
ATOM     14  C   UNL     1      -3.915  -3.856   2.918  0.00  0.00    +0.000 C 
ENDBRANCH   2   9
TORSDOF 2
