REMARK  Name = *****
REMARK  6 active torsions:
REMARK  status: ('A' for Active; 'I' for Inactive)
REMARK    1  A    between atoms: C_1  and  C_2
REMARK    2  A    between atoms: C_5  and  C_8
REMARK    3  A    between atoms: C_8  and  O_10
REMARK    4  A    between atoms: O_10  and  C_11
REMARK    5  A    between atoms: C_13  and  C_18
REMARK    6  A    between atoms: C_14  and  C_17
REMARK                            x       y       z     vdW  Elec       q    Type
REMARK                         _______ _______ _______ _____ _____    ______ ____
ROOT
ATOM      1  C   UNL     1      -3.874   0.039   1.419  0.00  0.00    +0.000 C 
ATOM      2  O   UNL     1      -4.193  -1.049   0.962  0.00  0.00    +0.000 OA
ENDROOT
BRANCH   1   7
ATOM      3  C   UNL     1       1.112   0.744   4.306  0.00  0.00    +0.000 C 
ATOM      4  C   UNL     1      -0.164   0.584   3.534  0.00  0.00    +0.000 A 
ATOM      5  C   UNL     1      -0.533  -0.666   3.026  0.00  0.00    +0.000 A 
ATOM      6  C   UNL     1      -1.739  -0.822   2.336  0.00  0.00    +0.000 A 
ATOM      7  C   UNL     1      -2.599   0.269   2.155  0.00  0.00    +0.000 A 
ATOM      8  C   UNL     1      -2.238   1.518   2.675  0.00  0.00    +0.000 A 
ATOM      9  C   UNL     1      -1.030   1.671   3.364  0.00  0.00    +0.000 A 
ENDBRANCH   1   7
BRANCH   1  10
ATOM     10  O   UNL     1      -4.592   1.219   1.352  0.00  0.00    +0.000 OA
BRANCH  10  11
ATOM     11  C   UNL     1      -5.837   1.127   0.719  0.00  0.00    +0.000 A 
ATOM     12  C   UNL     1      -6.874   0.386   1.284  0.00  0.00    +0.000 A 
ATOM     13  C   UNL     1      -8.134   0.359   0.667  0.00  0.00    +0.000 A 
ATOM     14  C   UNL     1      -8.340   1.098  -0.518  0.00  0.00    +0.000 A 
ATOM     15  C   UNL     1      -7.283   1.856  -1.053  0.00  0.00    +0.000 A 
ATOM     16  C   UNL     1      -6.035   1.877  -0.433  0.00  0.00    +0.000 A 
ATOM     17  C   UNL     1      -9.672   1.098  -1.218  0.00  0.00    +0.000 C 
ATOM     18  C   UNL     1      -9.233  -0.466   1.278  0.00  0.00    +0.000 C 
ENDBRANCH  10  11
ENDBRANCH   1  10
TORSDOF 3
