REMARK  Name = *****
REMARK  4 active torsions:
REMARK  status: ('A' for Active; 'I' for Inactive)
REMARK    1  A    between atoms: C_5  and  C_7
REMARK    2  A    between atoms: C_7  and  C_9
REMARK    3  A    between atoms: C_9  and  C_10
REMARK    4  A    between atoms: C_10  and  C_11
REMARK                            x       y       z     vdW  Elec       q    Type
REMARK                         _______ _______ _______ _____ _____    ______ ____
ROOT
ATOM      1  C   UNL     1       0.892  -2.474   0.043  0.00  0.00    +0.000 C 
ATOM      2  O   UNL     1       0.240  -3.518   0.078  0.00  0.00    +0.000 OA
ENDROOT
BRANCH   1   7
ATOM      3  C   UNL     1      -1.983  -0.018  -0.036  0.00  0.00    +0.000 A 
ATOM      4  C   UNL     1      -1.328   1.212  -0.047  0.00  0.00    +0.000 A 
ATOM      5  C   UNL     1       0.065   1.253  -0.029  0.00  0.00    +0.000 A 
ATOM      6  C   UNL     1       0.799   0.067   0.001  0.00  0.00    +0.000 A 
ATOM      7  C   UNL     1       0.159  -1.174   0.012  0.00  0.00    +0.000 A 
ATOM      8  C   UNL     1      -1.245  -1.204  -0.007  0.00  0.00    +0.000 A 
ATOM      9  F   UNL     1       2.135   0.169   0.020  0.00  0.00    +0.000 F 
ENDBRANCH   1   7
BRANCH   1  10
ATOM     10  C   UNL     1       2.409  -2.479   0.032  0.00  0.00    +0.000 C 
BRANCH  10  11
ATOM     11  C   UNL     1       2.968  -3.903   0.041  0.00  0.00    +0.000 C 
BRANCH  11  12
ATOM     12  C   UNL     1       4.477  -3.903   0.029  0.00  0.00    +0.000 A 
ATOM     13  C   UNL     1       5.178  -3.891  -1.186  0.00  0.00    +0.000 A 
ATOM     14  C   UNL     1       6.573  -3.868  -1.190  0.00  0.00    +0.000 A 
ATOM     15  C   UNL     1       7.283  -3.853   0.009  0.00  0.00    +0.000 A 
ATOM     16  C   UNL     1       6.594  -3.860   1.221  0.00  0.00    +0.000 A 
ATOM     17  C   UNL     1       5.198  -3.882   1.231  0.00  0.00    +0.000 A 
ATOM     18 CL   UNL     1       7.422  -3.854  -2.686  0.00  0.00    +0.000 Cl
ENDBRANCH  11  12
ENDBRANCH  10  11
ENDBRANCH   1  10
TORSDOF 4
