REMARK  Name = *****
REMARK  2 active torsions:
REMARK  status: ('A' for Active; 'I' for Inactive)
REMARK    1  A    between atoms: C_4  and  C_7
REMARK    2  A    between atoms: N_8  and  C_9
REMARK                            x       y       z     vdW  Elec       q    Type
REMARK                         _______ _______ _______ _____ _____    ______ ____
ROOT
ATOM      1  C   UNL     1      -2.853   0.367  -0.273  0.00  0.00    +0.000 C 
ATOM      2  N   UNL     1      -3.661  -0.610  -0.539  0.00  0.00    +0.000 NA
ENDROOT
BRANCH   2   3
ATOM      3  C   UNL     1      -5.031  -0.313  -0.671  0.00  0.00    +0.000 A 
ATOM      4  C   UNL     1      -5.536   0.695  -1.505  0.00  0.00    +0.000 A 
ATOM      5  C   UNL     1      -6.907   0.906  -1.609  0.00  0.00    +0.000 A 
ATOM      6  C   UNL     1      -7.805   0.117  -0.899  0.00  0.00    +0.000 A 
ATOM      7  C   UNL     1      -7.322  -0.900  -0.077  0.00  0.00    +0.000 A 
ATOM      8  C   UNL     1      -5.943  -1.114   0.029  0.00  0.00    +0.000 A 
ATOM      9  F   UNL     1      -7.378   1.882  -2.399  0.00  0.00    +0.000 F 
ATOM     10  F   UNL     1      -4.698   1.474  -2.209  0.00  0.00    +0.000 F 
ENDBRANCH   2   3
BRANCH   1  14
ATOM     11  C   UNL     1       1.353  -0.184   0.160  0.00  0.00    +0.000 A 
ATOM     12  C   UNL     1       0.539  -1.284  -0.115  0.00  0.00    +0.000 A 
ATOM     13  C   UNL     1      -0.839  -1.114  -0.260  0.00  0.00    +0.000 A 
ATOM     14  C   UNL     1      -1.399   0.160  -0.127  0.00  0.00    +0.000 A 
ATOM     15  C   UNL     1      -0.585   1.263   0.148  0.00  0.00    +0.000 A 
ATOM     16  C   UNL     1       0.793   1.087   0.291  0.00  0.00    +0.000 A 
ENDBRANCH   1  14
TORSDOF 2
