REMARK  Name = *****
REMARK  6 active torsions:
REMARK  status: ('A' for Active; 'I' for Inactive)
REMARK    1  A    between atoms: C_1  and  C_2
REMARK    2  A    between atoms: C_4  and  C_17
REMARK    3  A    between atoms: C_5  and  C_8
REMARK    4  A    between atoms: C_8  and  N_9
REMARK    5  A    between atoms: N_9  and  C_10
REMARK    6  A    between atoms: C_10  and  C_11
REMARK                            x       y       z     vdW  Elec       q    Type
REMARK                         _______ _______ _______ _____ _____    ______ ____
ROOT
ATOM      1  C   UNL     1      -2.340  -1.951   0.235  0.00  0.00    +0.000 C 
ENDROOT
BRANCH   1   6
ATOM      2  C   UNL     1       2.492   1.328  -0.113  0.00  0.00    +0.000 C 
ATOM      3  C   UNL     1       1.246   0.499  -0.025  0.00  0.00    +0.000 A 
ATOM      4  C   UNL     1      -0.021   1.091  -0.064  0.00  0.00    +0.000 A 
ATOM      5  C   UNL     1      -1.192   0.316   0.018  0.00  0.00    +0.000 A 
ATOM      6  C   UNL     1      -1.094  -1.090   0.123  0.00  0.00    +0.000 A 
ATOM      7  C   UNL     1       0.184  -1.671   0.167  0.00  0.00    +0.000 A 
ATOM      8  C   UNL     1       1.339  -0.889   0.090  0.00  0.00    +0.000 A 
ATOM      9  C   UNL     1      -2.527   1.010  -0.029  0.00  0.00    +0.000 C 
ENDBRANCH   1   6
BRANCH   1  10
ATOM     10  N   UNL     1      -2.084  -3.394   0.093  0.00  0.00    +0.000 NA
BRANCH  10  11
ATOM     11  C   UNL     1      -3.021  -4.137   0.575  0.00  0.00    +0.000 C 
BRANCH  11  12
ATOM     12  C   UNL     1      -2.944  -5.611   0.538  0.00  0.00    +0.000 A 
ATOM     13  C   UNL     1      -1.859  -6.256  -0.063  0.00  0.00    +0.000 A 
ATOM     14  C   UNL     1      -1.806  -7.650  -0.084  0.00  0.00    +0.000 A 
ATOM     15  C   UNL     1      -2.833  -8.396   0.495  0.00  0.00    +0.000 A 
ATOM     16  C   UNL     1      -3.916  -7.751   1.095  0.00  0.00    +0.000 A 
ATOM     17  C   UNL     1      -3.974  -6.356   1.117  0.00  0.00    +0.000 A 
ENDBRANCH  11  12
ENDBRANCH  10  11
ENDBRANCH   1  10
TORSDOF 4
