REMARK  Name = *****
REMARK  5 active torsions:
REMARK  status: ('A' for Active; 'I' for Inactive)
REMARK    1  A    between atoms: C_1  and  C_2
REMARK    2  A    between atoms: C_4  and  O_8
REMARK    3  A    between atoms: O_8  and  C_9
REMARK    4  A    between atoms: C_9  and  O_11
REMARK    5  A    between atoms: O_11  and  C_12
REMARK                            x       y       z     vdW  Elec       q    Type
REMARK                         _______ _______ _______ _____ _____    ______ ____
ROOT
ATOM      1  C   UNL     1      -1.464   3.257   0.891  0.00  0.00    +0.000 C 
ATOM      2  O   UNL     1      -0.656   3.091   1.796  0.00  0.00    +0.000 OA
ENDROOT
BRANCH   1   3
ATOM      3  O   UNL     1      -1.727   2.380  -0.152  0.00  0.00    +0.000 OA
BRANCH   3   7
ATOM      4  C   UNL     1       2.549   0.005  -0.851  0.00  0.00    +0.000 C 
ATOM      5  C   UNL     1       1.099   0.016  -0.465  0.00  0.00    +0.000 A 
ATOM      6  C   UNL     1       0.376   1.214  -0.463  0.00  0.00    +0.000 A 
ATOM      7  C   UNL     1      -0.976   1.202  -0.116  0.00  0.00    +0.000 A 
ATOM      8  C   UNL     1      -1.636   0.013   0.183  0.00  0.00    +0.000 A 
ATOM      9  C   UNL     1      -0.922  -1.183   0.166  0.00  0.00    +0.000 A 
ATOM     10  C   UNL     1       0.437  -1.182  -0.158  0.00  0.00    +0.000 A 
ENDBRANCH   3   7
ENDBRANCH   1   3
BRANCH   1  11
ATOM     11  O   UNL     1      -2.291   4.360   0.718  0.00  0.00    +0.000 OA
BRANCH  11  12
ATOM     12  C   UNL     1      -2.191   5.358   1.694  0.00  0.00    +0.000 A 
ATOM     13  C   UNL     1      -1.831   6.637   1.271  0.00  0.00    +0.000 A 
ATOM     14  C   UNL     1      -1.776   7.674   2.201  0.00  0.00    +0.000 A 
ATOM     15  C   UNL     1      -2.094   7.430   3.539  0.00  0.00    +0.000 A 
ATOM     16  C   UNL     1      -2.474   6.150   3.949  0.00  0.00    +0.000 A 
ATOM     17  C   UNL     1      -2.534   5.109   3.023  0.00  0.00    +0.000 A 
ENDBRANCH  11  12
ENDBRANCH   1  11
TORSDOF 4
