REMARK  Name = *****
REMARK  5 active torsions:
REMARK  status: ('A' for Active; 'I' for Inactive)
REMARK    1  A    between atoms: C_1  and  C_2
REMARK    2  A    between atoms: C_4  and  C_18
REMARK    3  A    between atoms: C_6  and  O_8
REMARK    4  A    between atoms: O_8  and  C_9
REMARK    5  A    between atoms: C_9  and  C_11
REMARK                            x       y       z     vdW  Elec       q    Type
REMARK                         _______ _______ _______ _____ _____    ______ ____
ROOT
ATOM      1  O   UNL     1      -0.031  -2.963  -1.083  0.00  0.00    +0.000 OA
ENDROOT
BRANCH   1   7
ATOM      2  C   UNL     1       2.527   1.215  -0.265  0.00  0.00    +0.000 C 
ATOM      3  C   UNL     1       1.244   0.439  -0.295  0.00  0.00    +0.000 A 
ATOM      4  C   UNL     1       0.046   1.033   0.131  0.00  0.00    +0.000 A 
ATOM      5  C   UNL     1      -1.158   0.314   0.130  0.00  0.00    +0.000 A 
ATOM      6  C   UNL     1      -1.148  -1.029  -0.262  0.00  0.00    +0.000 A 
ATOM      7  C   UNL     1       0.049  -1.629  -0.651  0.00  0.00    +0.000 A 
ATOM      8  C   UNL     1       1.239  -0.904  -0.689  0.00  0.00    +0.000 A 
ATOM      9  C   UNL     1      -2.428   0.957   0.602  0.00  0.00    +0.000 C 
ENDBRANCH   1   7
BRANCH   1  10
ATOM     10  C   UNL     1       0.868  -3.875  -0.565  0.00  0.00    +0.000 C 
ATOM     11  O   UNL     1       1.787  -3.664   0.213  0.00  0.00    +0.000 OA
BRANCH  10  12
ATOM     12  C   UNL     1       0.625  -5.204  -1.163  0.00  0.00    +0.000 A 
ATOM     13  C   UNL     1       1.714  -6.075  -1.314  0.00  0.00    +0.000 A 
ATOM     14  C   UNL     1       1.529  -7.342  -1.871  0.00  0.00    +0.000 A 
ATOM     15  C   UNL     1       0.255  -7.750  -2.270  0.00  0.00    +0.000 A 
ATOM     16  C   UNL     1      -0.833  -6.894  -2.106  0.00  0.00    +0.000 A 
ATOM     17  C   UNL     1      -0.646  -5.628  -1.551  0.00  0.00    +0.000 A 
ATOM     18  F   UNL     1      -1.725  -4.852  -1.379  0.00  0.00    +0.000 F 
ENDBRANCH  10  12
ENDBRANCH   1  10
TORSDOF 3
