REMARK  Name = *****
REMARK  3 active torsions:
REMARK  status: ('A' for Active; 'I' for Inactive)
REMARK    1  A    between atoms: C_1  and  C_2
REMARK    2  A    between atoms: C_2  and  C_11
REMARK    3  A    between atoms: N_3  and  C_4
REMARK                            x       y       z     vdW  Elec       q    Type
REMARK                         _______ _______ _______ _____ _____    ______ ____
ROOT
ATOM      1  C   UNL     1       1.112  -0.947   0.348  0.00  0.00    +0.000 C 
ATOM      2  C   UNL     1       2.406  -0.205   0.067  0.00  0.00    +0.000 C 
ATOM      3  N   UNL     1       2.896  -0.022  -1.126  0.00  0.00    +0.000 NA
ENDROOT
BRANCH   3   4
ATOM      4  C   UNL     1       2.219  -0.505  -2.251  0.00  0.00    +0.000 A 
ATOM      5  C   UNL     1       1.204   0.251  -2.848  0.00  0.00    +0.000 A 
ATOM      6  C   UNL     1       0.549  -0.222  -3.986  0.00  0.00    +0.000 A 
ATOM      7  C   UNL     1       0.924  -1.445  -4.530  0.00  0.00    +0.000 A 
ATOM      8  C   UNL     1       1.945  -2.200  -3.963  0.00  0.00    +0.000 A 
ATOM      9  C   UNL     1       2.598  -1.723  -2.825  0.00  0.00    +0.000 A 
ATOM     10  F   UNL     1       0.297  -1.901  -5.623  0.00  0.00    +0.000 F 
ENDBRANCH   3   4
BRANCH   2  11
ATOM     11  C   UNL     1       3.157   0.362   1.230  0.00  0.00    +0.000 A 
ATOM     12  C   UNL     1       2.501   0.750   2.407  0.00  0.00    +0.000 A 
ATOM     13  C   UNL     1       3.233   1.283   3.471  0.00  0.00    +0.000 A 
ATOM     14  C   UNL     1       4.610   1.434   3.354  0.00  0.00    +0.000 A 
ATOM     15  C   UNL     1       5.273   1.066   2.189  0.00  0.00    +0.000 A 
ATOM     16  C   UNL     1       4.545   0.534   1.123  0.00  0.00    +0.000 A 
ATOM     17  F   UNL     1       5.306   1.946   4.376  0.00  0.00    +0.000 F 
ENDBRANCH   2  11
TORSDOF 2
