REMARK  Name = *****
REMARK  3 active torsions:
REMARK  status: ('A' for Active; 'I' for Inactive)
REMARK    1  A    between atoms: C_4  and  C_7
REMARK    2  A    between atoms: C_7  and  C_8
REMARK    3  A    between atoms: C_8  and  C_9
REMARK                            x       y       z     vdW  Elec       q    Type
REMARK                         _______ _______ _______ _____ _____    ______ ____
ROOT
ATOM      1  C   UNL     1      -3.658  -0.895  -0.430  0.00  0.00    +0.000 C 
ENDROOT
BRANCH   1   2
ATOM      2  C   UNL     1      -5.116  -0.538  -0.622  0.00  0.00    +0.000 A 
ATOM      3  C   UNL     1      -5.594  -0.340  -1.930  0.00  0.00    +0.000 A 
ATOM      4  C   UNL     1      -6.926   0.004  -2.163  0.00  0.00    +0.000 A 
ATOM      5  C   UNL     1      -7.803   0.161  -1.093  0.00  0.00    +0.000 A 
ATOM      6  C   UNL     1      -7.345  -0.024   0.211  0.00  0.00    +0.000 A 
ATOM      7  C   UNL     1      -6.010  -0.369   0.448  0.00  0.00    +0.000 A 
ATOM      8 CL   UNL     1      -5.518  -0.573   2.092  0.00  0.00    +0.000 Cl
ENDBRANCH   1   2
BRANCH   1   9
ATOM      9  C   UNL     1      -2.790   0.346  -0.179  0.00  0.00    +0.000 C 
BRANCH   9  13
ATOM     10  C   UNL     1       1.499  -0.147   0.146  0.00  0.00    +0.000 A 
ATOM     11  C   UNL     1       0.688  -1.278   0.079  0.00  0.00    +0.000 A 
ATOM     12  C   UNL     1      -0.699  -1.145  -0.026  0.00  0.00    +0.000 A 
ATOM     13  C   UNL     1      -1.296   0.122  -0.073  0.00  0.00    +0.000 A 
ATOM     14  C   UNL     1      -0.464   1.252   0.003  0.00  0.00    +0.000 A 
ATOM     15  C   UNL     1       0.922   1.119   0.110  0.00  0.00    +0.000 A 
ENDBRANCH   9  13
ENDBRANCH   1   9
TORSDOF 3
