REMARK  Name = *****
REMARK  4 active torsions:
REMARK  status: ('A' for Active; 'I' for Inactive)
REMARK    1  A    between atoms: C_1  and  C_2
REMARK    2  A    between atoms: C_5  and  C_8
REMARK    3  A    between atoms: C_8  and  O_10
REMARK    4  A    between atoms: O_10  and  C_11
REMARK                            x       y       z     vdW  Elec       q    Type
REMARK                         _______ _______ _______ _____ _____    ______ ____
ROOT
ATOM      1  C   UNL     1      -2.939  -0.460   0.969  0.00  0.00    +0.000 C 
ATOM      2  O   UNL     1      -3.541  -1.500   0.747  0.00  0.00    +0.000 OA
ENDROOT
BRANCH   1   7
ATOM      3  C   UNL     1       2.505   0.330  -0.884  0.00  0.00    +0.000 C 
ATOM      4  C   UNL     1       1.088   0.151  -0.424  0.00  0.00    +0.000 A 
ATOM      5  C   UNL     1       0.441   1.167   0.289  0.00  0.00    +0.000 A 
ATOM      6  C   UNL     1      -0.868   0.991   0.748  0.00  0.00    +0.000 A 
ATOM      7  C   UNL     1      -1.545  -0.211   0.506  0.00  0.00    +0.000 A 
ATOM      8  C   UNL     1      -0.892  -1.234  -0.196  0.00  0.00    +0.000 A 
ATOM      9  C   UNL     1       0.416  -1.056  -0.652  0.00  0.00    +0.000 A 
ENDBRANCH   1   7
BRANCH   1  10
ATOM     10  O   UNL     1      -3.406   0.643   1.661  0.00  0.00    +0.000 OA
BRANCH  10  11
ATOM     11  C   UNL     1      -4.704   0.526   2.171  0.00  0.00    +0.000 A 
ATOM     12  C   UNL     1      -5.004  -0.403   3.169  0.00  0.00    +0.000 A 
ATOM     13  C   UNL     1      -6.297  -0.446   3.691  0.00  0.00    +0.000 A 
ATOM     14  C   UNL     1      -7.257   0.447   3.222  0.00  0.00    +0.000 A 
ATOM     15  C   UNL     1      -6.950   1.388   2.242  0.00  0.00    +0.000 A 
ATOM     16  C   UNL     1      -5.660   1.435   1.714  0.00  0.00    +0.000 A 
ATOM     17  F   UNL     1      -8.496   0.406   3.728  0.00  0.00    +0.000 F 
ENDBRANCH  10  11
ENDBRANCH   1  10
TORSDOF 3
