REMARK  Name = *****
REMARK  2 active torsions:
REMARK  status: ('A' for Active; 'I' for Inactive)
REMARK    1  A    between atoms: C_1  and  C_9
REMARK    2  A    between atoms: C_2  and  C_3
REMARK                            x       y       z     vdW  Elec       q    Type
REMARK                         _______ _______ _______ _____ _____    ______ ____
ROOT
ATOM      1  C   UNL     1       2.072  -0.196   0.040  0.00  0.00    +0.000 C 
ATOM      2  C   UNL     1       2.644   0.687   0.876  0.00  0.00    +0.000 C 
ENDROOT
BRANCH   2   3
ATOM      3  C   UNL     1       1.951   1.509   1.888  0.00  0.00    +0.000 A 
ATOM      4  C   UNL     1       0.564   1.496   2.086  0.00  0.00    +0.000 A 
ATOM      5  C   UNL     1      -0.031   2.302   3.062  0.00  0.00    +0.000 A 
ATOM      6  C   UNL     1       0.754   3.135   3.855  0.00  0.00    +0.000 A 
ATOM      7  C   UNL     1       2.133   3.163   3.673  0.00  0.00    +0.000 A 
ATOM      8  C   UNL     1       2.726   2.357   2.696  0.00  0.00    +0.000 A 
ENDBRANCH   2   3
BRANCH   1   9
ATOM      9  C   UNL     1       2.831  -0.977  -0.948  0.00  0.00    +0.000 A 
ATOM     10  C   UNL     1       4.050  -1.593  -0.634  0.00  0.00    +0.000 A 
ATOM     11  C   UNL     1       4.728  -2.354  -1.590  0.00  0.00    +0.000 A 
ATOM     12  C   UNL     1       4.189  -2.516  -2.864  0.00  0.00    +0.000 A 
ATOM     13  C   UNL     1       2.969  -1.922  -3.183  0.00  0.00    +0.000 A 
ATOM     14  C   UNL     1       2.291  -1.161  -2.228  0.00  0.00    +0.000 A 
ENDBRANCH   1   9
TORSDOF 2
