REMARK  Name = *****
REMARK  4 active torsions:
REMARK  status: ('A' for Active; 'I' for Inactive)
REMARK    1  A    between atoms: C_1  and  C_2
REMARK    2  A    between atoms: C_5  and  S_8
REMARK    3  A    between atoms: S_8  and  C_10
REMARK    4  A    between atoms: C_10  and  C_12
REMARK                            x       y       z     vdW  Elec       q    Type
REMARK                         _______ _______ _______ _____ _____    ______ ____
ROOT
ATOM      1  S   UNL     1      -3.720  -0.311  -0.964  0.00  0.00    +0.000 S 
ATOM      2  O   UNL     1      -4.717  -0.980  -0.063  0.00  0.00    +0.000 OA
ENDROOT
BRANCH   1   7
ATOM      3  C   UNL     1       1.629  -0.560   1.997  0.00  0.00    +0.000 C 
ATOM      4  C   UNL     1       0.315  -0.529   1.274  0.00  0.00    +0.000 A 
ATOM      5  C   UNL     1       0.277  -0.480  -0.125  0.00  0.00    +0.000 A 
ATOM      6  C   UNL     1      -0.945  -0.422  -0.799  0.00  0.00    +0.000 A 
ATOM      7  C   UNL     1      -2.144  -0.396  -0.079  0.00  0.00    +0.000 A 
ATOM      8  C   UNL     1      -2.109  -0.437   1.318  0.00  0.00    +0.000 A 
ATOM      9  C   UNL     1      -0.887  -0.495   1.991  0.00  0.00    +0.000 A 
ENDBRANCH   1   7
BRANCH   1  10
ATOM     10  C   UNL     1      -4.015   1.458  -0.858  0.00  0.00    +0.000 C 
ATOM     11  C   UNL     1      -3.303   2.276  -1.650  0.00  0.00    +0.000 C 
BRANCH  10  12
ATOM     12  C   UNL     1      -5.063   2.001   0.020  0.00  0.00    +0.000 A 
ATOM     13  C   UNL     1      -6.409   1.660  -0.167  0.00  0.00    +0.000 A 
ATOM     14  C   UNL     1      -7.398   2.195   0.662  0.00  0.00    +0.000 A 
ATOM     15  C   UNL     1      -7.053   3.078   1.683  0.00  0.00    +0.000 A 
ATOM     16  C   UNL     1      -5.717   3.425   1.879  0.00  0.00    +0.000 A 
ATOM     17  C   UNL     1      -4.727   2.890   1.052  0.00  0.00    +0.000 A 
ENDBRANCH  10  12
ENDBRANCH   1  10
TORSDOF 3
