REMARK  Name = *****
REMARK  3 active torsions:
REMARK  status: ('A' for Active; 'I' for Inactive)
REMARK    1  A    between atoms: C_4  and  C_7
REMARK    2  A    between atoms: C_8  and  C_9
REMARK    3  A    between atoms: C_14  and  C_15
REMARK                            x       y       z     vdW  Elec       q    Type
REMARK                         _______ _______ _______ _____ _____    ______ ____
ROOT
ATOM      1  C   UNL     1       5.524   0.306  -0.649  0.00  0.00    +0.000 A 
ATOM      2  C   UNL     1       6.119   1.572  -0.726  0.00  0.00    +0.000 A 
ATOM      3  C   UNL     1       7.502   1.700  -0.897  0.00  0.00    +0.000 A 
ATOM      4  C   UNL     1       8.302   0.556  -0.992  0.00  0.00    +0.000 A 
ATOM      5  C   UNL     1       7.716  -0.710  -0.915  0.00  0.00    +0.000 A 
ATOM      6  C   UNL     1       6.329  -0.838  -0.744  0.00  0.00    +0.000 A 
ATOM      7 CL   UNL     1      10.014   0.639  -1.203  0.00  0.00    +0.000 Cl
ATOM      8 CL   UNL     1       8.155   3.297  -0.982  0.00  0.00    +0.000 Cl
ENDROOT
BRANCH   1  10
ATOM      9  C   UNL     1       2.912   0.184  -0.333  0.00  0.00    +0.000 C 
ATOM     10  C   UNL     1       4.104   0.238  -0.476  0.00  0.00    +0.000 C 
BRANCH   9  14
ATOM     11  C   UNL     1      -1.278  -0.018   0.159  0.00  0.00    +0.000 A 
ATOM     12  C   UNL     1      -0.644   1.222   0.077  0.00  0.00    +0.000 A 
ATOM     13  C   UNL     1       0.741   1.290  -0.085  0.00  0.00    +0.000 A 
ATOM     14  C   UNL     1       1.493   0.116  -0.166  0.00  0.00    +0.000 A 
ATOM     15  C   UNL     1       0.857  -1.125  -0.084  0.00  0.00    +0.000 A 
ATOM     16  C   UNL     1      -0.528  -1.191   0.078  0.00  0.00    +0.000 A 
ENDBRANCH   9  14
ENDBRANCH   1  10
BRANCH   6  17
ATOM     17  C   UNL     1       5.754  -2.201  -0.669  0.00  0.00    +0.000 C 
ATOM     18  O   UNL     1       6.460  -3.199  -0.754  0.00  0.00    +0.000 OA
ENDBRANCH   6  17
TORSDOF 3
