REMARK  Name = *****
REMARK  4 active torsions:
REMARK  status: ('A' for Active; 'I' for Inactive)
REMARK    1  A    between atoms: C_1  and  O_2
REMARK    2  A    between atoms: O_2  and  C_3
REMARK    3  A    between atoms: C_8  and  C_9
REMARK    4  A    between atoms: C_10  and  C_11
REMARK                            x       y       z     vdW  Elec       q    Type
REMARK                         _______ _______ _______ _____ _____    ______ ____
ROOT
ATOM      1  C   UNL     1       3.394  -0.260  -1.128  0.00  0.00    +0.000 A 
ATOM      2  C   UNL     1       3.086  -0.254  -2.495  0.00  0.00    +0.000 A 
ATOM      3  C   UNL     1       3.283  -1.397  -3.274  0.00  0.00    +0.000 A 
ATOM      4  C   UNL     1       3.794  -2.556  -2.699  0.00  0.00    +0.000 A 
ATOM      5  C   UNL     1       4.105  -2.576  -1.341  0.00  0.00    +0.000 A 
ATOM      6  C   UNL     1       3.901  -1.439  -0.543  0.00  0.00    +0.000 A 
ENDROOT
BRANCH   1   8
ATOM      7  C   UNL     1       2.715   2.016  -0.858  0.00  0.00    +0.000 C 
ATOM      8  O   UNL     1       3.252   0.825  -0.300  0.00  0.00    +0.000 OA
ENDBRANCH   1   8
BRANCH   6   9
ATOM      9  C   UNL     1       4.264  -1.545   0.879  0.00  0.00    +0.000 C 
ATOM     10  C   UNL     1       3.379  -1.361   1.871  0.00  0.00    +0.000 C 
BRANCH  10  11
ATOM     11  C   UNL     1       3.725  -1.467   3.334  0.00  0.00    +0.000 C 
ATOM     12  C   UNL     1       2.892  -2.571   4.003  0.00  0.00    +0.000 C 
ATOM     13  C   UNL     1       3.174  -2.657   5.502  0.00  0.00    +0.000 C 
ATOM     14  C   UNL     1       2.965  -1.313   6.192  0.00  0.00    +0.000 C 
ATOM     15  C   UNL     1       3.785  -0.209   5.532  0.00  0.00    +0.000 C 
ATOM     16  C   UNL     1       3.503  -0.117   4.034  0.00  0.00    +0.000 C 
ENDBRANCH  10  11
ENDBRANCH   6   9
TORSDOF 3
