REMARK  Name = *****
REMARK  3 active torsions:
REMARK  status: ('A' for Active; 'I' for Inactive)
REMARK    1  A    between atoms: C_1  and  C_2
REMARK    2  A    between atoms: C_4  and  C_18
REMARK    3  A    between atoms: C_6  and  C_8
REMARK                            x       y       z     vdW  Elec       q    Type
REMARK                         _______ _______ _______ _____ _____    ______ ____
ROOT
ATOM      1  C   UNL     1       0.033  -3.261   0.198  0.00  0.00    +0.000 A 
ATOM      2  N   UNL     1      -1.000  -4.088   0.225  0.00  0.00    +0.000 NA
ATOM      3  C   UNL     1      -0.426  -5.330   0.299  0.00  0.00    +0.000 A 
ATOM      4  C   UNL     1       0.954  -5.210   0.315  0.00  0.00    +0.000 A 
ATOM      5  O   UNL     1       1.258  -3.883   0.250  0.00  0.00    +0.000 OA
ATOM      6  C   UNL     1       1.844  -6.274   0.384  0.00  0.00    +0.000 A 
ATOM      7  C   UNL     1       1.254  -7.541   0.441  0.00  0.00    +0.000 A 
ATOM      8  C   UNL     1      -0.136  -7.713   0.428  0.00  0.00    +0.000 A 
ATOM      9  C   UNL     1      -0.998  -6.607   0.357  0.00  0.00    +0.000 A 
ATOM     10 CL   UNL     1       2.270  -8.930   0.529  0.00  0.00    +0.000 Cl
ENDROOT
BRANCH   1  16
ATOM     11  C   UNL     1       2.506   1.102  -0.050  0.00  0.00    +0.000 C 
ATOM     12  C   UNL     1       1.218   0.336   0.017  0.00  0.00    +0.000 A 
ATOM     13  C   UNL     1      -0.011   1.003  -0.058  0.00  0.00    +0.000 A 
ATOM     14  C   UNL     1      -1.215   0.291  -0.018  0.00  0.00    +0.000 A 
ATOM     15  C   UNL     1      -1.179  -1.108   0.059  0.00  0.00    +0.000 A 
ATOM     16  C   UNL     1       0.039  -1.802   0.119  0.00  0.00    +0.000 A 
ATOM     17  C   UNL     1       1.233  -1.064   0.095  0.00  0.00    +0.000 A 
ATOM     18  C   UNL     1      -2.529   1.009  -0.125  0.00  0.00    +0.000 C 
ENDBRANCH   1  16
TORSDOF 1
