REMARK  Name = *****
REMARK  5 active torsions:
REMARK  status: ('A' for Active; 'I' for Inactive)
REMARK    1  A    between atoms: C_1  and  S_2
REMARK    2  A    between atoms: S_2  and  C_3
REMARK    3  A    between atoms: S_2  and  C_12
REMARK    4  A    between atoms: C_3  and  C_4
REMARK    5  A    between atoms: C_7  and  C_10
REMARK                            x       y       z     vdW  Elec       q    Type
REMARK                         _______ _______ _______ _____ _____    ______ ____
ROOT
ATOM      1  C   UNL     1       3.155  -0.608  -1.470  0.00  0.00    +0.000 C 
ENDROOT
BRANCH   1   2
ATOM      2  C   UNL     1       4.607  -0.818  -1.822  0.00  0.00    +0.000 A 
ATOM      3  C   UNL     1       5.212  -2.067  -1.623  0.00  0.00    +0.000 A 
ATOM      4  C   UNL     1       6.562  -2.259  -1.928  0.00  0.00    +0.000 A 
ATOM      5  C   UNL     1       7.325  -1.200  -2.429  0.00  0.00    +0.000 A 
ATOM      6  C   UNL     1       6.731   0.050  -2.624  0.00  0.00    +0.000 A 
ATOM      7  C   UNL     1       5.380   0.240  -2.321  0.00  0.00    +0.000 A 
BRANCH   5   8
ATOM      8  C   UNL     1       8.711  -1.394  -2.738  0.00  0.00    +0.000 C 
ATOM      9  N   UNL     1       9.833  -1.552  -2.990  0.00  0.00    +0.000 NA
ENDBRANCH   5   8
ENDBRANCH   1   2
BRANCH   1  11
ATOM     10  C   UNL     1       1.137  -0.153   0.271  0.00  0.00    +0.000 C 
ATOM     11  S   UNL     1       2.931  -0.342   0.316  0.00  0.00    +0.000 S 
BRANCH  11  12
ATOM     12  C   UNL     1       3.451   1.377   0.436  0.00  0.00    +0.000 A 
ATOM     13  C   UNL     1       2.849   2.430  -0.257  0.00  0.00    +0.000 A 
ATOM     14  C   UNL     1       3.329   3.736  -0.115  0.00  0.00    +0.000 A 
ATOM     15  C   UNL     1       4.414   3.997   0.718  0.00  0.00    +0.000 A 
ATOM     16  C   UNL     1       5.022   2.953   1.410  0.00  0.00    +0.000 A 
ATOM     17  C   UNL     1       4.542   1.650   1.270  0.00  0.00    +0.000 A 
ENDBRANCH  11  12
ENDBRANCH   1  11
TORSDOF 4
