REMARK  Name = *****
REMARK  6 active torsions:
REMARK  status: ('A' for Active; 'I' for Inactive)
REMARK    1  A    between atoms: C_1  and  N_2
REMARK    2  A    between atoms: N_2  and  C_3
REMARK    3  A    between atoms: N_2  and  C_4
REMARK    4  A    between atoms: C_7  and  C_10
REMARK    5  A    between atoms: C_10  and  S_12
REMARK    6  A    between atoms: S_12  and  C_13
REMARK                            x       y       z     vdW  Elec       q    Type
REMARK                         _______ _______ _______ _____ _____    ______ ____
ROOT
ATOM      1  C   UNL     1       3.284   0.533   1.100  0.00  0.00    +0.000 A 
ATOM      2  C   UNL     1       2.719   0.502   2.388  0.00  0.00    +0.000 A 
ATOM      3  C   UNL     1       3.427   0.898   3.536  0.00  0.00    +0.000 A 
ATOM      4  C   UNL     1       4.740   1.357   3.434  0.00  0.00    +0.000 A 
ATOM      5  C   UNL     1       5.322   1.408   2.165  0.00  0.00    +0.000 A 
ATOM      6  C   UNL     1       4.603   1.011   1.027  0.00  0.00    +0.000 A 
ENDROOT
BRANCH   1   8
ATOM      7  C   UNL     1       1.351  -0.649   0.125  0.00  0.00    +0.000 C 
ATOM      8  N   UNL     1       2.563   0.153  -0.036  0.00  0.00    +0.000 N 
ATOM      9  C   UNL     1       3.268  -0.017  -1.306  0.00  0.00    +0.000 C 
ENDBRANCH   1   8
BRANCH   4  10
ATOM     10  C   UNL     1       5.566   1.796   4.597  0.00  0.00    +0.000 C 
ATOM     11  O   UNL     1       6.763   2.027   4.469  0.00  0.00    +0.000 OA
BRANCH  10  12
ATOM     12  S   UNL     1       4.790   1.982   6.167  0.00  0.00    +0.000 S 
BRANCH  12  13
ATOM     13  C   UNL     1       4.428   3.727   6.123  0.00  0.00    +0.000 A 
ATOM     14  C   UNL     1       3.101   4.157   6.225  0.00  0.00    +0.000 A 
ATOM     15  C   UNL     1       2.798   5.520   6.198  0.00  0.00    +0.000 A 
ATOM     16  C   UNL     1       3.820   6.460   6.076  0.00  0.00    +0.000 A 
ATOM     17  C   UNL     1       5.146   6.038   5.985  0.00  0.00    +0.000 A 
ATOM     18  C   UNL     1       5.449   4.676   6.012  0.00  0.00    +0.000 A 
ENDBRANCH  12  13
ENDBRANCH  10  12
ENDBRANCH   4  10
TORSDOF 4
