REMARK  Name = *****
REMARK  3 active torsions:
REMARK  status: ('A' for Active; 'I' for Inactive)
REMARK    1  A    between atoms: C_1  and  C_2
REMARK    2  A    between atoms: C_2  and  C_11
REMARK    3  A    between atoms: N_3  and  C_4
REMARK                            x       y       z     vdW  Elec       q    Type
REMARK                         _______ _______ _______ _____ _____    ______ ____
ROOT
ATOM      1  C   UNL     1       1.080   0.754  -0.439  0.00  0.00    +0.000 C 
ATOM      2  C   UNL     1       2.313   0.002   0.033  0.00  0.00    +0.000 C 
ATOM      3  N   UNL     1       2.757   0.021   1.258  0.00  0.00    +0.000 NA
ENDROOT
BRANCH   3   4
ATOM      4  C   UNL     1       2.099   0.788   2.236  0.00  0.00    +0.000 A 
ATOM      5  C   UNL     1       1.179   0.150   3.077  0.00  0.00    +0.000 A 
ATOM      6  C   UNL     1       0.515   0.860   4.081  0.00  0.00    +0.000 A 
ATOM      7  C   UNL     1       0.777   2.216   4.265  0.00  0.00    +0.000 A 
ATOM      8  C   UNL     1       1.707   2.862   3.451  0.00  0.00    +0.000 A 
ATOM      9  C   UNL     1       2.371   2.151   2.446  0.00  0.00    +0.000 A 
ATOM     10 CL   UNL     1       3.525   2.998   1.476  0.00  0.00    +0.000 Cl
ENDBRANCH   3   4
BRANCH   2  11
ATOM     11  C   UNL     1       3.132  -0.801  -0.989  0.00  0.00    +0.000 C 
ATOM     12  C   UNL     1       3.530   0.032  -2.178  0.00  0.00    +0.000 C 
ATOM     13  C   UNL     1       3.027  -0.510  -3.300  0.00  0.00    +0.000 C 
ATOM     14  C   UNL     1       2.282  -1.699  -2.964  0.00  0.00    +0.000 C 
ATOM     15  C   UNL     1       2.322  -1.892  -1.637  0.00  0.00    +0.000 C 
ENDBRANCH   2  11
TORSDOF 2
