REMARK  Name = *****
REMARK  5 active torsions:
REMARK  status: ('A' for Active; 'I' for Inactive)
REMARK    1  A    between atoms: C_1  and  C_2
REMARK    2  A    between atoms: C_7  and  C_8
REMARK    3  A    between atoms: C_8  and  O_10
REMARK    4  A    between atoms: O_10  and  C_11
REMARK    5  A    between atoms: C_16  and  C_17
REMARK                            x       y       z     vdW  Elec       q    Type
REMARK                         _______ _______ _______ _____ _____    ______ ____
ROOT
ATOM      1  C   UNL     1       1.240  -1.839   0.981  0.00  0.00    +0.000 C 
ATOM      2  O   UNL     1       0.706  -2.767   1.567  0.00  0.00    +0.000 OA
ENDROOT
BRANCH   1   9
ATOM      3  C   UNL     1      -1.349  -2.393  -0.402  0.00  0.00    +0.000 C 
ATOM      4  C   UNL     1      -0.727  -1.023  -0.377  0.00  0.00    +0.000 A 
ATOM      5  C   UNL     1      -1.402   0.037  -1.007  0.00  0.00    +0.000 A 
ATOM      6  C   UNL     1      -0.868   1.327  -1.010  0.00  0.00    +0.000 A 
ATOM      7  C   UNL     1       0.344   1.581  -0.376  0.00  0.00    +0.000 A 
ATOM      8  C   UNL     1       1.024   0.545   0.264  0.00  0.00    +0.000 A 
ATOM      9  C   UNL     1       0.499  -0.760   0.268  0.00  0.00    +0.000 A 
ENDBRANCH   1   9
BRANCH   1  10
ATOM     10  O   UNL     1       2.596  -1.614   0.818  0.00  0.00    +0.000 OA
BRANCH  10  11
ATOM     11  C   UNL     1       3.424  -2.577   1.411  0.00  0.00    +0.000 A 
ATOM     12  C   UNL     1       3.541  -2.621   2.802  0.00  0.00    +0.000 A 
ATOM     13  C   UNL     1       4.409  -3.541   3.385  0.00  0.00    +0.000 A 
ATOM     14  C   UNL     1       5.162  -4.395   2.579  0.00  0.00    +0.000 A 
ATOM     15  C   UNL     1       5.053  -4.330   1.187  0.00  0.00    +0.000 A 
ATOM     16  C   UNL     1       4.186  -3.411   0.583  0.00  0.00    +0.000 A 
ATOM     17  C   UNL     1       4.073  -3.335  -0.910  0.00  0.00    +0.000 C 
ENDBRANCH  10  11
ENDBRANCH   1  10
TORSDOF 3
