REMARK  Name = *****
REMARK  2 active torsions:
REMARK  status: ('A' for Active; 'I' for Inactive)
REMARK    1  A    between atoms: C_4  and  O_7
REMARK    2  A    between atoms: O_7  and  N_8
REMARK                            x       y       z     vdW  Elec       q    Type
REMARK                         _______ _______ _______ _____ _____    ______ ____
ROOT
ATOM      1  N   UNL     1       3.330  -1.705  -0.168  0.00  0.00    +0.000 N 
ATOM      2  C   UNL     1       3.612  -2.771  -0.973  0.00  0.00    +0.000 A 
ATOM      3  C   UNL     1       4.309  -3.615  -0.117  0.00  0.00    +0.000 A 
ATOM      4  C   UNL     1       4.767  -4.852  -0.587  0.00  0.00    +0.000 A 
ATOM      5  C   UNL     1       4.505  -5.183  -1.921  0.00  0.00    +0.000 A 
ATOM      6  C   UNL     1       3.810  -4.314  -2.769  0.00  0.00    +0.000 A 
ATOM      7  C   UNL     1       3.344  -3.076  -2.311  0.00  0.00    +0.000 A 
ATOM      8 CL   UNL     1       5.055  -6.696  -2.534  0.00  0.00    +0.000 Cl
ATOM      9  N   UNL     1       4.428  -3.028   1.118  0.00  0.00    +0.000 NA
ATOM     10  N   UNL     1       3.847  -1.834   1.062  0.00  0.00    +0.000 NA
ENDROOT
BRANCH   1  11
ATOM     11  O   UNL     1       2.700  -0.524  -0.553  0.00  0.00    +0.000 OA
BRANCH  11  15
ATOM     12  C   UNL     1      -1.383   0.539  -0.178  0.00  0.00    +0.000 C 
ATOM     13  C   UNL     1      -1.056  -0.938  -0.378  0.00  0.00    +0.000 C 
ATOM     14  C   UNL     1       0.371  -1.136  -0.879  0.00  0.00    +0.000 C 
ATOM     15  C   UNL     1       1.397  -0.461   0.038  0.00  0.00    +0.000 C 
ATOM     16  C   UNL     1       1.058   1.023   0.224  0.00  0.00    +0.000 C 
ATOM     17  C   UNL     1      -0.366   1.223   0.731  0.00  0.00    +0.000 C 
ENDBRANCH  11  15
ENDBRANCH   1  11
TORSDOF 2
