REMARK  Name = *****
REMARK  4 active torsions:
REMARK  status: ('A' for Active; 'I' for Inactive)
REMARK    1  A    between atoms: C_1  and  C_2
REMARK    2  A    between atoms: C_3  and  C_9
REMARK    3  A    between atoms: C_9  and  C_10
REMARK    4  A    between atoms: C_10  and  C_11
REMARK                            x       y       z     vdW  Elec       q    Type
REMARK                         _______ _______ _______ _____ _____    ______ ____
ROOT
ATOM      1  C   UNL     1       3.147  -0.373  -2.788  0.00  0.00    +0.000 C 
ATOM      2  C   UNL     1       3.422  -0.256  -1.338  0.00  0.00    +0.000 C 
ATOM      3  C   UNL     1       3.277  -1.116  -0.319  0.00  0.00    +0.000 C 
ATOM      4  C   UNL     1       3.690  -0.557   1.018  0.00  0.00    +0.000 C 
ATOM      5  C   UNL     1       4.227   0.842   0.721  0.00  0.00    +0.000 C 
ATOM      6  C   UNL     1       3.980   0.986  -0.756  0.00  0.00    +0.000 C 
ATOM      7  O   UNL     1       4.197   1.987  -1.425  0.00  0.00    +0.000 OA
ATOM      8 CL   UNL     1       5.967   0.969   1.044  0.00  0.00    +0.000 Cl
ENDROOT
BRANCH   3   9
ATOM      9  C   UNL     1       2.726  -2.512  -0.391  0.00  0.00    +0.000 C 
BRANCH   9  10
ATOM     10  C   UNL     1       3.829  -3.575  -0.339  0.00  0.00    +0.000 C 
BRANCH  10  11
ATOM     11  C   UNL     1       3.258  -4.969  -0.422  0.00  0.00    +0.000 A 
ATOM     12  C   UNL     1       3.026  -5.567  -1.668  0.00  0.00    +0.000 A 
ATOM     13  C   UNL     1       2.479  -6.849  -1.745  0.00  0.00    +0.000 A 
ATOM     14  C   UNL     1       2.156  -7.542  -0.580  0.00  0.00    +0.000 A 
ATOM     15  C   UNL     1       2.378  -6.954   0.663  0.00  0.00    +0.000 A 
ATOM     16  C   UNL     1       2.925  -5.672   0.743  0.00  0.00    +0.000 A 
ENDBRANCH  10  11
ENDBRANCH   9  10
ENDBRANCH   3   9
TORSDOF 3
