REMARK  Name = *****
REMARK  5 active torsions:
REMARK  status: ('A' for Active; 'I' for Inactive)
REMARK    1  A    between atoms: C_4  and  C_7
REMARK    2  A    between atoms: C_7  and  C_8
REMARK    3  A    between atoms: C_8  and  C_9
REMARK    4  A    between atoms: C_9  and  S_11
REMARK    5  A    between atoms: S_11  and  C_12
REMARK                            x       y       z     vdW  Elec       q    Type
REMARK                         _______ _______ _______ _____ _____    ______ ____
ROOT
ATOM      1  C   UNL     1      -5.305  -0.288  -0.271  0.00  0.00    +0.000 C 
ATOM      2  O   UNL     1      -5.705   0.868  -0.334  0.00  0.00    +0.000 OA
ENDROOT
BRANCH   1   3
ATOM      3  C   UNL     1      -3.851  -0.692  -0.204  0.00  0.00    +0.000 C 
BRANCH   3   4
ATOM      4  C   UNL     1      -2.937   0.531  -0.214  0.00  0.00    +0.000 C 
BRANCH   4   8
ATOM      5  C   UNL     1       1.201  -0.649   0.061  0.00  0.00    +0.000 A 
ATOM      6  C   UNL     1       0.606  -0.478  -1.188  0.00  0.00    +0.000 A 
ATOM      7  C   UNL     1      -0.732  -0.091  -1.279  0.00  0.00    +0.000 A 
ATOM      8  C   UNL     1      -1.485   0.134  -0.119  0.00  0.00    +0.000 A 
ATOM      9  C   UNL     1      -0.879  -0.045   1.132  0.00  0.00    +0.000 A 
ATOM     10  C   UNL     1       0.459  -0.433   1.220  0.00  0.00    +0.000 A 
ENDBRANCH   4   8
ENDBRANCH   3   4
ENDBRANCH   1   3
BRANCH   1  11
ATOM     11  S   UNL     1      -6.427  -1.648  -0.212  0.00  0.00    +0.000 S 
BRANCH  11  12
ATOM     12  C   UNL     1      -7.006  -1.662  -1.898  0.00  0.00    +0.000 A 
ATOM     13  C   UNL     1      -6.810  -2.806  -2.679  0.00  0.00    +0.000 A 
ATOM     14  C   UNL     1      -7.270  -2.847  -3.998  0.00  0.00    +0.000 A 
ATOM     15  C   UNL     1      -7.933  -1.748  -4.540  0.00  0.00    +0.000 A 
ATOM     16  C   UNL     1      -8.141  -0.609  -3.764  0.00  0.00    +0.000 A 
ATOM     17  C   UNL     1      -7.683  -0.567  -2.446  0.00  0.00    +0.000 A 
ENDBRANCH  11  12
ENDBRANCH   1  11
TORSDOF 5
