REMARK  Name = *****
REMARK  4 active torsions:
REMARK  status: ('A' for Active; 'I' for Inactive)
REMARK    1  A    between atoms: C_1  and  C_2
REMARK    2  A    between atoms: C_3  and  S_7
REMARK    3  A    between atoms: S_7  and  S_8
REMARK    4  A    between atoms: S_8  and  C_9
REMARK                            x       y       z     vdW  Elec       q    Type
REMARK                         _______ _______ _______ _____ _____    ______ ____
ROOT
ATOM      1  S   UNL     1       1.445  -2.933   1.223  0.00  0.00    +0.000 S 
ENDROOT
BRANCH   1   4
ATOM      2  C   UNL     1       2.169   0.154  -0.294  0.00  0.00    +0.000 C 
ATOM      3  C   UNL     1       0.925  -0.641  -0.333  0.00  0.00    +0.000 A 
ATOM      4  C   UNL     1       0.531  -1.844   0.213  0.00  0.00    +0.000 A 
ATOM      5  C   UNL     1      -0.809  -2.054  -0.187  0.00  0.00    +0.000 A 
ATOM      6  C   UNL     1      -1.145  -0.974  -0.969  0.00  0.00    +0.000 A 
ATOM      7  O   UNL     1      -0.099  -0.113  -1.067  0.00  0.00    +0.000 OA
ENDBRANCH   1   4
BRANCH   1   8
ATOM      8  S   UNL     1       3.028  -3.489   0.033  0.00  0.00    +0.000 S 
BRANCH   8   9
ATOM      9  C   UNL     1       2.235  -4.755  -0.892  0.00  0.00    +0.000 A 
ATOM     10  C   UNL     1       1.546  -4.584  -2.075  0.00  0.00    +0.000 A 
ATOM     11  C   UNL     1       1.026  -5.813  -2.579  0.00  0.00    +0.000 A 
ATOM     12  C   UNL     1       1.347  -6.878  -1.768  0.00  0.00    +0.000 A 
ATOM     13  S   UNL     1       2.272  -6.396  -0.411  0.00  0.00    +0.000 S 
ENDBRANCH   8   9
ENDBRANCH   1   8
TORSDOF 3
