REMARK  Name = *****
REMARK  4 active torsions:
REMARK  status: ('A' for Active; 'I' for Inactive)
REMARK    1  A    between atoms: C_1  and  N_2
REMARK    2  A    between atoms: N_2  and  C_3
REMARK    3  A    between atoms: N_2  and  C_9
REMARK    4  A    between atoms: C_3  and  C_4
REMARK                            x       y       z     vdW  Elec       q    Type
REMARK                         _______ _______ _______ _____ _____    ______ ____
ROOT
ATOM      1  C   UNL     1       1.704  -0.237   1.362  0.00  0.00    +0.000 C 
ATOM      2  N   UNL     1       2.377  -0.081   0.075  0.00  0.00    +0.000 N 
ENDROOT
BRANCH   2   3
ATOM      3  C   UNL     1       2.188  -1.024  -0.933  0.00  0.00    +0.000 A 
ATOM      4  C   UNL     1       1.380  -2.163  -0.749  0.00  0.00    +0.000 A 
ATOM      5  C   UNL     1       1.187  -3.121  -1.754  0.00  0.00    +0.000 A 
ATOM      6  C   UNL     1       1.805  -2.971  -2.987  0.00  0.00    +0.000 A 
ATOM      7  C   UNL     1       2.615  -1.866  -3.207  0.00  0.00    +0.000 A 
ATOM      8  C   UNL     1       2.801  -0.914  -2.194  0.00  0.00    +0.000 A 
ENDBRANCH   2   3
BRANCH   2   9
ATOM      9  C   UNL     1       3.084   1.185  -0.153  0.00  0.00    +0.000 C 
BRANCH   9  10
ATOM     10  C   UNL     1       2.212   2.209  -0.886  0.00  0.00    +0.000 C 
ATOM     11  C   UNL     1       2.976   3.491  -1.216  0.00  0.00    +0.000 C 
ATOM     12  C   UNL     1       1.880   4.498  -1.540  0.00  0.00    +0.000 C 
ATOM     13  C   UNL     1       0.647   4.043  -0.761  0.00  0.00    +0.000 C 
ATOM     14  C   UNL     1       1.039   2.743  -0.064  0.00  0.00    +0.000 C 
ENDBRANCH   9  10
ENDBRANCH   2   9
TORSDOF 3
