REMARK  Name = *****
REMARK  5 active torsions:
REMARK  status: ('A' for Active; 'I' for Inactive)
REMARK    1  A    between atoms: C_4  and  C_7
REMARK    2  A    between atoms: C_7  and  O_8
REMARK    3  A    between atoms: O_8  and  O_9
REMARK    4  A    between atoms: O_9  and  C_10
REMARK    5  A    between atoms: C_10  and  C_11
REMARK                            x       y       z     vdW  Elec       q    Type
REMARK                         _______ _______ _______ _____ _____    ______ ____
ROOT
ATOM      1  O   UNL     1      -3.209  -0.476  -0.896  0.00  0.00    +0.000 OA
ENDROOT
BRANCH   1   2
ATOM      2  C   UNL     1      -2.745   0.268   0.233  0.00  0.00    +0.000 C 
BRANCH   2   6
ATOM      3  C   UNL     1       1.525  -0.149   0.706  0.00  0.00    +0.000 A 
ATOM      4  C   UNL     1       0.746  -1.265   0.408  0.00  0.00    +0.000 A 
ATOM      5  C   UNL     1      -0.634  -1.132   0.247  0.00  0.00    +0.000 A 
ATOM      6  C   UNL     1      -1.251   0.122   0.371  0.00  0.00    +0.000 A 
ATOM      7  C   UNL     1      -0.457   1.236   0.684  0.00  0.00    +0.000 A 
ATOM      8  C   UNL     1       0.924   1.101   0.846  0.00  0.00    +0.000 A 
ENDBRANCH   2   6
ENDBRANCH   1   2
BRANCH   1   9
ATOM      9  O   UNL     1      -4.642  -0.203  -0.982  0.00  0.00    +0.000 OA
BRANCH   9  10
ATOM     10  C   UNL     1      -4.858   0.297  -2.303  0.00  0.00    +0.000 C 
BRANCH  10  11
ATOM     11  C   UNL     1      -6.303   0.693  -2.476  0.00  0.00    +0.000 A 
ATOM     12  C   UNL     1      -6.636   1.894  -3.120  0.00  0.00    +0.000 A 
ATOM     13  C   UNL     1      -7.973   2.250  -3.311  0.00  0.00    +0.000 A 
ATOM     14  C   UNL     1      -8.990   1.407  -2.868  0.00  0.00    +0.000 A 
ATOM     15  C   UNL     1      -8.673   0.205  -2.238  0.00  0.00    +0.000 A 
ATOM     16  C   UNL     1      -7.337  -0.152  -2.048  0.00  0.00    +0.000 A 
ENDBRANCH  10  11
ENDBRANCH   9  10
ENDBRANCH   1   9
TORSDOF 5
