REMARK  Name = *****
REMARK  2 active torsions:
REMARK  status: ('A' for Active; 'I' for Inactive)
REMARK    1  A    between atoms: C_7  and  C_8
REMARK    2  A    between atoms: C_9  and  C_10
REMARK                            x       y       z     vdW  Elec       q    Type
REMARK                         _______ _______ _______ _____ _____    ______ ____
ROOT
ATOM      1  C   UNL     1      -0.122  -0.015  -1.280  0.00  0.00    +0.000 C 
ATOM      2  C   UNL     1      -0.015  -1.155  -0.254  0.00  0.00    +0.000 C 
ATOM      3  C   UNL     1       1.241  -0.668   0.455  0.00  0.00    +0.000 C 
ATOM      4  C   UNL     1       1.182   0.679   0.484  0.00  0.00    +0.000 C 
ATOM      5  C   UNL     1      -0.114   1.084  -0.203  0.00  0.00    +0.000 C 
ATOM      6  C   UNL     1      -1.282   0.562   0.615  0.00  0.00    +0.000 C 
ATOM      7  C   UNL     1      -1.227  -0.783   0.588  0.00  0.00    +0.000 C 
ATOM      8 BR   UNL     1      -2.461   1.704   1.425  0.00  0.00    +0.000 Br
ENDROOT
BRANCH   7   9
ATOM      9  C   UNL     1      -2.112  -1.690   1.209  0.00  0.00    +0.000 C 
ATOM     10  C   UNL     1      -2.867  -2.461   1.737  0.00  0.00    +0.000 C 
BRANCH  10  11
ATOM     11  C   UNL     1      -3.770  -3.372   2.368  0.00  0.00    +0.000 A 
ATOM     12  C   UNL     1      -3.485  -4.739   2.390  0.00  0.00    +0.000 A 
ATOM     13  C   UNL     1      -4.369  -5.627   3.007  0.00  0.00    +0.000 A 
ATOM     14  C   UNL     1      -5.537  -5.149   3.602  0.00  0.00    +0.000 A 
ATOM     15  C   UNL     1      -5.822  -3.784   3.582  0.00  0.00    +0.000 A 
ATOM     16  C   UNL     1      -4.940  -2.895   2.965  0.00  0.00    +0.000 A 
ENDBRANCH  10  11
ENDBRANCH   7   9
TORSDOF 2
