REMARK  Name = *****
REMARK  2 active torsions:
REMARK  status: ('A' for Active; 'I' for Inactive)
REMARK    1  A    between atoms: C_6  and  C_7
REMARK    2  A    between atoms: C_8  and  C_9
REMARK                            x       y       z     vdW  Elec       q    Type
REMARK                         _______ _______ _______ _____ _____    ______ ____
ROOT
ATOM      1  C   UNL     1      -1.578  -1.338  -1.349  0.00  0.00    +0.000 C 
ATOM      2  C   UNL     1      -1.095  -0.962  -2.546  0.00  0.00    +0.000 C 
ENDROOT
BRANCH   1   8
ATOM      3  C   UNL     1      -2.069  -0.053   0.767  0.00  0.00    +0.000 C 
ATOM      4  C   UNL     1      -2.778  -0.788   1.878  0.00  0.00    +0.000 C 
ATOM      5  C   UNL     1      -2.336  -1.960   2.354  0.00  0.00    +0.000 C 
ATOM      6  C   UNL     1      -1.137  -2.572   1.839  0.00  0.00    +0.000 C 
ATOM      7  C   UNL     1      -0.521  -2.092   0.749  0.00  0.00    +0.000 C 
ATOM      8  C   UNL     1      -1.014  -0.886  -0.017  0.00  0.00    +0.000 C 
ATOM      9  F   UNL     1       0.058  -0.059  -0.230  0.00  0.00    +0.000 F 
ENDBRANCH   1   8
BRANCH   2  10
ATOM     10  C   UNL     1      -1.629  -1.403  -3.843  0.00  0.00    +0.000 A 
ATOM     11  C   UNL     1      -2.989  -1.669  -4.049  0.00  0.00    +0.000 A 
ATOM     12  C   UNL     1      -3.457  -2.056  -5.308  0.00  0.00    +0.000 A 
ATOM     13  C   UNL     1      -2.572  -2.171  -6.377  0.00  0.00    +0.000 A 
ATOM     14  C   UNL     1      -1.220  -1.894  -6.190  0.00  0.00    +0.000 A 
ATOM     15  C   UNL     1      -0.753  -1.507  -4.931  0.00  0.00    +0.000 A 
ENDBRANCH   2  10
TORSDOF 2
