REMARK  Name = *****
REMARK  4 active torsions:
REMARK  status: ('A' for Active; 'I' for Inactive)
REMARK    1  A    between atoms: C_2  and  C_3
REMARK    2  A    between atoms: C_4  and  C_9
REMARK    3  A    between atoms: C_9  and  C_10
REMARK    4  A    between atoms: C_10  and  C_11
REMARK                            x       y       z     vdW  Elec       q    Type
REMARK                         _______ _______ _______ _____ _____    ______ ____
ROOT
ATOM      1  C   UNL     1       3.893   0.030  -0.066  0.00  0.00    +0.000 C 
ATOM      2  C   UNL     1       4.578   1.189  -0.185  0.00  0.00    +0.000 C 
ATOM      3  C   UNL     1       6.092   1.210  -0.219  0.00  0.00    +0.000 C 
ATOM      4  C   UNL     1       6.733  -0.161  -0.438  0.00  0.00    +0.000 C 
ATOM      5  C   UNL     1       6.051  -1.223   0.413  0.00  0.00    +0.000 C 
ATOM      6  C   UNL     1       4.565  -1.316   0.069  0.00  0.00    +0.000 C 
ENDROOT
BRANCH   1   8
ATOM      7  C   UNL     1       1.069   0.030  -0.066  0.00  0.00    +0.000 C 
ATOM      8  C   UNL     1       2.373   0.030  -0.066  0.00  0.00    +0.000 C 
ENDBRANCH   1   8
BRANCH   2   9
ATOM      9  C   UNL     1       3.925   2.556  -0.266  0.00  0.00    +0.000 C 
BRANCH   9  10
ATOM     10  C   UNL     1       3.718   3.012  -1.714  0.00  0.00    +0.000 C 
BRANCH  10  11
ATOM     11  C   UNL     1       3.094   4.384  -1.783  0.00  0.00    +0.000 A 
ATOM     12  C   UNL     1       3.898   5.527  -1.897  0.00  0.00    +0.000 A 
ATOM     13  C   UNL     1       3.318   6.796  -1.942  0.00  0.00    +0.000 A 
ATOM     14  C   UNL     1       1.934   6.935  -1.867  0.00  0.00    +0.000 A 
ATOM     15  C   UNL     1       1.126   5.805  -1.746  0.00  0.00    +0.000 A 
ATOM     16  C   UNL     1       1.703   4.535  -1.702  0.00  0.00    +0.000 A 
ENDBRANCH  10  11
ENDBRANCH   9  10
ENDBRANCH   2   9
TORSDOF 4
