REMARK  Name = *****
REMARK  3 active torsions:
REMARK  status: ('A' for Active; 'I' for Inactive)
REMARK    1  A    between atoms: C_1  and  C_2
REMARK    2  A    between atoms: C_4  and  N_8
REMARK    3  A    between atoms: C_9  and  C_10
REMARK                            x       y       z     vdW  Elec       q    Type
REMARK                         _______ _______ _______ _____ _____    ______ ____
ROOT
ATOM      1  N   UNL     1      -1.460   2.622  -0.229  0.00  0.00    +0.000 NA
ATOM      2  C   UNL     1      -1.518   3.485   0.746  0.00  0.00    +0.000 C 
ATOM      3 CL   UNL     1      -0.861   3.116   2.317  0.00  0.00    +0.000 Cl
ENDROOT
BRANCH   1   7
ATOM      4  C   UNL     1       2.558  -0.252  -0.446  0.00  0.00    +0.000 C 
ATOM      5  C   UNL     1       1.099  -0.069  -0.151  0.00  0.00    +0.000 A 
ATOM      6  C   UNL     1       0.498   1.188  -0.305  0.00  0.00    +0.000 A 
ATOM      7  C   UNL     1      -0.866   1.367  -0.053  0.00  0.00    +0.000 A 
ATOM      8  C   UNL     1      -1.644   0.266   0.311  0.00  0.00    +0.000 A 
ATOM      9  C   UNL     1      -1.061  -0.994   0.451  0.00  0.00    +0.000 A 
ATOM     10  C   UNL     1       0.305  -1.161   0.219  0.00  0.00    +0.000 A 
ENDBRANCH   1   7
BRANCH   2  11
ATOM     11  C   UNL     1      -2.170   4.813   0.483  0.00  0.00    +0.000 A 
ATOM     12  C   UNL     1      -2.227   5.810   1.467  0.00  0.00    +0.000 A 
ATOM     13  C   UNL     1      -2.840   7.037   1.193  0.00  0.00    +0.000 A 
ATOM     14  C   UNL     1      -3.401   7.276  -0.060  0.00  0.00    +0.000 A 
ATOM     15  C   UNL     1      -3.351   6.292  -1.044  0.00  0.00    +0.000 A 
ATOM     16  C   UNL     1      -2.738   5.066  -0.775  0.00  0.00    +0.000 A 
ENDBRANCH   2  11
TORSDOF 2
