REMARK  Name = *****
REMARK  2 active torsions:
REMARK  status: ('A' for Active; 'I' for Inactive)
REMARK    1  A    between atoms: C_4  and  C_7
REMARK    2  A    between atoms: C_8  and  C_9
REMARK                            x       y       z     vdW  Elec       q    Type
REMARK                         _______ _______ _______ _____ _____    ______ ____
ROOT
ATOM      1  C   UNL     1       5.568   0.290  -0.515  0.00  0.00    +0.000 C 
ATOM      2  C   UNL     1       6.420   1.472  -0.055  0.00  0.00    +0.000 C 
ATOM      3  C   UNL     1       7.185   1.438  -1.388  0.00  0.00    +0.000 C 
ATOM      4  C   UNL     1       6.313   0.259  -1.850  0.00  0.00    +0.000 C 
ATOM      5  C   UNL     1       7.337  -0.732  -1.285  0.00  0.00    +0.000 C 
ATOM      6  C   UNL     1       6.545  -0.705   0.099  0.00  0.00    +0.000 C 
ATOM      7  C   UNL     1       7.448   0.522   0.570  0.00  0.00    +0.000 C 
ATOM      8  C   UNL     1       8.228   0.489  -0.810  0.00  0.00    +0.000 C 
ATOM      9  I   UNL     1      10.342   0.621  -1.026  0.00  0.00    +0.000 I 
ENDROOT
BRANCH   1  11
ATOM     10  C   UNL     1       2.966   0.158  -0.278  0.00  0.00    +0.000 C 
ATOM     11  C   UNL     1       4.161   0.219  -0.385  0.00  0.00    +0.000 C 
BRANCH  10  15
ATOM     12  C   UNL     1      -1.236  -0.061   0.087  0.00  0.00    +0.000 A 
ATOM     13  C   UNL     1      -0.606   1.182   0.024  0.00  0.00    +0.000 A 
ATOM     14  C   UNL     1       0.784   1.255  -0.095  0.00  0.00    +0.000 A 
ATOM     15  C   UNL     1       1.543   0.084  -0.153  0.00  0.00    +0.000 A 
ATOM     16  C   UNL     1       0.910  -1.159  -0.090  0.00  0.00    +0.000 A 
ATOM     17  C   UNL     1      -0.479  -1.231   0.030  0.00  0.00    +0.000 A 
ENDBRANCH  10  15
ENDBRANCH   1  11
TORSDOF 2
