REMARK  Name = *****
REMARK  4 active torsions:
REMARK  status: ('A' for Active; 'I' for Inactive)
REMARK    1  A    between atoms: C_4  and  C_7
REMARK    2  A    between atoms: C_7  and  S_8
REMARK    3  A    between atoms: C_7  and  S_10
REMARK    4  A    between atoms: S_10  and  C_11
REMARK                            x       y       z     vdW  Elec       q    Type
REMARK                         _______ _______ _______ _____ _____    ______ ____
ROOT
ATOM      1  C   UNL     1      -2.820   0.752  -0.284  0.00  0.00    +0.000 C 
ENDROOT
BRANCH   1   5
ATOM      2  C   UNL     1       1.269  -0.522  -0.158  0.00  0.00    +0.000 A 
ATOM      3  C   UNL     1       0.761   0.300   0.846  0.00  0.00    +0.000 A 
ATOM      4  C   UNL     1      -0.571   0.716   0.801  0.00  0.00    +0.000 A 
ATOM      5  C   UNL     1      -1.405   0.317  -0.254  0.00  0.00    +0.000 A 
ATOM      6  C   UNL     1      -0.886  -0.511  -1.258  0.00  0.00    +0.000 A 
ATOM      7  C   UNL     1       0.447  -0.928  -1.208  0.00  0.00    +0.000 A 
ENDBRANCH   1   5
BRANCH   1   8
ATOM      8  S   UNL     1      -3.254   2.327  -0.099  0.00  0.00    +0.000 S 
ATOM      9  O   UNL     1      -2.124   3.291   0.032  0.00  0.00    +0.000 OA
ENDBRANCH   1   8
BRANCH   1  10
ATOM     10  S   UNL     1      -4.076  -0.467  -0.400  0.00  0.00    +0.000 S 
BRANCH  10  11
ATOM     11  C   UNL     1      -4.252  -0.734  -2.155  0.00  0.00    +0.000 A 
ATOM     12  C   UNL     1      -4.388  -2.052  -2.609  0.00  0.00    +0.000 A 
ATOM     13  C   UNL     1      -4.531  -2.325  -3.972  0.00  0.00    +0.000 A 
ATOM     14  C   UNL     1      -4.543  -1.281  -4.893  0.00  0.00    +0.000 A 
ATOM     15  C   UNL     1      -4.423   0.034  -4.451  0.00  0.00    +0.000 A 
ATOM     16  C   UNL     1      -4.284   0.308  -3.087  0.00  0.00    +0.000 A 
ENDBRANCH  10  11
ENDBRANCH   1  10
TORSDOF 4
