REMARK  Name = *****
REMARK  1 active torsions:
REMARK  status: ('A' for Active; 'I' for Inactive)
REMARK    1  A    between atoms: C_3  and  C_8
REMARK                            x       y       z     vdW  Elec       q    Type
REMARK                         _______ _______ _______ _____ _____    ______ ____
ROOT
ATOM      1  C   UNL     1      -2.017   2.509   0.163  0.00  0.00    +0.000 A 
ATOM      2  N   UNL     1      -2.912   2.836   1.079  0.00  0.00    +0.000 NA
ATOM      3  C   UNL     1      -3.334   4.084   0.695  0.00  0.00    +0.000 A 
ATOM      4  C   UNL     1      -2.668   4.470  -0.456  0.00  0.00    +0.000 A 
ATOM      5  O   UNL     1      -1.819   3.463  -0.805  0.00  0.00    +0.000 OA
ATOM      6  C   UNL     1      -2.856   5.679  -1.114  0.00  0.00    +0.000 A 
ATOM      7  C   UNL     1      -3.798   6.540  -0.536  0.00  0.00    +0.000 A 
ATOM      8  C   UNL     1      -4.489   6.181   0.629  0.00  0.00    +0.000 A 
ATOM      9  C   UNL     1      -4.273   4.952   1.266  0.00  0.00    +0.000 A 
ATOM     10 CL   UNL     1      -5.636   7.280   1.298  0.00  0.00    +0.000 Cl
ENDROOT
BRANCH   1  13
ATOM     11  C   UNL     1      -0.653  -0.922   0.920  0.00  0.00    +0.000 A 
ATOM     12  C   UNL     1      -1.393   0.262   0.999  0.00  0.00    +0.000 A 
ATOM     13  C   UNL     1      -1.227   1.285   0.049  0.00  0.00    +0.000 A 
ATOM     14  C   UNL     1      -0.299   1.095  -0.983  0.00  0.00    +0.000 A 
ATOM     15  C   UNL     1       0.433  -0.087  -1.053  0.00  0.00    +0.000 A 
ATOM     16  C   UNL     1       0.265  -1.096  -0.112  0.00  0.00    +0.000 A 
ATOM     17  F   UNL     1       1.316  -0.254  -2.046  0.00  0.00    +0.000 F 
ENDBRANCH   1  13
TORSDOF 1
