REMARK  Name = *****
REMARK  4 active torsions:
REMARK  status: ('A' for Active; 'I' for Inactive)
REMARK    1  A    between atoms: C_3  and  C_9
REMARK    2  A    between atoms: C_5  and  C_7
REMARK    3  A    between atoms: C_10  and  C_11
REMARK    4  A    between atoms: C_14  and  S_17
REMARK                            x       y       z     vdW  Elec       q    Type
REMARK                         _______ _______ _______ _____ _____    ______ ____
ROOT
ATOM      1  C   UNL     1       2.226  -2.550   0.093  0.00  0.00    +0.000 C 
ATOM      2  C   UNL     1       1.617  -3.747   0.064  0.00  0.00    +0.000 C 
ENDROOT
BRANCH   1   5
ATOM      3  C   UNL     1       1.478   1.033  -0.785  0.00  0.00    +0.000 A 
ATOM      4  C   UNL     1       2.108  -0.211  -0.699  0.00  0.00    +0.000 A 
ATOM      5  C   UNL     1       1.514  -1.267   0.004  0.00  0.00    +0.000 A 
ATOM      6  C   UNL     1       0.287  -1.047   0.646  0.00  0.00    +0.000 A 
ATOM      7  C   UNL     1      -0.347   0.199   0.562  0.00  0.00    +0.000 A 
ATOM      8  C   UNL     1       0.251   1.238  -0.158  0.00  0.00    +0.000 A 
BRANCH   7   9
ATOM      9  C   UNL     1      -1.604   0.410   1.217  0.00  0.00    +0.000 C 
ATOM     10  N   UNL     1      -2.623   0.579   1.747  0.00  0.00    +0.000 NA
ENDBRANCH   7   9
ENDBRANCH   1   5
BRANCH   2  11
ATOM     11  C   UNL     1       2.333  -5.028   0.134  0.00  0.00    +0.000 A 
ATOM     12  C   UNL     1       3.432  -5.224   0.985  0.00  0.00    +0.000 A 
ATOM     13  C   UNL     1       4.072  -6.464   1.049  0.00  0.00    +0.000 A 
ATOM     14  C   UNL     1       3.595  -7.519   0.271  0.00  0.00    +0.000 A 
ATOM     15  C   UNL     1       2.499  -7.349  -0.577  0.00  0.00    +0.000 A 
ATOM     16  C   UNL     1       1.867  -6.105  -0.635  0.00  0.00    +0.000 A 
BRANCH  14  17
ATOM     17  S   UNL     1       4.422  -9.081   0.322  0.00  0.00    +0.000 S 
ATOM     18  O   UNL     1       3.819  -9.859   1.383  0.00  0.00    +0.000 OA
ATOM     19  O   UNL     1       4.536  -9.570  -1.037  0.00  0.00    +0.000 OA
ATOM     20  F   UNL     1       5.911  -8.791   0.789  0.00  0.00    +0.000 F 
ENDBRANCH  14  17
ENDBRANCH   2  11
TORSDOF 4
