REMARK  Name = *****
REMARK  5 active torsions:
REMARK  status: ('A' for Active; 'I' for Inactive)
REMARK    1  A    between atoms: C_1  and  N_2
REMARK    2  A    between atoms: N_2  and  C_3
REMARK    3  A    between atoms: N_2  and  C_4
REMARK    4  A    between atoms: C_4  and  C_12
REMARK    5  A    between atoms: C_5  and  C_6
REMARK                            x       y       z     vdW  Elec       q    Type
REMARK                         _______ _______ _______ _____ _____    ______ ____
ROOT
ATOM      1  C   UNL     1       3.004   1.058   0.480  0.00  0.00    +0.000 C 
ATOM      2  C   UNL     1       2.345   1.927   1.275  0.00  0.00    +0.000 C 
ENDROOT
BRANCH   2   3
ATOM      3  C   UNL     1       0.895   2.029   1.481  0.00  0.00    +0.000 A 
ATOM      4  C   UNL     1       0.373   1.941   2.776  0.00  0.00    +0.000 A 
ATOM      5  C   UNL     1      -1.001   2.070   2.993  0.00  0.00    +0.000 A 
ATOM      6  C   UNL     1      -1.858   2.300   1.917  0.00  0.00    +0.000 A 
ATOM      7  C   UNL     1      -1.344   2.404   0.626  0.00  0.00    +0.000 A 
ATOM      8  C   UNL     1       0.029   2.274   0.409  0.00  0.00    +0.000 A 
ENDBRANCH   2   3
BRANCH   1   9
ATOM      9  C   UNL     1       4.471   1.287   0.416  0.00  0.00    +0.000 A 
ATOM     10  C   UNL     1       5.344   0.430   1.099  0.00  0.00    +0.000 A 
ATOM     11  C   UNL     1       6.723   0.641   1.049  0.00  0.00    +0.000 A 
ATOM     12  C   UNL     1       7.239   1.709   0.316  0.00  0.00    +0.000 A 
ATOM     13  C   UNL     1       6.379   2.568  -0.368  0.00  0.00    +0.000 A 
ATOM     14  C   UNL     1       4.999   2.359  -0.318  0.00  0.00    +0.000 A 
ENDBRANCH   1   9
BRANCH   1  16
ATOM     15  C   UNL     1       1.367  -0.826   0.219  0.00  0.00    +0.000 C 
ATOM     16  N   UNL     1       2.499  -0.024  -0.249  0.00  0.00    +0.000 N 
ATOM     17  C   UNL     1       3.205  -0.602  -1.394  0.00  0.00    +0.000 C 
ENDBRANCH   1  16
TORSDOF 3
