REMARK  Name = *****
REMARK  4 active torsions:
REMARK  status: ('A' for Active; 'I' for Inactive)
REMARK    1  A    between atoms: C_6  and  C_7
REMARK    2  A    between atoms: C_7  and  S_8
REMARK    3  A    between atoms: S_8  and  C_9
REMARK    4  A    between atoms: C_12  and  C_15
REMARK                            x       y       z     vdW  Elec       q    Type
REMARK                         _______ _______ _______ _____ _____    ______ ____
ROOT
ATOM      1  S   UNL     1       4.523   1.936   0.404  0.00  0.00    +0.000 S 
ENDROOT
BRANCH   1   2
ATOM      2  C   UNL     1       6.286   1.759   0.210  0.00  0.00    +0.000 A 
ATOM      3  C   UNL     1       6.950   2.573  -0.714  0.00  0.00    +0.000 A 
ATOM      4  C   UNL     1       8.335   2.470  -0.883  0.00  0.00    +0.000 A 
ATOM      5  C   UNL     1       9.068   1.556  -0.119  0.00  0.00    +0.000 A 
ATOM      6  C   UNL     1       8.409   0.752   0.816  0.00  0.00    +0.000 A 
ATOM      7  C   UNL     1       7.024   0.857   0.982  0.00  0.00    +0.000 A 
BRANCH   5   8
ATOM      8  C   UNL     1      10.487   1.449  -0.290  0.00  0.00    +0.000 C 
ATOM      9  N   UNL     1      11.636   1.359  -0.428  0.00  0.00    +0.000 NA
ENDBRANCH   5   8
ENDBRANCH   1   2
BRANCH   1  10
ATOM     10  C   UNL     1       3.991   0.224   0.068  0.00  0.00    +0.000 C 
BRANCH  10  16
ATOM     11  C   UNL     1       1.716  -0.073   1.133  0.00  0.00    +0.000 A 
ATOM     12  C   UNL     1       0.323  -0.150   1.050  0.00  0.00    +0.000 A 
ATOM     13  C   UNL     1      -0.305  -0.025  -0.187  0.00  0.00    +0.000 A 
ATOM     14  C   UNL     1       0.447   0.182  -1.341  0.00  0.00    +0.000 A 
ATOM     15  C   UNL     1       1.839   0.260  -1.259  0.00  0.00    +0.000 A 
ATOM     16  C   UNL     1       2.488   0.126  -0.022  0.00  0.00    +0.000 A 
ATOM     17 CL   UNL     1      -2.020  -0.120  -0.288  0.00  0.00    +0.000 Cl
ENDBRANCH  10  16
ENDBRANCH   1  10
TORSDOF 4
