REMARK  Name = *****
REMARK  4 active torsions:
REMARK  status: ('A' for Active; 'I' for Inactive)
REMARK    1  A    between atoms: C_1  and  C_2
REMARK    2  A    between atoms: C_5  and  S_8
REMARK    3  A    between atoms: S_8  and  S_9
REMARK    4  A    between atoms: S_9  and  C_10
REMARK                            x       y       z     vdW  Elec       q    Type
REMARK                         _______ _______ _______ _____ _____    ______ ____
ROOT
ATOM      1  C   UNL     1       2.538   0.074   0.183  0.00  0.00    +0.000 C 
ATOM      2  C   UNL     1       1.042   0.102   0.076  0.00  0.00    +0.000 A 
ATOM      3  C   UNL     1       0.328   1.277   0.340  0.00  0.00    +0.000 A 
ATOM      4  C   UNL     1      -1.067   1.291   0.263  0.00  0.00    +0.000 A 
ATOM      5  C   UNL     1      -1.766   0.129  -0.076  0.00  0.00    +0.000 A 
ATOM      6  C   UNL     1      -1.057  -1.050  -0.320  0.00  0.00    +0.000 A 
ATOM      7  C   UNL     1       0.338  -1.065  -0.241  0.00  0.00    +0.000 A 
ENDROOT
BRANCH   5   8
ATOM      8  S   UNL     1      -3.545   0.123  -0.192  0.00  0.00    +0.000 S 
BRANCH   8   9
ATOM      9  S   UNL     1      -3.855   1.226  -1.903  0.00  0.00    +0.000 S 
BRANCH   9  10
ATOM     10  C   UNL     1      -3.461   0.040  -3.139  0.00  0.00    +0.000 A 
ATOM     11  N   UNL     1      -3.646  -1.255  -2.988  0.00  0.00    +0.000 NA
ATOM     12  C   UNL     1      -3.238  -1.919  -4.128  0.00  0.00    +0.000 A 
ATOM     13  C   UNL     1      -2.758  -1.122  -5.143  0.00  0.00    +0.000 A 
ATOM     14  S   UNL     1      -2.817   0.521  -4.660  0.00  0.00    +0.000 S 
ENDBRANCH   9  10
ENDBRANCH   8   9
ENDBRANCH   5   8
TORSDOF 3
