REMARK  Name = *****
REMARK  3 active torsions:
REMARK  status: ('A' for Active; 'I' for Inactive)
REMARK    1  A    between atoms: C_1  and  C_2
REMARK    2  A    between atoms: C_5  and  C_8
REMARK    3  A    between atoms: C_9  and  C_10
REMARK                            x       y       z     vdW  Elec       q    Type
REMARK                         _______ _______ _______ _____ _____    ______ ____
ROOT
ATOM      1  C   UNL     1       6.895   0.047  -0.878  0.00  0.00    +0.000 C 
ATOM      2  C   UNL     1       8.075   0.061  -1.099  0.00  0.00    +0.000 C 
ENDROOT
BRANCH   1   7
ATOM      3  C   UNL     1       1.251  -0.019   0.149  0.00  0.00    +0.000 C 
ATOM      4  C   UNL     1       2.731   0.001  -0.091  0.00  0.00    +0.000 A 
ATOM      5  C   UNL     1       3.401   1.214  -0.295  0.00  0.00    +0.000 A 
ATOM      6  C   UNL     1       4.775   1.229  -0.551  0.00  0.00    +0.000 A 
ATOM      7  C   UNL     1       5.489   0.031  -0.615  0.00  0.00    +0.000 A 
ATOM      8  C   UNL     1       4.825  -1.182  -0.428  0.00  0.00    +0.000 A 
ATOM      9  C   UNL     1       3.451  -1.197  -0.172  0.00  0.00    +0.000 A 
ENDBRANCH   1   7
BRANCH   2  10
ATOM     10  C   UNL     1       9.478   0.070  -1.362  0.00  0.00    +0.000 C 
ATOM     11  C   UNL     1      10.138   1.241  -1.359  0.00  0.00    +0.000 C 
ATOM     12  C   UNL     1      11.607   1.370  -1.636  0.00  0.00    +0.000 C 
ATOM     13  C   UNL     1      12.228   0.098  -2.217  0.00  0.00    +0.000 C 
ATOM     14  C   UNL     1      11.704  -1.144  -1.505  0.00  0.00    +0.000 C 
ATOM     15  C   UNL     1      10.180  -1.242  -1.617  0.00  0.00    +0.000 C 
ENDBRANCH   2  10
TORSDOF 2
