REMARK  Name = *****
REMARK  2 active torsions:
REMARK  status: ('A' for Active; 'I' for Inactive)
REMARK    1  A    between atoms: C_4  and  N_7
REMARK    2  A    between atoms: C_8  and  C_9
REMARK                            x       y       z     vdW  Elec       q    Type
REMARK                         _______ _______ _______ _____ _____    ______ ____
ROOT
ATOM      1  N   UNL     1      -2.713   0.417  -0.775  0.00  0.00    +0.000 NA
ATOM      2  C   UNL     1      -3.595  -0.335  -0.197  0.00  0.00    +0.000 C 
ENDROOT
BRANCH   2   3
ATOM      3  C   UNL     1      -5.037  -0.199  -0.478  0.00  0.00    +0.000 A 
ATOM      4  C   UNL     1      -5.501   0.764  -1.377  0.00  0.00    +0.000 A 
ATOM      5  C   UNL     1      -6.866   0.862  -1.615  0.00  0.00    +0.000 A 
ATOM      6  C   UNL     1      -7.771   0.019  -0.976  0.00  0.00    +0.000 A 
ATOM      7  C   UNL     1      -7.305  -0.943  -0.079  0.00  0.00    +0.000 A 
ATOM      8  C   UNL     1      -5.935  -1.053   0.172  0.00  0.00    +0.000 A 
ATOM      9  F   UNL     1      -7.322   1.782  -2.474  0.00  0.00    +0.000 F 
ENDBRANCH   2   3
BRANCH   1  13
ATOM     10  C   UNL     1       1.294  -0.267   0.289  0.00  0.00    +0.000 A 
ATOM     11  C   UNL     1       0.708  -1.013  -0.733  0.00  0.00    +0.000 A 
ATOM     12  C   UNL     1      -0.624  -0.786  -1.086  0.00  0.00    +0.000 A 
ATOM     13  C   UNL     1      -1.379   0.179  -0.415  0.00  0.00    +0.000 A 
ATOM     14  C   UNL     1      -0.780   0.934   0.596  0.00  0.00    +0.000 A 
ATOM     15  C   UNL     1       0.551   0.710   0.952  0.00  0.00    +0.000 A 
ENDBRANCH   1  13
TORSDOF 2
