REMARK  Name = *****
REMARK  2 active torsions:
REMARK  status: ('A' for Active; 'I' for Inactive)
REMARK    1  A    between atoms: C_4  and  P_7
REMARK    2  A    between atoms: P_7  and  C_9
REMARK                            x       y       z     vdW  Elec       q    Type
REMARK                         _______ _______ _______ _____ _____    ______ ____
ROOT
ATOM      1  P   UNL     1       3.267  -1.399   0.853  0.00  0.00    +0.000 P 
ATOM      2  S   UNL     1       4.090  -0.588   2.439  0.00  0.00    +0.000 S 
ATOM      3  H   UNL     1       2.481  -2.518   1.038  0.00  0.00    +0.000 HD
ENDROOT
BRANCH   1   7
ATOM      4  C   UNL     1      -0.675   0.280  -1.094  0.00  0.00    +0.000 C 
ATOM      5  C   UNL     1      -0.741  -1.030  -0.315  0.00  0.00    +0.000 C 
ATOM      6  C   UNL     1       0.644  -1.643  -0.123  0.00  0.00    +0.000 C 
ATOM      7  C   UNL     1       1.627  -0.647   0.505  0.00  0.00    +0.000 C 
ATOM      8  C   UNL     1       1.670   0.683  -0.250  0.00  0.00    +0.000 C 
ATOM      9  C   UNL     1       0.275   1.275  -0.435  0.00  0.00    +0.000 C 
ENDBRANCH   1   7
BRANCH   1  10
ATOM     10  C   UNL     1       4.296  -1.233  -0.676  0.00  0.00    +0.000 C 
ATOM     11  C   UNL     1       3.657  -1.904  -1.900  0.00  0.00    +0.000 C 
ATOM     12  C   UNL     1       4.553  -1.874  -3.135  0.00  0.00    +0.000 C 
ATOM     13  C   UNL     1       5.920  -2.480  -2.857  0.00  0.00    +0.000 C 
ATOM     14  C   UNL     1       6.586  -1.793  -1.673  0.00  0.00    +0.000 C 
ATOM     15  C   UNL     1       5.699  -1.829  -0.434  0.00  0.00    +0.000 C 
ENDBRANCH   1  10
TORSDOF 2
