REMARK  Name = *****
REMARK  3 active torsions:
REMARK  status: ('A' for Active; 'I' for Inactive)
REMARK    1  A    between atoms: C_4  and  O_7
REMARK    2  A    between atoms: O_7  and  C_8
REMARK    3  A    between atoms: C_8  and  C_10
REMARK                            x       y       z     vdW  Elec       q    Type
REMARK                         _______ _______ _______ _____ _____    ______ ____
ROOT
ATOM      1  C   UNL     1       3.307  -1.852   0.032  0.00  0.00    +0.000 C 
ATOM      2  O   UNL     1       3.064  -2.365   1.113  0.00  0.00    +0.000 OA
ENDROOT
BRANCH   1   3
ATOM      3  C   UNL     1       4.463  -2.250  -0.802  0.00  0.00    +0.000 A 
ATOM      4  C   UNL     1       5.068  -3.489  -0.540  0.00  0.00    +0.000 A 
ATOM      5  C   UNL     1       6.163  -3.915  -1.295  0.00  0.00    +0.000 A 
ATOM      6  C   UNL     1       6.666  -3.106  -2.313  0.00  0.00    +0.000 A 
ATOM      7  C   UNL     1       6.077  -1.869  -2.571  0.00  0.00    +0.000 A 
ATOM      8  C   UNL     1       4.983  -1.444  -1.816  0.00  0.00    +0.000 A 
ATOM      9  F   UNL     1       4.474  -0.233  -2.085  0.00  0.00    +0.000 F 
ENDBRANCH   1   3
BRANCH   1  10
ATOM     10  O   UNL     1       2.554  -0.917  -0.592  0.00  0.00    +0.000 OA
BRANCH  10  14
ATOM     11  C   UNL     1      -1.410   0.496  -0.062  0.00  0.00    +0.000 C 
ATOM     12  C   UNL     1      -1.088  -0.910   0.437  0.00  0.00    +0.000 C 
ATOM     13  C   UNL     1       0.219  -1.430  -0.153  0.00  0.00    +0.000 C 
ATOM     14  C   UNL     1       1.381  -0.468   0.110  0.00  0.00    +0.000 C 
ATOM     15  C   UNL     1       1.050   0.936  -0.404  0.00  0.00    +0.000 C 
ATOM     16  C   UNL     1      -0.254   1.461   0.187  0.00  0.00    +0.000 C 
ENDBRANCH  10  14
ENDBRANCH   1  10
TORSDOF 3
