REMARK  Name = *****
REMARK  4 active torsions:
REMARK  status: ('A' for Active; 'I' for Inactive)
REMARK    1  A    between atoms: C_4  and  C_7
REMARK    2  A    between atoms: C_7  and  N_8
REMARK    3  A    between atoms: N_8  and  C_9
REMARK    4  A    between atoms: C_9  and  C_11
REMARK                            x       y       z     vdW  Elec       q    Type
REMARK                         _______ _______ _______ _____ _____    ______ ____
ROOT
ATOM      1  C   UNL     1      -5.125  -0.049  -1.064  0.00  0.00    +0.000 C 
ATOM      2  S   UNL     1      -6.048   1.346  -0.933  0.00  0.00    +0.000 S 
ENDROOT
BRANCH   1   3
ATOM      3  C   UNL     1      -5.761  -1.355  -1.386  0.00  0.00    +0.000 A 
ATOM      4  C   UNL     1      -5.790  -2.413  -0.465  0.00  0.00    +0.000 A 
ATOM      5  C   UNL     1      -6.380  -3.630  -0.820  0.00  0.00    +0.000 A 
ATOM      6  C   UNL     1      -6.936  -3.787  -2.089  0.00  0.00    +0.000 A 
ATOM      7  C   UNL     1      -6.909  -2.742  -3.011  0.00  0.00    +0.000 A 
ATOM      8  C   UNL     1      -6.319  -1.525  -2.662  0.00  0.00    +0.000 A 
ATOM      9 CL   UNL     1      -7.658  -5.286  -2.523  0.00  0.00    +0.000 Cl
ATOM     10 CL   UNL     1      -5.124  -2.279   1.123  0.00  0.00    +0.000 Cl
ENDBRANCH   1   3
BRANCH   1  11
ATOM     11  N   UNL     1      -3.749  -0.124  -0.941  0.00  0.00    +0.000 N 
ATOM     12  H   UNL     1      -3.334  -0.987  -1.168  0.00  0.00    +0.000 HD
BRANCH  11  13
ATOM     13  C   UNL     1      -2.847   0.937  -0.511  0.00  0.00    +0.000 C 
BRANCH  13  17
ATOM     14  C   UNL     1      -1.911   0.484   3.674  0.00  0.00    +0.000 A 
ATOM     15  C   UNL     1      -1.247  -0.290   2.724  0.00  0.00    +0.000 A 
ATOM     16  C   UNL     1      -1.544  -0.140   1.369  0.00  0.00    +0.000 A 
ATOM     17  C   UNL     1      -2.506   0.791   0.949  0.00  0.00    +0.000 A 
ATOM     18  C   UNL     1      -3.173   1.557   1.916  0.00  0.00    +0.000 A 
ATOM     19  C   UNL     1      -2.873   1.407   3.270  0.00  0.00    +0.000 A 
ENDBRANCH  13  17
ENDBRANCH  11  13
ENDBRANCH   1  11
TORSDOF 4
