REMARK  Name = *****
REMARK  2 active torsions:
REMARK  status: ('A' for Active; 'I' for Inactive)
REMARK    1  A    between atoms: C_4  and  C_7
REMARK    2  A    between atoms: C_7  and  C_8
REMARK                            x       y       z     vdW  Elec       q    Type
REMARK                         _______ _______ _______ _____ _____    ______ ____
ROOT
ATOM      1  C   UNL     1      -3.022   0.474  -0.057  0.00  0.00    +0.000 C 
ENDROOT
BRANCH   1   2
ATOM      2  C   UNL     1      -3.916  -0.313  -0.675  0.00  0.00    +0.000 C 
ATOM      3  C   UNL     1      -5.133   0.463  -1.159  0.00  0.00    +0.000 A 
ATOM      4  C   UNL     1      -6.433   0.875  -1.314  0.00  0.00    +0.000 A 
ATOM      5  C   UNL     1      -7.572   0.369  -0.624  0.00  0.00    +0.000 A 
ATOM      6  C   UNL     1      -7.424  -0.641   0.321  0.00  0.00    +0.000 A 
ATOM      7  C   UNL     1      -6.156  -1.121   0.546  0.00  0.00    +0.000 A 
ATOM      8  C   UNL     1      -5.186  -0.524  -0.221  0.00  0.00    +0.000 A 
ENDBRANCH   1   2
BRANCH   1  12
ATOM      9  C   UNL     1       1.210  -0.202  -0.107  0.00  0.00    +0.000 A 
ATOM     10  C   UNL     1       0.355  -1.185  -0.598  0.00  0.00    +0.000 A 
ATOM     11  C   UNL     1      -1.028  -0.978  -0.593  0.00  0.00    +0.000 A 
ATOM     12  C   UNL     1      -1.573   0.215  -0.099  0.00  0.00    +0.000 A 
ATOM     13  C   UNL     1      -0.698   1.193   0.398  0.00  0.00    +0.000 A 
ATOM     14  C   UNL     1       0.685   0.987   0.392  0.00  0.00    +0.000 A 
ENDBRANCH   1  12
TORSDOF 2
