REMARK  Name = *****
REMARK  5 active torsions:
REMARK  status: ('A' for Active; 'I' for Inactive)
REMARK    1  A    between atoms: C_1  and  O_2
REMARK    2  A    between atoms: O_2  and  C_3
REMARK    3  A    between atoms: C_6  and  C_9
REMARK    4  A    between atoms: C_9  and  C_13
REMARK    5  A    between atoms: C_13  and  C_14
REMARK                            x       y       z     vdW  Elec       q    Type
REMARK                         _______ _______ _______ _____ _____    ______ ____
ROOT
ATOM      1  C   UNL     1       5.402   3.457  -3.689  0.00  0.00    +0.000 C 
ATOM      2  C   UNL     1       6.596   3.037  -4.134  0.00  0.00    +0.000 C 
ATOM      3  F   UNL     1       7.373   3.866  -4.864  0.00  0.00    +0.000 F 
ATOM      4  F   UNL     1       7.041   1.792  -3.862  0.00  0.00    +0.000 F 
ENDROOT
BRANCH   1   8
ATOM      5  C   UNL     1       2.933   0.873  -1.316  0.00  0.00    +0.000 A 
ATOM      6  C   UNL     1       3.495   2.018  -0.753  0.00  0.00    +0.000 A 
ATOM      7  C   UNL     1       4.303   2.860  -1.528  0.00  0.00    +0.000 A 
ATOM      8  C   UNL     1       4.561   2.565  -2.872  0.00  0.00    +0.000 A 
ATOM      9  C   UNL     1       3.995   1.414  -3.432  0.00  0.00    +0.000 A 
ATOM     10  C   UNL     1       3.186   0.578  -2.657  0.00  0.00    +0.000 A 
BRANCH   5  12
ATOM     11  C   UNL     1       1.873   0.205   0.704  0.00  0.00    +0.000 C 
ATOM     12  O   UNL     1       2.128  -0.028  -0.675  0.00  0.00    +0.000 OA
ENDBRANCH   5  12
ENDBRANCH   1   8
BRANCH   1  13
ATOM     13  C   UNL     1       4.896   4.855  -3.945  0.00  0.00    +0.000 C 
BRANCH  13  14
ATOM     14  C   UNL     1       3.856   4.910  -5.043  0.00  0.00    +0.000 A 
ATOM     15  C   UNL     1       2.493   4.776  -4.743  0.00  0.00    +0.000 A 
ATOM     16  C   UNL     1       1.539   4.803  -5.762  0.00  0.00    +0.000 A 
ATOM     17  C   UNL     1       1.937   4.961  -7.088  0.00  0.00    +0.000 A 
ATOM     18  C   UNL     1       3.290   5.087  -7.398  0.00  0.00    +0.000 A 
ATOM     19  C   UNL     1       4.246   5.058  -6.382  0.00  0.00    +0.000 A 
ENDBRANCH  13  14
ENDBRANCH   1  13
TORSDOF 4
