REMARK  Name = *****
REMARK  3 active torsions:
REMARK  status: ('A' for Active; 'I' for Inactive)
REMARK    1  A    between atoms: C_1  and  C_2
REMARK    2  A    between atoms: C_3  and  N_9
REMARK    3  A    between atoms: C_10  and  C_11
REMARK                            x       y       z     vdW  Elec       q    Type
REMARK                         _______ _______ _______ _____ _____    ______ ____
ROOT
ATOM      1  C   UNL     1       3.556  -0.173  -0.748  0.00  0.00    +0.000 C 
ATOM      2  C   UNL     1       2.111  -0.086  -0.344  0.00  0.00    +0.000 A 
ATOM      3  C   UNL     1       1.498   1.162  -0.122  0.00  0.00    +0.000 A 
ATOM      4  C   UNL     1       0.145   1.218   0.227  0.00  0.00    +0.000 A 
ATOM      5  C   UNL     1      -0.586   0.043   0.388  0.00  0.00    +0.000 A 
ATOM      6  C   UNL     1       0.018  -1.196   0.197  0.00  0.00    +0.000 A 
ATOM      7  C   UNL     1       1.364  -1.261  -0.169  0.00  0.00    +0.000 A 
ATOM      8 CL   UNL     1      -2.247   0.124   0.829  0.00  0.00    +0.000 Cl
ENDROOT
BRANCH   3   9
ATOM      9  N   UNL     1       2.211   2.360  -0.285  0.00  0.00    +0.000 NA
ATOM     10  C   UNL     1       2.783   2.827   0.781  0.00  0.00    +0.000 C 
BRANCH  10  11
ATOM     11  C   UNL     1       3.545   4.050   0.729  0.00  0.00    +0.000 A 
ATOM     12  C   UNL     1       3.778   4.882  -0.347  0.00  0.00    +0.000 A 
ATOM     13  C   UNL     1       4.586   6.003   0.002  0.00  0.00    +0.000 A 
ATOM     14  C   UNL     1       4.942   5.986   1.332  0.00  0.00    +0.000 A 
ATOM     15  S   UNL     1       4.302   4.625   2.150  0.00  0.00    +0.000 S 
ENDBRANCH  10  11
ENDBRANCH   3   9
TORSDOF 2
