REMARK  Name = *****
REMARK  4 active torsions:
REMARK  status: ('A' for Active; 'I' for Inactive)
REMARK    1  A    between atoms: C_1  and  C_2
REMARK    2  A    between atoms: C_3  and  C_9
REMARK    3  A    between atoms: C_9  and  C_10
REMARK    4  A    between atoms: C_10  and  C_11
REMARK                            x       y       z     vdW  Elec       q    Type
REMARK                         _______ _______ _______ _____ _____    ______ ____
ROOT
ATOM      1  C   UNL     1       0.851   0.148   0.228  0.00  0.00    +0.000 C 
ATOM      2  C   UNL     1       2.355   0.132  -0.016  0.00  0.00    +0.000 C 
ATOM      3  C   UNL     1       2.994  -1.005  -0.406  0.00  0.00    +0.000 C 
ATOM      4  S   UNL     1       4.704  -1.215  -0.777  0.00  0.00    +0.000 S 
ATOM      5  C   UNL     1       5.562  -0.107   0.355  0.00  0.00    +0.000 C 
ATOM      6  C   UNL     1       5.703   1.286  -0.250  0.00  0.00    +0.000 C 
ATOM      7  C   UNL     1       4.425   1.870  -0.842  0.00  0.00    +0.000 C 
ATOM      8  S   UNL     1       3.051   1.714   0.313  0.00  0.00    +0.000 S 
ENDROOT
BRANCH   3   9
ATOM      9  C   UNL     1       2.231  -2.326  -0.572  0.00  0.00    +0.000 C 
BRANCH   9  10
ATOM     10  C   UNL     1       1.764  -2.552  -2.016  0.00  0.00    +0.000 C 
BRANCH  10  11
ATOM     11  C   UNL     1       0.960  -3.823  -2.145  0.00  0.00    +0.000 A 
ATOM     12  C   UNL     1      -0.434  -3.801  -1.997  0.00  0.00    +0.000 A 
ATOM     13  C   UNL     1      -1.173  -4.980  -2.096  0.00  0.00    +0.000 A 
ATOM     14  C   UNL     1      -0.527  -6.191  -2.338  0.00  0.00    +0.000 A 
ATOM     15  C   UNL     1       0.859  -6.225  -2.480  0.00  0.00    +0.000 A 
ATOM     16  C   UNL     1       1.600  -5.046  -2.382  0.00  0.00    +0.000 A 
ENDBRANCH  10  11
ENDBRANCH   9  10
ENDBRANCH   3   9
TORSDOF 3
