REMARK  Name = *****
REMARK  3 active torsions:
REMARK  status: ('A' for Active; 'I' for Inactive)
REMARK    1  A    between atoms: C_2  and  C_3
REMARK    2  A    between atoms: C_5  and  C_9
REMARK    3  A    between atoms: C_10  and  C_11
REMARK                            x       y       z     vdW  Elec       q    Type
REMARK                         _______ _______ _______ _____ _____    ______ ____
ROOT
ATOM      1  C   UNL     1       3.715   0.145  -0.053  0.00  0.00    +0.000 A 
ATOM      2  C   UNL     1       4.375   1.360  -0.251  0.00  0.00    +0.000 A 
ATOM      3  C   UNL     1       5.767   1.387  -0.366  0.00  0.00    +0.000 A 
ATOM      4  C   UNL     1       6.498   0.199  -0.282  0.00  0.00    +0.000 A 
ATOM      5  C   UNL     1       5.839  -1.015  -0.084  0.00  0.00    +0.000 A 
ATOM      6  C   UNL     1       4.448  -1.042   0.030  0.00  0.00    +0.000 A 
ENDROOT
BRANCH   1   8
ATOM      7  C   UNL     1       1.093   0.091   0.165  0.00  0.00    +0.000 C 
ATOM      8  C   UNL     1       2.289   0.115   0.065  0.00  0.00    +0.000 C 
ENDBRANCH   1   8
BRANCH   3   9
ATOM      9  C   UNL     1       6.444   2.630  -0.571  0.00  0.00    +0.000 C 
ATOM     10  C   UNL     1       7.011   3.676  -0.743  0.00  0.00    +0.000 C 
BRANCH  10  11
ATOM     11  C   UNL     1       7.684   4.921  -0.951  0.00  0.00    +0.000 A 
ATOM     12  C   UNL     1       7.110   6.110  -0.496  0.00  0.00    +0.000 A 
ATOM     13  C   UNL     1       7.766   7.326  -0.700  0.00  0.00    +0.000 A 
ATOM     14  C   UNL     1       8.996   7.353  -1.358  0.00  0.00    +0.000 A 
ATOM     15  C   UNL     1       9.570   6.166  -1.813  0.00  0.00    +0.000 A 
ATOM     16  C   UNL     1       8.915   4.950  -1.609  0.00  0.00    +0.000 A 
ENDBRANCH  10  11
ENDBRANCH   3   9
TORSDOF 3
