REMARK  Name = *****
REMARK  4 active torsions:
REMARK  status: ('A' for Active; 'I' for Inactive)
REMARK    1  A    between atoms: C_3  and  C_16
REMARK    2  A    between atoms: C_6  and  C_7
REMARK    3  A    between atoms: C_7  and  S_8
REMARK    4  A    between atoms: S_8  and  C_9
REMARK                            x       y       z     vdW  Elec       q    Type
REMARK                         _______ _______ _______ _____ _____    ______ ____
ROOT
ATOM      1  C   UNL     1       3.858  -0.325   0.402  0.00  0.00    +0.000 C 
ENDROOT
BRANCH   1   7
ATOM      2  C   UNL     1       1.795   0.676  -0.667  0.00  0.00    +0.000 A 
ATOM      3  C   UNL     1       0.410   0.737  -0.840  0.00  0.00    +0.000 A 
ATOM      4  C   UNL     1      -0.426  -0.127  -0.127  0.00  0.00    +0.000 A 
ATOM      5  C   UNL     1       0.130  -1.054   0.758  0.00  0.00    +0.000 A 
ATOM      6  C   UNL     1       1.515  -1.116   0.932  0.00  0.00    +0.000 A 
ATOM      7  C   UNL     1       2.360  -0.247   0.226  0.00  0.00    +0.000 A 
BRANCH   4   8
ATOM      8  C   UNL     1      -1.847  -0.064  -0.306  0.00  0.00    +0.000 C 
ATOM      9  N   UNL     1      -2.998  -0.012  -0.448  0.00  0.00    +0.000 NA
ENDBRANCH   4   8
ENDBRANCH   1   7
BRANCH   1  10
ATOM     10  S   UNL     1       4.607  -1.452  -0.821  0.00  0.00    +0.000 S 
BRANCH  10  11
ATOM     11  C   UNL     1       6.278  -1.511  -0.202  0.00  0.00    +0.000 A 
ATOM     12  C   UNL     1       7.054  -0.352  -0.073  0.00  0.00    +0.000 A 
ATOM     13  C   UNL     1       8.364  -0.434   0.405  0.00  0.00    +0.000 A 
ATOM     14  C   UNL     1       8.896  -1.673   0.742  0.00  0.00    +0.000 A 
ATOM     15  C   UNL     1       8.145  -2.834   0.606  0.00  0.00    +0.000 A 
ATOM     16  C   UNL     1       6.835  -2.753   0.128  0.00  0.00    +0.000 A 
ATOM     17  F   UNL     1      10.152  -1.750   1.200  0.00  0.00    +0.000 F 
ENDBRANCH  10  11
ENDBRANCH   1  10
TORSDOF 4
