REMARK  Name = *****
REMARK  4 active torsions:
REMARK  status: ('A' for Active; 'I' for Inactive)
REMARK    1  A    between atoms: C_1  and  C_2
REMARK    2  A    between atoms: C_5  and  C_8
REMARK    3  A    between atoms: C_9  and  C_10
REMARK    4  A    between atoms: C_14  and  C_16
REMARK                            x       y       z     vdW  Elec       q    Type
REMARK                         _______ _______ _______ _____ _____    ______ ____
ROOT
ATOM      1  C   UNL     1      -3.286   0.065  -0.077  0.00  0.00    +0.000 C 
ATOM      2  C   UNL     1      -4.051   1.168  -0.042  0.00  0.00    +0.000 C 
ENDROOT
BRANCH   1   7
ATOM      3  C   UNL     1       2.504  -0.009  -0.063  0.00  0.00    +0.000 C 
ATOM      4  C   UNL     1       1.005   0.042  -0.087  0.00  0.00    +0.000 A 
ATOM      5  C   UNL     1       0.313   0.962   0.708  0.00  0.00    +0.000 A 
ATOM      6  C   UNL     1      -1.085   0.987   0.711  0.00  0.00    +0.000 A 
ATOM      7  C   UNL     1      -1.817   0.092  -0.080  0.00  0.00    +0.000 A 
ATOM      8  C   UNL     1      -1.122  -0.848  -0.849  0.00  0.00    +0.000 A 
ATOM      9  C   UNL     1       0.276  -0.874  -0.853  0.00  0.00    +0.000 A 
ENDBRANCH   1   7
BRANCH   2  10
ATOM     10  C   UNL     1      -5.521   1.143  -0.056  0.00  0.00    +0.000 A 
ATOM     11  C   UNL     1      -6.257   0.199   0.669  0.00  0.00    +0.000 A 
ATOM     12  C   UNL     1      -7.653   0.232   0.665  0.00  0.00    +0.000 A 
ATOM     13  C   UNL     1      -8.327   1.214  -0.060  0.00  0.00    +0.000 A 
ATOM     14  C   UNL     1      -7.612   2.168  -0.792  0.00  0.00    +0.000 A 
ATOM     15  C   UNL     1      -6.210   2.135  -0.769  0.00  0.00    +0.000 A 
ATOM     16  C   UNL     1      -8.329   3.251  -1.542  0.00  0.00    +0.000 C 
ENDBRANCH   2  10
TORSDOF 2
