REMARK  Name = *****
REMARK  3 active torsions:
REMARK  status: ('A' for Active; 'I' for Inactive)
REMARK    1  A    between atoms: C_4  and  C_7
REMARK    2  A    between atoms: C_8  and  C_9
REMARK    3  A    between atoms: C_10  and  C_14
REMARK                            x       y       z     vdW  Elec       q    Type
REMARK                         _______ _______ _______ _____ _____    ______ ____
ROOT
ATOM      1  C   UNL     1       0.675  -0.153   0.000  0.00  0.00    +0.000 C 
ATOM      2  C   UNL     1      -0.524  -0.225  -0.001  0.00  0.00    +0.000 C 
ENDROOT
BRANCH   1   6
ATOM      3  C   UNL     1       4.890   0.114   0.009  0.00  0.00    +0.000 A 
ATOM      4  C   UNL     1       4.117   1.276   0.007  0.00  0.00    +0.000 A 
ATOM      5  C   UNL     1       2.724   1.188   0.003  0.00  0.00    +0.000 A 
ATOM      6  C   UNL     1       2.102  -0.063   0.003  0.00  0.00    +0.000 A 
ATOM      7  C   UNL     1       2.878  -1.226   0.005  0.00  0.00    +0.000 A 
ATOM      8  C   UNL     1       4.271  -1.136   0.009  0.00  0.00    +0.000 A 
ENDBRANCH   1   6
BRANCH   2   9
ATOM      9  C   UNL     1      -1.950  -0.313  -0.002  0.00  0.00    +0.000 A 
ATOM     10  C   UNL     1      -2.697  -1.478  -0.005  0.00  0.00    +0.000 A 
ATOM     11  C   UNL     1      -4.104  -1.188  -0.005  0.00  0.00    +0.000 A 
ATOM     12  C   UNL     1      -4.369   0.162  -0.001  0.00  0.00    +0.000 A 
ATOM     13  S   UNL     1      -2.936   1.088   0.002  0.00  0.00    +0.000 S 
BRANCH  10  14
ATOM     14  C   UNL     1      -2.130  -2.820  -0.009  0.00  0.00    +0.000 C 
ATOM     15  O   UNL     1      -2.816  -3.838  -0.012  0.00  0.00    +0.000 OA
ENDBRANCH  10  14
ENDBRANCH   2   9
TORSDOF 3
