REMARK  Name = *****
REMARK  5 active torsions:
REMARK  status: ('A' for Active; 'I' for Inactive)
REMARK    1  A    between atoms: C_4  and  C_7
REMARK    2  A    between atoms: C_7  and  C_8
REMARK    3  A    between atoms: C_7  and  C_18
REMARK    4  A    between atoms: C_8  and  C_9
REMARK    5  A    between atoms: C_14  and  C_15
REMARK                            x       y       z     vdW  Elec       q    Type
REMARK                         _______ _______ _______ _____ _____    ______ ____
ROOT
ATOM      1  C   UNL     1      -3.287   1.374  -1.265  0.00  0.00    +0.000 C 
ENDROOT
BRANCH   1   2
ATOM      2  C   UNL     1      -2.388   2.597  -1.304  0.00  0.00    +0.000 A 
ATOM      3  C   UNL     1      -2.471   3.534  -0.258  0.00  0.00    +0.000 A 
ATOM      4  C   UNL     1      -1.615   4.637  -0.208  0.00  0.00    +0.000 A 
ATOM      5  C   UNL     1      -0.660   4.829  -1.202  0.00  0.00    +0.000 A 
ATOM      6  C   UNL     1      -0.574   3.929  -2.261  0.00  0.00    +0.000 A 
ATOM      7  C   UNL     1      -1.444   2.830  -2.324  0.00  0.00    +0.000 A 
BRANCH   7   8
ATOM      8  C   UNL     1      -1.327   1.973  -3.531  0.00  0.00    +0.000 C 
ATOM      9  O   UNL     1      -0.274   1.360  -3.688  0.00  0.00    +0.000 OA
ATOM     10 CL   UNL     1      -2.663   1.974  -4.657  0.00  0.00    +0.000 Cl
ENDBRANCH   7   8
ENDBRANCH   1   2
BRANCH   1  11
ATOM     11  C   UNL     1      -3.062   0.451  -0.041  0.00  0.00    +0.000 C 
BRANCH  11  15
ATOM     12  C   UNL     1       0.986  -1.071   0.223  0.00  0.00    +0.000 A 
ATOM     13  C   UNL     1       0.443  -0.331   1.270  0.00  0.00    +0.000 A 
ATOM     14  C   UNL     1      -0.864   0.152   1.181  0.00  0.00    +0.000 A 
ATOM     15  C   UNL     1      -1.646  -0.100   0.041  0.00  0.00    +0.000 A 
ATOM     16  C   UNL     1      -1.086  -0.857  -1.002  0.00  0.00    +0.000 A 
ATOM     17  C   UNL     1       0.223  -1.333  -0.912  0.00  0.00    +0.000 A 
ENDBRANCH  11  15
BRANCH  11  18
ATOM     18  C   UNL     1      -4.067  -0.636  -0.056  0.00  0.00    +0.000 C 
ATOM     19  N   UNL     1      -4.880  -1.465  -0.077  0.00  0.00    +0.000 NA
ENDBRANCH  11  18
ENDBRANCH   1  11
TORSDOF 5
