REMARK  Name = *****
REMARK  3 active torsions:
REMARK  status: ('A' for Active; 'I' for Inactive)
REMARK    1  A    between atoms: C_1  and  C_2
REMARK    2  A    between atoms: C_2  and  C_8
REMARK    3  A    between atoms: C_9  and  C_10
REMARK                            x       y       z     vdW  Elec       q    Type
REMARK                         _______ _______ _______ _____ _____    ______ ____
ROOT
ATOM      1  C   UNL     1       2.823   0.510   1.368  0.00  0.00    +0.000 C 
ATOM      2  C   UNL     1       2.103   0.877   2.445  0.00  0.00    +0.000 C 
ENDROOT
BRANCH   1   4
ATOM      3  C   UNL     1       0.776   0.063  -0.102  0.00  0.00    +0.000 C 
ATOM      4  C   UNL     1       2.308   0.075   0.002  0.00  0.00    +0.000 C 
ATOM      5  S   UNL     1       3.035   1.275  -1.192  0.00  0.00    +0.000 S 
ATOM      6  C   UNL     1       2.577   0.521  -2.775  0.00  0.00    +0.000 C 
ATOM      7  C   UNL     1       3.134  -0.882  -2.954  0.00  0.00    +0.000 C 
ATOM      8  C   UNL     1       2.544  -1.907  -1.998  0.00  0.00    +0.000 C 
ATOM      9  S   UNL     1       2.994  -1.612  -0.267  0.00  0.00    +0.000 S 
ENDBRANCH   1   4
BRANCH   2  10
ATOM     10  C   UNL     1       2.701   1.284   3.725  0.00  0.00    +0.000 A 
ATOM     11  C   UNL     1       3.835   2.105   3.790  0.00  0.00    +0.000 A 
ATOM     12  C   UNL     1       4.356   2.500   5.025  0.00  0.00    +0.000 A 
ATOM     13  C   UNL     1       3.743   2.087   6.206  0.00  0.00    +0.000 A 
ATOM     14  C   UNL     1       2.606   1.284   6.153  0.00  0.00    +0.000 A 
ATOM     15  C   UNL     1       2.084   0.889   4.918  0.00  0.00    +0.000 A 
ENDBRANCH   2  10
TORSDOF 2
