REMARK  Name = *****
REMARK  3 active torsions:
REMARK  status: ('A' for Active; 'I' for Inactive)
REMARK    1  A    between atoms: C_4  and  N_7
REMARK    2  A    between atoms: N_7  and  C_8
REMARK    3  A    between atoms: C_8  and  C_9
REMARK                            x       y       z     vdW  Elec       q    Type
REMARK                         _______ _______ _______ _____ _____    ______ ____
ROOT
ATOM      1  C   UNL     1       4.011   0.256  -0.441  0.00  0.00    +0.000 C 
ENDROOT
BRANCH   1   2
ATOM      2  C   UNL     1       5.429   0.349  -0.605  0.00  0.00    +0.000 A 
ATOM      3  C   UNL     1       6.041   1.601  -0.689  0.00  0.00    +0.000 A 
ATOM      4  C   UNL     1       7.423   1.681  -0.852  0.00  0.00    +0.000 A 
ATOM      5  C   UNL     1       8.197   0.523  -0.931  0.00  0.00    +0.000 A 
ATOM      6  C   UNL     1       7.584  -0.727  -0.847  0.00  0.00    +0.000 A 
ATOM      7  C   UNL     1       6.200  -0.814  -0.684  0.00  0.00    +0.000 A 
ATOM      8 CL   UNL     1       8.182   3.222  -0.956  0.00  0.00    +0.000 Cl
ENDBRANCH   1   2
BRANCH   1   9
ATOM      9  N   UNL     1       2.906   0.186  -0.316  0.00  0.00    +0.000 NA
BRANCH   9  13
ATOM     10  C   UNL     1      -1.212  -0.072   0.136  0.00  0.00    +0.000 A 
ATOM     11  C   UNL     1      -0.597   1.181   0.062  0.00  0.00    +0.000 A 
ATOM     12  C   UNL     1       0.786   1.270  -0.089  0.00  0.00    +0.000 A 
ATOM     13  C   UNL     1       1.533   0.100  -0.163  0.00  0.00    +0.000 A 
ATOM     14  C   UNL     1       0.937  -1.155  -0.091  0.00  0.00    +0.000 A 
ATOM     15  C   UNL     1      -0.446  -1.239   0.060  0.00  0.00    +0.000 A 
ENDBRANCH   9  13
ENDBRANCH   1   9
TORSDOF 3
