REMARK  Name = *****
REMARK  3 active torsions:
REMARK  status: ('A' for Active; 'I' for Inactive)
REMARK    1  A    between atoms: C_1  and  C_2
REMARK    2  A    between atoms: C_2  and  C_11
REMARK    3  A    between atoms: N_3  and  C_4
REMARK                            x       y       z     vdW  Elec       q    Type
REMARK                         _______ _______ _______ _____ _____    ______ ____
ROOT
ATOM      1  C   UNL     1       1.265   0.841  -0.584  0.00  0.00    +0.000 C 
ATOM      2  C   UNL     1       2.532   0.226  -0.018  0.00  0.00    +0.000 C 
ATOM      3  N   UNL     1       3.028   0.526   1.149  0.00  0.00    +0.000 NA
ENDROOT
BRANCH   3   4
ATOM      4  C   UNL     1       2.382   1.452   1.975  0.00  0.00    +0.000 A 
ATOM      5  C   UNL     1       1.346   1.045   2.823  0.00  0.00    +0.000 A 
ATOM      6  C   UNL     1       0.722   1.967   3.666  0.00  0.00    +0.000 A 
ATOM      7  C   UNL     1       1.150   3.290   3.666  0.00  0.00    +0.000 A 
ATOM      8  C   UNL     1       2.192   3.706   2.846  0.00  0.00    +0.000 A 
ATOM      9  C   UNL     1       2.813   2.782   2.004  0.00  0.00    +0.000 A 
ATOM     10  F   UNL     1       0.553   4.175   4.475  0.00  0.00    +0.000 F 
ENDBRANCH   3   4
BRANCH   2  11
ATOM     11  C   UNL     1       3.245  -0.795  -0.847  0.00  0.00    +0.000 A 
ATOM     12  C   UNL     1       2.561  -1.600  -1.766  0.00  0.00    +0.000 A 
ATOM     13  C   UNL     1       3.257  -2.548  -2.521  0.00  0.00    +0.000 A 
ATOM     14  C   UNL     1       4.633  -2.701  -2.357  0.00  0.00    +0.000 A 
ATOM     15  C   UNL     1       5.317  -1.912  -1.434  0.00  0.00    +0.000 A 
ATOM     16  C   UNL     1       4.625  -0.965  -0.677  0.00  0.00    +0.000 A 
ENDBRANCH   2  11
TORSDOF 2
