REMARK  Name = *****
REMARK  1 active torsions:
REMARK  status: ('A' for Active; 'I' for Inactive)
REMARK    1  A    between atoms: N_11  and  C_12
REMARK                            x       y       z     vdW  Elec       q    Type
REMARK                         _______ _______ _______ _____ _____    ______ ____
ROOT
ATOM      1  C   UNL     1       1.235   1.538  -0.406  0.00  0.00    +0.000 C 
ATOM      2  C   UNL     1      -0.038   0.798  -0.157  0.00  0.00    +0.000 A 
ATOM      3  C   UNL     1       0.051  -0.593  -0.189  0.00  0.00    +0.000 A 
ATOM      4  C   UNL     1      -1.105  -1.355   0.024  0.00  0.00    +0.000 A 
ATOM      5  C   UNL     1      -2.331  -0.731   0.264  0.00  0.00    +0.000 A 
ATOM      6  C   UNL     1      -2.399   0.657   0.281  0.00  0.00    +0.000 A 
ATOM      7  C   UNL     1      -1.266   1.432   0.067  0.00  0.00    +0.000 A 
ATOM      8  F   UNL     1      -3.575   1.258   0.502  0.00  0.00    +0.000 F 
ATOM      9  N   UNL     1       1.259  -1.244  -0.481  0.00  0.00    +0.000 NA
ATOM     10  N   UNL     1       2.346  -0.619  -0.466  0.00  0.00    +0.000 NA
ATOM     11  N   UNL     1       2.346   0.674   0.005  0.00  0.00    +0.000 N 
ENDROOT
BRANCH  11  12
ATOM     12  C   UNL     1       3.616   1.311   0.047  0.00  0.00    +0.000 A 
ATOM     13  C   UNL     1       4.765   0.707  -0.497  0.00  0.00    +0.000 A 
ATOM     14  C   UNL     1       6.018   1.329  -0.446  0.00  0.00    +0.000 A 
ATOM     15  C   UNL     1       6.156   2.567   0.171  0.00  0.00    +0.000 A 
ATOM     16  C   UNL     1       5.046   3.176   0.744  0.00  0.00    +0.000 A 
ATOM     17  C   UNL     1       3.794   2.551   0.689  0.00  0.00    +0.000 A 
ENDBRANCH  11  12
TORSDOF 1
