REMARK  Name = *****
REMARK  2 active torsions:
REMARK  status: ('A' for Active; 'I' for Inactive)
REMARK    1  A    between atoms: C_3  and  N_9
REMARK    2  A    between atoms: C_10  and  C_11
REMARK                            x       y       z     vdW  Elec       q    Type
REMARK                         _______ _______ _______ _____ _____    ______ ____
ROOT
ATOM      1  N   UNL     1      -0.785   2.837   0.288  0.00  0.00    +0.000 NA
ATOM      2  C   UNL     1      -1.770   3.553  -0.153  0.00  0.00    +0.000 C 
ENDROOT
BRANCH   1   5
ATOM      3  C   UNL     1      -0.708  -0.749   1.206  0.00  0.00    +0.000 A 
ATOM      4  C   UNL     1      -0.658   0.647   1.281  0.00  0.00    +0.000 A 
ATOM      5  C   UNL     1      -0.882   1.438   0.147  0.00  0.00    +0.000 A 
ATOM      6  C   UNL     1      -1.134   0.797  -1.074  0.00  0.00    +0.000 A 
ATOM      7  C   UNL     1      -1.183  -0.591  -1.146  0.00  0.00    +0.000 A 
ATOM      8  C   UNL     1      -0.974  -1.370  -0.013  0.00  0.00    +0.000 A 
ATOM      9  F   UNL     1      -1.437  -1.195  -2.316  0.00  0.00    +0.000 F 
ATOM     10  F   UNL     1      -1.340   1.520  -2.187  0.00  0.00    +0.000 F 
ENDBRANCH   1   5
BRANCH   2  11
ATOM     11  C   UNL     1      -1.751   5.026  -0.067  0.00  0.00    +0.000 A 
ATOM     12  C   UNL     1      -0.654   5.697   0.478  0.00  0.00    +0.000 A 
ATOM     13  C   UNL     1      -0.672   7.087   0.543  0.00  0.00    +0.000 A 
ATOM     14  C   UNL     1      -1.759   7.814   0.077  0.00  0.00    +0.000 A 
ATOM     15  C   UNL     1      -2.841   7.131  -0.462  0.00  0.00    +0.000 A 
ATOM     16  C   UNL     1      -2.852   5.742  -0.542  0.00  0.00    +0.000 A 
ATOM     17  F   UNL     1      -3.896   7.821  -0.914  0.00  0.00    +0.000 F 
ATOM     18  F   UNL     1       0.378   7.735   1.065  0.00  0.00    +0.000 F 
ENDBRANCH   2  11
TORSDOF 2
