REMARK  Name = *****
REMARK  5 active torsions:
REMARK  status: ('A' for Active; 'I' for Inactive)
REMARK    1  A    between atoms: C_1  and  C_2
REMARK    2  A    between atoms: C_7  and  C_8
REMARK    3  A    between atoms: C_8  and  C_9
REMARK    4  A    between atoms: C_9  and  C_10
REMARK    5  A    between atoms: C_15  and  C_16
REMARK                            x       y       z     vdW  Elec       q    Type
REMARK                         _______ _______ _______ _____ _____    ______ ____
ROOT
ATOM      1  C   UNL     1       0.927  -2.474   0.001  0.00  0.00    +0.000 C 
ENDROOT
BRANCH   1   8
ATOM      2  C   UNL     1       0.190  -0.881   2.463  0.00  0.00    +0.000 C 
ATOM      3  C   UNL     1      -0.024  -0.345   1.074  0.00  0.00    +0.000 A 
ATOM      4  C   UNL     1      -0.590   0.931   0.920  0.00  0.00    +0.000 A 
ATOM      5  C   UNL     1      -0.817   1.468  -0.348  0.00  0.00    +0.000 A 
ATOM      6  C   UNL     1      -0.484   0.735  -1.480  0.00  0.00    +0.000 A 
ATOM      7  C   UNL     1       0.073  -0.536  -1.345  0.00  0.00    +0.000 A 
ATOM      8  C   UNL     1       0.304  -1.094  -0.075  0.00  0.00    +0.000 A 
ENDBRANCH   1   8
BRANCH   1   9
ATOM      9  C   UNL     1       2.461  -2.408  -0.033  0.00  0.00    +0.000 C 
BRANCH   9  10
ATOM     10  C   UNL     1       3.218  -3.725   0.028  0.00  0.00    +0.000 A 
ATOM     11  C   UNL     1       2.556  -4.965   0.057  0.00  0.00    +0.000 A 
ATOM     12  C   UNL     1       3.269  -6.165   0.104  0.00  0.00    +0.000 A 
ATOM     13  C   UNL     1       4.657  -6.151   0.123  0.00  0.00    +0.000 A 
ATOM     14  C   UNL     1       5.336  -4.935   0.094  0.00  0.00    +0.000 A 
ATOM     15  C   UNL     1       4.634  -3.719   0.045  0.00  0.00    +0.000 A 
ATOM     16  C   UNL     1       5.419  -2.434   0.017  0.00  0.00    +0.000 C 
ENDBRANCH   9  10
ENDBRANCH   1   9
TORSDOF 3
