REMARK  Name = *****
REMARK  3 active torsions:
REMARK  status: ('A' for Active; 'I' for Inactive)
REMARK    1  A    between atoms: C_1  and  C_2
REMARK    2  A    between atoms: C_4  and  C_8
REMARK    3  A    between atoms: N_10  and  C_11
REMARK                            x       y       z     vdW  Elec       q    Type
REMARK                         _______ _______ _______ _____ _____    ______ ____
ROOT
ATOM      1  C   UNL     1      -2.079   2.403   0.188  0.00  0.00    +0.000 C 
ATOM      2  O   UNL     1      -3.241   2.254   0.544  0.00  0.00    +0.000 OA
ATOM      3  N   UNL     1      -1.469   3.590  -0.177  0.00  0.00    +0.000 N 
ATOM      4  H   UNL     1      -0.543   3.523  -0.503  0.00  0.00    +0.000 HD
ENDROOT
BRANCH   1   8
ATOM      5  C   UNL     1       2.388   0.111   0.692  0.00  0.00    +0.000 C 
ATOM      6  C   UNL     1       0.942   0.087   0.291  0.00  0.00    +0.000 A 
ATOM      7  C   UNL     1       0.148   1.236   0.416  0.00  0.00    +0.000 A 
ATOM      8  C   UNL     1      -1.212   1.197   0.076  0.00  0.00    +0.000 A 
ATOM      9  C   UNL     1      -1.789  -0.003  -0.352  0.00  0.00    +0.000 A 
ATOM     10  C   UNL     1      -1.007  -1.151  -0.466  0.00  0.00    +0.000 A 
ATOM     11  C   UNL     1       0.351  -1.106  -0.146  0.00  0.00    +0.000 A 
ENDBRANCH   1   8
BRANCH   3  12
ATOM     12  C   UNL     1      -2.025   4.887  -0.134  0.00  0.00    +0.000 A 
ATOM     13  C   UNL     1      -3.285   5.179   0.392  0.00  0.00    +0.000 A 
ATOM     14  C   UNL     1      -3.751   6.496   0.399  0.00  0.00    +0.000 A 
ATOM     15  C   UNL     1      -2.972   7.531  -0.114  0.00  0.00    +0.000 A 
ATOM     16  C   UNL     1      -1.713   7.248  -0.637  0.00  0.00    +0.000 A 
ATOM     17  C   UNL     1      -1.243   5.932  -0.645  0.00  0.00    +0.000 A 
ATOM     18 CL   UNL     1      -5.305   6.852   1.051  0.00  0.00    +0.000 Cl
ENDBRANCH   3  12
TORSDOF 2
