REMARK  Name = *****
REMARK  4 active torsions:
REMARK  status: ('A' for Active; 'I' for Inactive)
REMARK    1  A    between atoms: C_1  and  C_2
REMARK    2  A    between atoms: C_7  and  N_8
REMARK    3  A    between atoms: C_9  and  C_10
REMARK    4  A    between atoms: C_13  and  C_15
REMARK                            x       y       z     vdW  Elec       q    Type
REMARK                         _______ _______ _______ _____ _____    ______ ____
ROOT
ATOM      1  N   UNL     1       1.276  -2.325  -0.300  0.00  0.00    +0.000 NA
ATOM      2  C   UNL     1       1.957  -2.762   0.713  0.00  0.00    +0.000 C 
ENDROOT
BRANCH   1   9
ATOM      3  C   UNL     1       2.422   0.291  -0.844  0.00  0.00    +0.000 C 
ATOM      4  C   UNL     1       1.026   0.112  -0.318  0.00  0.00    +0.000 A 
ATOM      5  C   UNL     1       0.226   1.236  -0.058  0.00  0.00    +0.000 A 
ATOM      6  C   UNL     1      -1.075   1.087   0.423  0.00  0.00    +0.000 A 
ATOM      7  C   UNL     1      -1.592  -0.186   0.649  0.00  0.00    +0.000 A 
ATOM      8  C   UNL     1      -0.802  -1.309   0.402  0.00  0.00    +0.000 A 
ATOM      9  C   UNL     1       0.511  -1.171  -0.063  0.00  0.00    +0.000 A 
ENDBRANCH   1   9
BRANCH   2  10
ATOM     10  C   UNL     1       2.784  -3.936   0.590  0.00  0.00    +0.000 A 
ATOM     11  C   UNL     1       2.984  -4.745  -0.509  0.00  0.00    +0.000 A 
ATOM     12  C   UNL     1       3.882  -5.816  -0.234  0.00  0.00    +0.000 A 
ATOM     13  C   UNL     1       4.340  -5.791   1.067  0.00  0.00    +0.000 A 
ATOM     14  S   UNL     1       3.679  -4.475   1.941  0.00  0.00    +0.000 S 
ATOM     15  C   UNL     1       5.284  -6.729   1.737  0.00  0.00    +0.000 C 
ENDBRANCH   2  10
TORSDOF 2
