REMARK  Name = *****
REMARK  4 active torsions:
REMARK  status: ('A' for Active; 'I' for Inactive)
REMARK    1  A    between atoms: C_4  and  N_7
REMARK    2  A    between atoms: N_7  and  N_8
REMARK    3  A    between atoms: N_8  and  C_9
REMARK    4  A    between atoms: C_9  and  C_10
REMARK                            x       y       z     vdW  Elec       q    Type
REMARK                         _______ _______ _______ _____ _____    ______ ____
ROOT
ATOM      1  N   UNL     1      -3.719  -0.725  -0.254  0.00  0.00    +0.000 NA
ENDROOT
BRANCH   1   2
ATOM      2  N   UNL     1      -2.846   0.439  -0.145  0.00  0.00    +0.000 NA
BRANCH   2   6
ATOM      3  C   UNL     1       1.286  -0.256   0.034  0.00  0.00    +0.000 A 
ATOM      4  C   UNL     1       0.422  -1.335  -0.118  0.00  0.00    +0.000 A 
ATOM      5  C   UNL     1      -0.961  -1.126  -0.180  0.00  0.00    +0.000 A 
ATOM      6  C   UNL     1      -1.523   0.158  -0.092  0.00  0.00    +0.000 A 
ATOM      7  C   UNL     1      -0.622   1.226   0.059  0.00  0.00    +0.000 A 
ATOM      8  C   UNL     1       0.763   1.028   0.123  0.00  0.00    +0.000 A 
ENDBRANCH   2   6
ENDBRANCH   1   2
BRANCH   1   9
ATOM      9  C   UNL     1      -4.423  -1.585  -0.333  0.00  0.00    +0.000 C 
BRANCH   9  10
ATOM     10  C   UNL     1      -5.324  -2.690  -0.433  0.00  0.00    +0.000 A 
ATOM     11  C   UNL     1      -4.825  -3.992  -0.519  0.00  0.00    +0.000 A 
ATOM     12  C   UNL     1      -5.704  -5.074  -0.615  0.00  0.00    +0.000 A 
ATOM     13  C   UNL     1      -7.080  -4.845  -0.625  0.00  0.00    +0.000 A 
ATOM     14  C   UNL     1      -7.585  -3.548  -0.540  0.00  0.00    +0.000 A 
ATOM     15  C   UNL     1      -6.703  -2.468  -0.444  0.00  0.00    +0.000 A 
ATOM     16 CL   UNL     1      -8.165  -6.177  -0.743  0.00  0.00    +0.000 Cl
ENDBRANCH   9  10
ENDBRANCH   1   9
TORSDOF 4
