REMARK  Name = *****
REMARK  4 active torsions:
REMARK  status: ('A' for Active; 'I' for Inactive)
REMARK    1  A    between atoms: C_1  and  C_2
REMARK    2  A    between atoms: C_7  and  C_8
REMARK    3  A    between atoms: C_9  and  C_11
REMARK    4  A    between atoms: C_16  and  C_17
REMARK                            x       y       z     vdW  Elec       q    Type
REMARK                         _______ _______ _______ _____ _____    ______ ____
ROOT
ATOM      1  C   UNL     1       0.296  -2.408   0.445  0.00  0.00    +0.000 C 
ATOM      2  C   UNL     1       1.484  -3.340   0.233  0.00  0.00    +0.000 C 
ATOM      3  O   UNL     1       1.148  -2.815   1.527  0.00  0.00    +0.000 OA
ENDROOT
BRANCH   1  10
ATOM      4  C   UNL     1      -0.367  -1.579  -2.361  0.00  0.00    +0.000 C 
ATOM      5  C   UNL     1       0.058  -0.569  -1.330  0.00  0.00    +0.000 A 
ATOM      6  C   UNL     1       0.162   0.781  -1.710  0.00  0.00    +0.000 A 
ATOM      7  C   UNL     1       0.561   1.751  -0.794  0.00  0.00    +0.000 A 
ATOM      8  C   UNL     1       0.864   1.383   0.510  0.00  0.00    +0.000 A 
ATOM      9  C   UNL     1       0.771   0.043   0.893  0.00  0.00    +0.000 A 
ATOM     10  C   UNL     1       0.379  -0.965  -0.011  0.00  0.00    +0.000 A 
ENDBRANCH   1  10
BRANCH   2  11
ATOM     11  C   UNL     1       1.264  -4.819  -0.004  0.00  0.00    +0.000 A 
ATOM     12  C   UNL     1       0.573  -5.246  -1.156  0.00  0.00    +0.000 A 
ATOM     13  C   UNL     1       0.351  -6.598  -1.426  0.00  0.00    +0.000 A 
ATOM     14  C   UNL     1       0.818  -7.564  -0.546  0.00  0.00    +0.000 A 
ATOM     15  C   UNL     1       1.513  -7.177   0.597  0.00  0.00    +0.000 A 
ATOM     16  C   UNL     1       1.755  -5.818   0.869  0.00  0.00    +0.000 A 
ATOM     17  C   UNL     1       2.506  -5.456   2.123  0.00  0.00    +0.000 C 
ENDBRANCH   2  11
TORSDOF 2
