REMARK  Name = *****
REMARK  6 active torsions:
REMARK  status: ('A' for Active; 'I' for Inactive)
REMARK    1  A    between atoms: C_1  and  C_2
REMARK    2  A    between atoms: C_4  and  C_8
REMARK    3  A    between atoms: C_8  and  C_16
REMARK    4  A    between atoms: C_9  and  C_10
REMARK    5  A    between atoms: C_16  and  O_17
REMARK    6  A    between atoms: O_17  and  C_18
REMARK                            x       y       z     vdW  Elec       q    Type
REMARK                         _______ _______ _______ _____ _____    ______ ____
ROOT
ATOM      1  C   UNL     1      -1.856   2.666   0.078  0.00  0.00    +0.000 C 
ATOM      2  C   UNL     1      -3.170   2.737  -0.214  0.00  0.00    +0.000 C 
ENDROOT
BRANCH   1   6
ATOM      3  C   UNL     1      -0.329  -1.517   2.382  0.00  0.00    +0.000 C 
ATOM      4  C   UNL     1      -0.511  -0.713   1.129  0.00  0.00    +0.000 A 
ATOM      5  C   UNL     1      -1.091   0.562   1.181  0.00  0.00    +0.000 A 
ATOM      6  C   UNL     1      -1.233   1.330   0.017  0.00  0.00    +0.000 A 
ATOM      7  C   UNL     1      -0.791   0.816  -1.206  0.00  0.00    +0.000 A 
ATOM      8  C   UNL     1      -0.199  -0.446  -1.262  0.00  0.00    +0.000 A 
ATOM      9  C   UNL     1      -0.054  -1.204  -0.099  0.00  0.00    +0.000 A 
ENDBRANCH   1   6
BRANCH   2  10
ATOM     10  C   UNL     1      -4.007   3.943  -0.250  0.00  0.00    +0.000 A 
ATOM     11  C   UNL     1      -3.668   5.053  -1.032  0.00  0.00    +0.000 A 
ATOM     12  C   UNL     1      -4.507   6.169  -1.077  0.00  0.00    +0.000 A 
ATOM     13  C   UNL     1      -5.697   6.178  -0.351  0.00  0.00    +0.000 A 
ATOM     14  C   UNL     1      -6.051   5.071   0.418  0.00  0.00    +0.000 A 
ATOM     15  C   UNL     1      -5.212   3.955   0.464  0.00  0.00    +0.000 A 
ENDBRANCH   2  10
BRANCH   1  16
ATOM     16  C   UNL     1      -0.915   3.775   0.497  0.00  0.00    +0.000 C 
BRANCH  16  17
ATOM     17  O   UNL     1      -1.525   4.772   1.315  0.00  0.00    +0.000 OA
ATOM     18  C   UNL     1      -1.697   4.354   2.661  0.00  0.00    +0.000 C 
ENDBRANCH  16  17
ENDBRANCH   1  16
TORSDOF 4
