REMARK  Name = *****
REMARK  4 active torsions:
REMARK  status: ('A' for Active; 'I' for Inactive)
REMARK    1  A    between atoms: C_4  and  C_7
REMARK    2  A    between atoms: C_7  and  O_9
REMARK    3  A    between atoms: O_9  and  O_10
REMARK    4  A    between atoms: O_10  and  C_11
REMARK                            x       y       z     vdW  Elec       q    Type
REMARK                         _______ _______ _______ _____ _____    ______ ____
ROOT
ATOM      1  C   UNL     1      -2.985   0.483   0.258  0.00  0.00    +0.000 C 
ATOM      2  O   UNL     1      -3.455   1.526  -0.171  0.00  0.00    +0.000 OA
ENDROOT
BRANCH   1   6
ATOM      3  C   UNL     1       1.136  -0.540  -0.360  0.00  0.00    +0.000 A 
ATOM      4  C   UNL     1       0.319  -1.413   0.358  0.00  0.00    +0.000 A 
ATOM      5  C   UNL     1      -1.026  -1.101   0.572  0.00  0.00    +0.000 A 
ATOM      6  C   UNL     1      -1.561   0.093   0.065  0.00  0.00    +0.000 A 
ATOM      7  C   UNL     1      -0.731   0.965  -0.655  0.00  0.00    +0.000 A 
ATOM      8  C   UNL     1       0.612   0.648  -0.866  0.00  0.00    +0.000 A 
ENDBRANCH   1   6
BRANCH   1   9
ATOM      9  O   UNL     1      -3.639  -0.485   0.956  0.00  0.00    +0.000 OA
BRANCH   9  10
ATOM     10  O   UNL     1      -5.020  -0.043   1.107  0.00  0.00    +0.000 OA
BRANCH  10  11
ATOM     11  C   UNL     1      -5.856  -1.038   0.654  0.00  0.00    +0.000 A 
ATOM     12  C   UNL     1      -5.478  -2.046  -0.235  0.00  0.00    +0.000 A 
ATOM     13  C   UNL     1      -6.413  -3.003  -0.641  0.00  0.00    +0.000 A 
ATOM     14  C   UNL     1      -7.723  -2.950  -0.165  0.00  0.00    +0.000 A 
ATOM     15  C   UNL     1      -8.104  -1.936   0.712  0.00  0.00    +0.000 A 
ATOM     16  C   UNL     1      -7.172  -0.979   1.117  0.00  0.00    +0.000 A 
ENDBRANCH  10  11
ENDBRANCH   9  10
ENDBRANCH   1   9
TORSDOF 4
