REMARK  Name = *****
REMARK  4 active torsions:
REMARK  status: ('A' for Active; 'I' for Inactive)
REMARK    1  A    between atoms: C_1  and  C_2
REMARK    2  A    between atoms: C_3  and  N_9
REMARK    3  A    between atoms: N_9  and  S_10
REMARK    4  A    between atoms: S_10  and  N_13
REMARK                            x       y       z     vdW  Elec       q    Type
REMARK                         _______ _______ _______ _____ _____    ______ ____
ROOT
ATOM      1  N   UNL     1       2.276   2.199  -0.019  0.00  0.00    +0.000 N 
ATOM      2  H   UNL     1       1.788   2.135   0.833  0.00  0.00    +0.000 HD
ENDROOT
BRANCH   1   5
ATOM      3  C   UNL     1       1.738  -0.505  -1.075  0.00  0.00    +0.000 C 
ATOM      4  C   UNL     1       1.367   0.751  -1.813  0.00  0.00    +0.000 A 
ATOM      5  C   UNL     1       1.615   2.033  -1.285  0.00  0.00    +0.000 A 
ATOM      6  C   UNL     1       1.268   3.173  -2.014  0.00  0.00    +0.000 A 
ATOM      7  C   UNL     1       0.661   3.045  -3.260  0.00  0.00    +0.000 A 
ATOM      8  C   UNL     1       0.399   1.787  -3.792  0.00  0.00    +0.000 A 
ATOM      9  C   UNL     1       0.750   0.645  -3.070  0.00  0.00    +0.000 A 
ATOM     10 CL   UNL     1       0.232   4.455  -4.149  0.00  0.00    +0.000 Cl
ENDBRANCH   1   5
BRANCH   1  11
ATOM     11  S   UNL     1       3.937   2.509  -0.075  0.00  0.00    +0.000 S 
ATOM     12  O   UNL     1       4.420   2.416   1.283  0.00  0.00    +0.000 OA
ATOM     13  O   UNL     1       4.524   1.713  -1.127  0.00  0.00    +0.000 OA
BRANCH  11  14
ATOM     14  N   UNL     1       3.958   4.142  -0.531  0.00  0.00    +0.000 NA
ATOM     15  C   UNL     1       3.425   5.073   0.503  0.00  0.00    +0.000 C 
ATOM     16  C   UNL     1       3.239   6.460  -0.108  0.00  0.00    +0.000 C 
ATOM     17  C   UNL     1       4.546   6.983  -0.697  0.00  0.00    +0.000 C 
ATOM     18  C   UNL     1       5.135   5.975  -1.678  0.00  0.00    +0.000 C 
ATOM     19  C   UNL     1       5.281   4.596  -1.039  0.00  0.00    +0.000 C 
ENDBRANCH  11  14
ENDBRANCH   1  11
TORSDOF 3
