REMARK  Name = *****
REMARK  2 active torsions:
REMARK  status: ('A' for Active; 'I' for Inactive)
REMARK    1  A    between atoms: C_1  and  C_2
REMARK    2  A    between atoms: C_9  and  C_11
REMARK                            x       y       z     vdW  Elec       q    Type
REMARK                         _______ _______ _______ _____ _____    ______ ____
ROOT
ATOM      1  C   UNL     1       0.940   0.048  -0.037  0.00  0.00    +0.000 C 
ATOM      2  C   UNL     1       2.442   0.038  -0.019  0.00  0.00    +0.000 A 
ATOM      3  C   UNL     1       3.145  -1.183  -0.022  0.00  0.00    +0.000 A 
ATOM      4  C   UNL     1       4.546  -1.148  -0.009  0.00  0.00    +0.000 A 
ATOM      5  C   UNL     1       5.186   0.078   0.007  0.00  0.00    +0.000 A 
ATOM      6  C   UNL     1       4.543   1.308   0.012  0.00  0.00    +0.000 A 
ATOM      7  C   UNL     1       3.142   1.259  -0.002  0.00  0.00    +0.000 A 
ATOM      8  O   UNL     1       6.529  -0.152   0.015  0.00  0.00    +0.000 OA
ATOM      9  C   UNL     1       6.635  -1.519   0.002  0.00  0.00    +0.000 A 
ATOM     10  N   UNL     1       5.477  -2.157  -0.011  0.00  0.00    +0.000 NA
ENDROOT
BRANCH   9  11
ATOM     11  C   UNL     1       7.979  -2.088  -0.003  0.00  0.00    +0.000 A 
ATOM     12  C   UNL     1       8.126  -3.486  -0.029  0.00  0.00    +0.000 A 
ATOM     13  C   UNL     1       9.395  -4.060  -0.039  0.00  0.00    +0.000 A 
ATOM     14  C   UNL     1      10.530  -3.260  -0.024  0.00  0.00    +0.000 A 
ATOM     15  C   UNL     1      10.412  -1.878   0.003  0.00  0.00    +0.000 A 
ATOM     16  C   UNL     1       9.142  -1.302   0.013  0.00  0.00    +0.000 A 
ATOM     17  F   UNL     1       9.072   0.037   0.038  0.00  0.00    +0.000 F 
ATOM     18  F   UNL     1      11.749  -3.816  -0.035  0.00  0.00    +0.000 F 
ATOM     19  F   UNL     1       9.512  -5.394  -0.065  0.00  0.00    +0.000 F 
ENDBRANCH   9  11
TORSDOF 1
