REMARK  Name = *****
REMARK  2 active torsions:
REMARK  status: ('A' for Active; 'I' for Inactive)
REMARK    1  A    between atoms: C_5  and  C_7
REMARK    2  A    between atoms: C_8  and  C_9
REMARK                            x       y       z     vdW  Elec       q    Type
REMARK                         _______ _______ _______ _____ _____    ______ ____
ROOT
ATOM      1  C   UNL     1       1.606  -1.518   1.443  0.00  0.00    +0.000 C 
ATOM      2  C   UNL     1       2.119  -2.082   2.371  0.00  0.00    +0.000 C 
ENDROOT
BRANCH   1   7
ATOM      3  C   UNL     1       0.314   1.473  -0.534  0.00  0.00    +0.000 C 
ATOM      4  C   UNL     1      -1.160   1.204  -0.221  0.00  0.00    +0.000 C 
ATOM      5  C   UNL     1      -1.448  -0.247   0.032  0.00  0.00    +0.000 C 
ATOM      6  C   UNL     1      -0.488  -1.159   0.253  0.00  0.00    +0.000 C 
ATOM      7  C   UNL     1       0.981  -0.822   0.304  0.00  0.00    +0.000 C 
ATOM      8  C   UNL     1       1.232   0.693   0.405  0.00  0.00    +0.000 C 
ENDBRANCH   1   7
BRANCH   2   9
ATOM      9  C   UNL     1       2.726  -2.751   3.478  0.00  0.00    +0.000 A 
ATOM     10  C   UNL     1       3.452  -2.092   4.445  0.00  0.00    +0.000 A 
ATOM     11  S   UNL     1       4.052  -3.164   5.639  0.00  0.00    +0.000 S 
ATOM     12  C   UNL     1       3.340  -4.513   4.863  0.00  0.00    +0.000 A 
ATOM     13  C   UNL     1       2.661  -4.153   3.719  0.00  0.00    +0.000 A 
ENDBRANCH   2   9
TORSDOF 2
