REMARK  Name = *****
REMARK  4 active torsions:
REMARK  status: ('A' for Active; 'I' for Inactive)
REMARK    1  A    between atoms: C_4  and  C_7
REMARK    2  A    between atoms: C_7  and  O_8
REMARK    3  A    between atoms: O_8  and  C_9
REMARK    4  A    between atoms: C_12  and  N_15
REMARK                            x       y       z     vdW  Elec       q    Type
REMARK                         _______ _______ _______ _____ _____    ______ ____
ROOT
ATOM      1  O   UNL     1      -3.447  -0.737  -0.669  0.00  0.00    +0.000 OA
ENDROOT
BRANCH   1   2
ATOM      2  C   UNL     1      -4.763  -0.674  -1.030  0.00  0.00    +0.000 A 
ATOM      3  C   UNL     1      -5.398  -1.914  -1.131  0.00  0.00    +0.000 A 
ATOM      4  C   UNL     1      -6.747  -1.999  -1.493  0.00  0.00    +0.000 A 
ATOM      5  C   UNL     1      -7.485  -0.840  -1.766  0.00  0.00    +0.000 A 
ATOM      6  C   UNL     1      -6.843   0.400  -1.652  0.00  0.00    +0.000 A 
ATOM      7  C   UNL     1      -5.491   0.486  -1.290  0.00  0.00    +0.000 A 
BRANCH   5   8
ATOM      8  N   UNL     1      -8.822  -0.856  -2.110  0.00  0.00    +0.000 NA
ATOM      9  O   UNL     1      -9.183  -1.897  -2.672  0.00  0.00    +0.000 OA
ENDBRANCH   5   8
ENDBRANCH   1   2
BRANCH   1  10
ATOM     10  C   UNL     1      -2.734   0.496  -0.574  0.00  0.00    +0.000 C 
BRANCH  10  14
ATOM     11  C   UNL     1       1.409  -0.263   0.381  0.00  0.00    +0.000 A 
ATOM     12  C   UNL     1       0.787  -0.976  -0.643  0.00  0.00    +0.000 A 
ATOM     13  C   UNL     1      -0.554  -0.737  -0.946  0.00  0.00    +0.000 A 
ATOM     14  C   UNL     1      -1.292   0.213  -0.223  0.00  0.00    +0.000 A 
ATOM     15  C   UNL     1      -0.652   0.930   0.798  0.00  0.00    +0.000 A 
ATOM     16  C   UNL     1       0.690   0.690   1.100  0.00  0.00    +0.000 A 
ENDBRANCH  10  14
ENDBRANCH   1  10
TORSDOF 4
