REMARK  Name = *****
REMARK  3 active torsions:
REMARK  status: ('A' for Active; 'I' for Inactive)
REMARK    1  A    between atoms: C_4  and  C_7
REMARK    2  A    between atoms: C_7  and  O_9
REMARK    3  A    between atoms: O_9  and  C_10
REMARK                            x       y       z     vdW  Elec       q    Type
REMARK                         _______ _______ _______ _____ _____    ______ ____
ROOT
ATOM      1  O   UNL     1       2.359  -2.533  -0.750  0.00  0.00    +0.000 OA
ENDROOT
BRANCH   1   2
ATOM      2  C   UNL     1       3.294  -3.152  -1.583  0.00  0.00    +0.000 A 
ATOM      3  C   UNL     1       4.555  -3.438  -1.066  0.00  0.00    +0.000 A 
ATOM      4  C   UNL     1       5.474  -4.096  -1.876  0.00  0.00    +0.000 A 
ATOM      5  C   UNL     1       5.148  -4.480  -3.172  0.00  0.00    +0.000 A 
ATOM      6  C   UNL     1       3.876  -4.199  -3.657  0.00  0.00    +0.000 A 
ATOM      7  C   UNL     1       2.934  -3.543  -2.872  0.00  0.00    +0.000 A 
ATOM      8  F   UNL     1       3.548  -4.576  -4.899  0.00  0.00    +0.000 F 
ATOM      9  F   UNL     1       6.693  -4.374  -1.395  0.00  0.00    +0.000 F 
ENDBRANCH   1   2
BRANCH   1  10
ATOM     10  C   UNL     1       2.136  -1.192  -1.058  0.00  0.00    +0.000 C 
ATOM     11  O   UNL     1       2.689  -0.555  -1.944  0.00  0.00    +0.000 OA
BRANCH  10  15
ATOM     12  C   UNL     1      -1.397   0.878   0.424  0.00  0.00    +0.000 C 
ATOM     13  C   UNL     1      -1.378  -0.647   0.466  0.00  0.00    +0.000 C 
ATOM     14  C   UNL     1      -0.287  -1.225  -0.432  0.00  0.00    +0.000 C 
ATOM     15  C   UNL     1       1.090  -0.639  -0.102  0.00  0.00    +0.000 C 
ATOM     16  C   UNL     1       1.060   0.894  -0.151  0.00  0.00    +0.000 C 
ATOM     17  C   UNL     1      -0.028   1.465   0.754  0.00  0.00    +0.000 C 
ENDBRANCH  10  15
ENDBRANCH   1  10
TORSDOF 3
