REMARK  Name = *****
REMARK  1 active torsions:
REMARK  status: ('A' for Active; 'I' for Inactive)
REMARK    1  A    between atoms: C_9  and  C_11
REMARK                            x       y       z     vdW  Elec       q    Type
REMARK                         _______ _______ _______ _____ _____    ______ ____
ROOT
ATOM      1  C   UNL     1       2.577  -0.844  -0.319  0.00  0.00    +0.000 C 
ATOM      2  C   UNL     1       2.688   0.505   0.369  0.00  0.00    +0.000 C 
ATOM      3  C   UNL     1       1.549   1.422  -0.070  0.00  0.00    +0.000 C 
ATOM      4  C   UNL     1       0.184   0.756  -0.083  0.00  0.00    +0.000 C 
ATOM      5  C   UNL     1       0.047  -0.585  -0.025  0.00  0.00    +0.000 C 
ATOM      6  C   UNL     1       1.248  -1.511   0.022  0.00  0.00    +0.000 C 
ATOM      7  C   UNL     1      -1.263  -1.328   0.006  0.00  0.00    +0.000 C 
ATOM      8  C   UNL     1      -2.491  -0.487   0.003  0.00  0.00    +0.000 C 
ATOM      9  C   UNL     1      -2.525   0.848  -0.067  0.00  0.00    +0.000 C 
ATOM     10  S   UNL     1      -1.150   1.876  -0.175  0.00  0.00    +0.000 S 
ENDROOT
BRANCH   9  11
ATOM     11  C   UNL     1      -3.825   1.536  -0.065  0.00  0.00    +0.000 A 
ATOM     12  C   UNL     1      -4.458   1.852   1.145  0.00  0.00    +0.000 A 
ATOM     13  C   UNL     1      -5.702   2.486   1.146  0.00  0.00    +0.000 A 
ATOM     14  C   UNL     1      -6.324   2.804  -0.061  0.00  0.00    +0.000 A 
ATOM     15  C   UNL     1      -5.705   2.489  -1.270  0.00  0.00    +0.000 A 
ATOM     16  C   UNL     1      -4.461   1.855  -1.273  0.00  0.00    +0.000 A 
ENDBRANCH   9  11
TORSDOF 1
