REMARK  Name = *****
REMARK  3 active torsions:
REMARK  status: ('A' for Active; 'I' for Inactive)
REMARK    1  A    between atoms: C_6  and  C_7
REMARK    2  A    between atoms: C_7  and  C_8
REMARK    3  A    between atoms: C_8  and  C_9
REMARK                            x       y       z     vdW  Elec       q    Type
REMARK                         _______ _______ _______ _____ _____    ______ ____
ROOT
ATOM      1  C   UNL     1      -1.599  -3.157   3.067  0.00  0.00    +0.000 C 
ATOM      2  F   UNL     1      -2.623  -3.869   3.626  0.00  0.00    +0.000 F 
ATOM      3  F   UNL     1      -0.520  -3.999   3.133  0.00  0.00    +0.000 F 
ENDROOT
BRANCH   1   9
ATOM      4  C   UNL     1       0.757   1.282  -0.323  0.00  0.00    +0.000 C 
ATOM      5  C   UNL     1       1.437  -0.014   0.121  0.00  0.00    +0.000 C 
ATOM      6  C   UNL     1       0.665  -1.250  -0.342  0.00  0.00    +0.000 C 
ATOM      7  C   UNL     1      -0.782  -1.168   0.078  0.00  0.00    +0.000 C 
ATOM      8  C   UNL     1      -1.351  -2.068   0.831  0.00  0.00    +0.000 C 
ATOM      9  C   UNL     1      -1.917  -2.938   1.614  0.00  0.00    +0.000 C 
ATOM     10  C   UNL     1      -1.482   0.100  -0.347  0.00  0.00    +0.000 C 
ATOM     11  C   UNL     1      -0.706   1.331   0.121  0.00  0.00    +0.000 C 
ENDBRANCH   1   9
BRANCH   1  12
ATOM     12  C   UNL     1      -1.308  -1.931   3.932  0.00  0.00    +0.000 C 
ATOM     13  F   UNL     1      -0.943  -2.337   5.190  0.00  0.00    +0.000 F 
ATOM     14  F   UNL     1      -0.234  -1.235   3.455  0.00  0.00    +0.000 F 
BRANCH  12  15
ATOM     15  C   UNL     1      -2.528  -1.037   4.026  0.00  0.00    +0.000 C 
ATOM     16  F   UNL     1      -3.601  -1.681   4.545  0.00  0.00    +0.000 F 
ATOM     17  F   UNL     1      -2.293   0.033   4.829  0.00  0.00    +0.000 F 
ATOM     18  F   UNL     1      -2.915  -0.536   2.830  0.00  0.00    +0.000 F 
ENDBRANCH  12  15
ENDBRANCH   1  12
TORSDOF 3
