REMARK  Name = *****
REMARK  4 active torsions:
REMARK  status: ('A' for Active; 'I' for Inactive)
REMARK    1  A    between atoms: C_2  and  C_3
REMARK    2  A    between atoms: C_4  and  C_5
REMARK    3  A    between atoms: C_5  and  C_6
REMARK    4  A    between atoms: C_6  and  C_7
REMARK                            x       y       z     vdW  Elec       q    Type
REMARK                         _______ _______ _______ _____ _____    ______ ____
ROOT
ATOM      1  C   UNL     1       2.132   5.025  -0.726  0.00  0.00    +0.000 C 
ENDROOT
BRANCH   1   2
ATOM      2  C   UNL     1       2.894   6.318  -0.876  0.00  0.00    +0.000 A 
ATOM      3  C   UNL     1       3.307   6.758  -2.141  0.00  0.00    +0.000 A 
ATOM      4  C   UNL     1       4.028   7.945  -2.276  0.00  0.00    +0.000 A 
ATOM      5  C   UNL     1       4.347   8.700  -1.149  0.00  0.00    +0.000 A 
ATOM      6  C   UNL     1       3.946   8.269   0.114  0.00  0.00    +0.000 A 
ATOM      7  C   UNL     1       3.225   7.082   0.252  0.00  0.00    +0.000 A 
ENDBRANCH   1   2
BRANCH   1   8
ATOM      8  C   UNL     1       3.075   3.824  -0.597  0.00  0.00    +0.000 C 
BRANCH   8  10
ATOM      9  C   UNL     1       2.379   1.745   0.627  0.00  0.00    +0.000 C 
ATOM     10  C   UNL     1       2.309   2.537  -0.456  0.00  0.00    +0.000 C 
BRANCH   9  12
ATOM     11  C   UNL     1       1.445  -0.399  -0.157  0.00  0.00    +0.000 C 
ATOM     12  C   UNL     1       1.653   0.507   0.805  0.00  0.00    +0.000 C 
ATOM     13 CL   UNL     1       1.109   0.164   2.415  0.00  0.00    +0.000 Cl
ENDBRANCH   9  12
ENDBRANCH   8  10
ENDBRANCH   1   8
TORSDOF 4
