REMARK  Name = *****
REMARK  4 active torsions:
REMARK  status: ('A' for Active; 'I' for Inactive)
REMARK    1  A    between atoms: C_1  and  C_2
REMARK    2  A    between atoms: C_5  and  C_8
REMARK    3  A    between atoms: N_10  and  C_11
REMARK    4  A    between atoms: C_12  and  C_18
REMARK                            x       y       z     vdW  Elec       q    Type
REMARK                         _______ _______ _______ _____ _____    ______ ____
ROOT
ATOM      1  C   UNL     1      -3.311  -0.124   0.268  0.00  0.00    +0.000 C 
ATOM      2  O   UNL     1      -3.710  -1.147   0.809  0.00  0.00    +0.000 OA
ATOM      3  N   UNL     1      -4.079   0.858  -0.334  0.00  0.00    +0.000 N 
ATOM      4  H   UNL     1      -3.584   1.576  -0.790  0.00  0.00    +0.000 HD
ENDROOT
BRANCH   3   5
ATOM      5  C   UNL     1      -5.490   0.951  -0.374  0.00  0.00    +0.000 A 
ATOM      6  C   UNL     1      -6.084   1.983  -1.137  0.00  0.00    +0.000 A 
ATOM      7  C   UNL     1      -7.487   2.094  -1.177  0.00  0.00    +0.000 A 
ATOM      8  C   UNL     1      -8.290   1.201  -0.472  0.00  0.00    +0.000 A 
ATOM      9  C   UNL     1      -7.711   0.190   0.282  0.00  0.00    +0.000 A 
ATOM     10  C   UNL     1      -6.319   0.068   0.331  0.00  0.00    +0.000 A 
ATOM     11 CL   UNL     1     -10.002   1.355  -0.534  0.00  0.00    +0.000 Cl
ATOM     12  C   UNL     1      -5.270   2.977  -1.921  0.00  0.00    +0.000 C 
ENDBRANCH   3   5
BRANCH   1  17
ATOM     13  C   UNL     1       2.429   0.637  -0.033  0.00  0.00    +0.000 C 
ATOM     14  C   UNL     1       0.940   0.456   0.017  0.00  0.00    +0.000 A 
ATOM     15  C   UNL     1       0.382  -0.825  -0.076  0.00  0.00    +0.000 A 
ATOM     16  C   UNL     1      -1.001  -1.002   0.008  0.00  0.00    +0.000 A 
ATOM     17  C   UNL     1      -1.840   0.103   0.184  0.00  0.00    +0.000 A 
ATOM     18  C   UNL     1      -1.286   1.383   0.312  0.00  0.00    +0.000 A 
ATOM     19  C   UNL     1       0.098   1.555   0.229  0.00  0.00    +0.000 A 
ENDBRANCH   1  17
TORSDOF 2
