REMARK  Name = *****
REMARK  6 active torsions:
REMARK  status: ('A' for Active; 'I' for Inactive)
REMARK    1  A    between atoms: C_1  and  C_2
REMARK    2  A    between atoms: C_7  and  C_8
REMARK    3  A    between atoms: C_8  and  C_9
REMARK    4  A    between atoms: C_9  and  O_11
REMARK    5  A    between atoms: O_11  and  C_12
REMARK    6  A    between atoms: C_17  and  C_18
REMARK                            x       y       z     vdW  Elec       q    Type
REMARK                         _______ _______ _______ _____ _____    ______ ____
ROOT
ATOM      1  C   UNL     1       2.051  -3.266  -0.098  0.00  0.00    +0.000 C 
ATOM      2  O   UNL     1       3.077  -3.302   0.572  0.00  0.00    +0.000 OA
ENDROOT
BRANCH   1   3
ATOM      3  C   UNL     1       0.753  -2.658   0.379  0.00  0.00    +0.000 C 
BRANCH   3  10
ATOM      4  C   UNL     1      -1.169  -2.028  -1.881  0.00  0.00    +0.000 C 
ATOM      5  C   UNL     1      -0.337  -0.966  -1.215  0.00  0.00    +0.000 A 
ATOM      6  C   UNL     1      -0.451   0.360  -1.664  0.00  0.00    +0.000 A 
ATOM      7  C   UNL     1       0.298   1.383  -1.082  0.00  0.00    +0.000 A 
ATOM      8  C   UNL     1       1.172   1.095  -0.041  0.00  0.00    +0.000 A 
ATOM      9  C   UNL     1       1.296  -0.214   0.419  0.00  0.00    +0.000 A 
ATOM     10  C   UNL     1       0.544  -1.258  -0.153  0.00  0.00    +0.000 A 
ENDBRANCH   3  10
ENDBRANCH   1   3
BRANCH   1  11
ATOM     11  O   UNL     1       1.881  -3.744  -1.392  0.00  0.00    +0.000 OA
BRANCH  11  12
ATOM     12  C   UNL     1       3.063  -4.207  -1.977  0.00  0.00    +0.000 A 
ATOM     13  C   UNL     1       3.479  -5.513  -1.717  0.00  0.00    +0.000 A 
ATOM     14  C   UNL     1       4.631  -5.997  -2.333  0.00  0.00    +0.000 A 
ATOM     15  C   UNL     1       5.348  -5.180  -3.208  0.00  0.00    +0.000 A 
ATOM     16  C   UNL     1       4.912  -3.879  -3.477  0.00  0.00    +0.000 A 
ATOM     17  C   UNL     1       3.751  -3.378  -2.873  0.00  0.00    +0.000 A 
ATOM     18  C   UNL     1       3.286  -1.980  -3.156  0.00  0.00    +0.000 C 
ENDBRANCH  11  12
ENDBRANCH   1  11
TORSDOF 4
