REMARK  Name = *****
REMARK  5 active torsions:
REMARK  status: ('A' for Active; 'I' for Inactive)
REMARK    1  A    between atoms: C_1  and  C_2
REMARK    2  A    between atoms: C_3  and  C_5
REMARK    3  A    between atoms: C_8  and  O_11
REMARK    4  A    between atoms: O_11  and  C_12
REMARK    5  A    between atoms: C_12  and  C_13
REMARK                            x       y       z     vdW  Elec       q    Type
REMARK                         _______ _______ _______ _____ _____    ______ ____
ROOT
ATOM      1  C   UNL     1       4.448   1.404  -0.654  0.00  0.00    +0.000 A 
ATOM      2  C   UNL     1       5.594   0.751  -0.172  0.00  0.00    +0.000 A 
ATOM      3  C   UNL     1       6.846   1.375  -0.171  0.00  0.00    +0.000 A 
ATOM      4  C   UNL     1       6.996   2.668  -0.668  0.00  0.00    +0.000 A 
ATOM      5  C   UNL     1       5.877   3.337  -1.156  0.00  0.00    +0.000 A 
ATOM      6  C   UNL     1       4.624   2.707  -1.153  0.00  0.00    +0.000 A 
ENDROOT
BRANCH   1   9
ATOM      7  C   UNL     1       0.555   1.249  -0.852  0.00  0.00    +0.000 C 
ATOM      8  C   UNL     1       1.869   1.428  -0.173  0.00  0.00    +0.000 C 
ATOM      9  C   UNL     1       3.098   0.723  -0.696  0.00  0.00    +0.000 C 
ATOM     10  S   UNL     1       2.452   0.156   0.822  0.00  0.00    +0.000 S 
ENDBRANCH   1   9
BRANCH   4  11
ATOM     11  O   UNL     1       8.271   3.157  -0.617  0.00  0.00    +0.000 OA
BRANCH  11  12
ATOM     12  C   UNL     1       8.513   4.408  -1.264  0.00  0.00    +0.000 C 
BRANCH  12  13
ATOM     13  C   UNL     1       9.993   4.726  -1.255  0.00  0.00    +0.000 A 
ATOM     14  C   UNL     1      10.959   3.715  -1.360  0.00  0.00    +0.000 A 
ATOM     15  C   UNL     1      12.319   4.030  -1.397  0.00  0.00    +0.000 A 
ATOM     16  C   UNL     1      12.728   5.361  -1.344  0.00  0.00    +0.000 A 
ATOM     17  C   UNL     1      11.779   6.377  -1.257  0.00  0.00    +0.000 A 
ATOM     18  C   UNL     1      10.419   6.063  -1.217  0.00  0.00    +0.000 A 
ENDBRANCH  12  13
ENDBRANCH  11  12
ENDBRANCH   4  11
TORSDOF 4
