REMARK  Name = *****
REMARK  6 active torsions:
REMARK  status: ('A' for Active; 'I' for Inactive)
REMARK    1  A    between atoms: C_1  and  C_2
REMARK    2  A    between atoms: C_3  and  C_18
REMARK    3  A    between atoms: C_4  and  C_8
REMARK    4  A    between atoms: C_8  and  C_10
REMARK    5  A    between atoms: C_10  and  C_11
REMARK    6  A    between atoms: C_11  and  C_12
REMARK                            x       y       z     vdW  Elec       q    Type
REMARK                         _______ _______ _______ _____ _____    ______ ____
ROOT
ATOM      1  C   UNL     1      -0.490  -2.957  -0.169  0.00  0.00    +0.000 C 
ATOM      2  O   UNL     1       0.578  -3.551  -0.291  0.00  0.00    +0.000 OA
ENDROOT
BRANCH   1   6
ATOM      3  C   UNL     1       1.395   1.526   1.336  0.00  0.00    +0.000 C 
ATOM      4  C   UNL     1       0.403   0.678   0.584  0.00  0.00    +0.000 A 
ATOM      5  C   UNL     1       0.433  -0.737   0.637  0.00  0.00    +0.000 A 
ATOM      6  C   UNL     1      -0.510  -1.465  -0.125  0.00  0.00    +0.000 A 
ATOM      7  C   UNL     1      -1.482  -0.797  -0.885  0.00  0.00    +0.000 A 
ATOM      8  C   UNL     1      -1.524   0.593  -0.902  0.00  0.00    +0.000 A 
ATOM      9  C   UNL     1      -0.588   1.323  -0.175  0.00  0.00    +0.000 A 
ATOM     10  C   UNL     1       1.475  -1.454   1.460  0.00  0.00    +0.000 C 
ENDBRANCH   1   6
BRANCH   1  11
ATOM     11  C   UNL     1      -1.821  -3.679  -0.095  0.00  0.00    +0.000 C 
BRANCH  11  12
ATOM     12  C   UNL     1      -1.656  -5.073   0.506  0.00  0.00    +0.000 C 
BRANCH  12  13
ATOM     13  C   UNL     1      -2.983  -5.780   0.624  0.00  0.00    +0.000 A 
ATOM     14  C   UNL     1      -3.466  -6.564  -0.433  0.00  0.00    +0.000 A 
ATOM     15  C   UNL     1      -4.704  -7.201  -0.333  0.00  0.00    +0.000 A 
ATOM     16  C   UNL     1      -5.472  -7.056   0.821  0.00  0.00    +0.000 A 
ATOM     17  C   UNL     1      -5.003  -6.274   1.875  0.00  0.00    +0.000 A 
ATOM     18  C   UNL     1      -3.765  -5.637   1.778  0.00  0.00    +0.000 A 
ENDBRANCH  12  13
ENDBRANCH  11  12
ENDBRANCH   1  11
TORSDOF 4
