REMARK  Name = *****
REMARK  4 active torsions:
REMARK  status: ('A' for Active; 'I' for Inactive)
REMARK    1  A    between atoms: C_4  and  C_7
REMARK    2  A    between atoms: C_7  and  O_8
REMARK    3  A    between atoms: O_8  and  C_9
REMARK    4  A    between atoms: C_9  and  C_10
REMARK                            x       y       z     vdW  Elec       q    Type
REMARK                         _______ _______ _______ _____ _____    ______ ____
ROOT
ATOM      1  O   UNL     1       3.242  -1.870   0.161  0.00  0.00    +0.000 OA
ENDROOT
BRANCH   1   2
ATOM      2  C   UNL     1       2.822  -0.587  -0.299  0.00  0.00    +0.000 C 
BRANCH   2   6
ATOM      3  C   UNL     1      -1.450   0.362  -0.286  0.00  0.00    +0.000 C 
ATOM      4  C   UNL     1      -1.029  -1.057   0.083  0.00  0.00    +0.000 C 
ATOM      5  C   UNL     1       0.403  -1.354  -0.356  0.00  0.00    +0.000 C 
ATOM      6  C   UNL     1       1.395  -0.316   0.196  0.00  0.00    +0.000 C 
ATOM      7  C   UNL     1       0.960   1.107  -0.178  0.00  0.00    +0.000 C 
ATOM      8  C   UNL     1      -0.473   1.396   0.263  0.00  0.00    +0.000 C 
ENDBRANCH   2   6
ENDBRANCH   1   2
BRANCH   1   9
ATOM      9  C   UNL     1       4.568  -2.178  -0.267  0.00  0.00    +0.000 C 
BRANCH   9  10
ATOM     10  C   UNL     1       4.951  -3.562   0.195  0.00  0.00    +0.000 A 
ATOM     11  C   UNL     1       4.041  -4.626   0.116  0.00  0.00    +0.000 A 
ATOM     12  C   UNL     1       4.413  -5.913   0.508  0.00  0.00    +0.000 A 
ATOM     13  C   UNL     1       5.704  -6.153   0.974  0.00  0.00    +0.000 A 
ATOM     14  C   UNL     1       6.623  -5.108   1.046  0.00  0.00    +0.000 A 
ATOM     15  C   UNL     1       6.251  -3.820   0.654  0.00  0.00    +0.000 A 
ENDBRANCH   9  10
ENDBRANCH   1   9
TORSDOF 4
