REMARK  Name = *****
REMARK  4 active torsions:
REMARK  status: ('A' for Active; 'I' for Inactive)
REMARK    1  A    between atoms: C_3  and  C_8
REMARK    2  A    between atoms: C_8  and  C_9
REMARK    3  A    between atoms: C_9  and  C_11
REMARK    4  A    between atoms: C_11  and  C_12
REMARK                            x       y       z     vdW  Elec       q    Type
REMARK                         _______ _______ _______ _____ _____    ______ ____
ROOT
ATOM      1  C   UNL     1      -0.945   3.762  -0.599  0.00  0.00    +0.000 C 
ATOM      2  O   UNL     1      -0.087   3.545  -1.456  0.00  0.00    +0.000 OA
ENDROOT
BRANCH   1   3
ATOM      3  C   UNL     1      -1.710   2.659   0.119  0.00  0.00    +0.000 C 
BRANCH   3   6
ATOM      4  C   UNL     1      -0.254  -0.810  -0.527  0.00  0.00    +0.000 A 
ATOM      5  C   UNL     1      -0.459   0.463   0.013  0.00  0.00    +0.000 A 
ATOM      6  C   UNL     1      -1.499   1.280  -0.457  0.00  0.00    +0.000 A 
ATOM      7  C   UNL     1      -2.320   0.806  -1.489  0.00  0.00    +0.000 A 
ATOM      8  C   UNL     1      -2.105  -0.463  -2.019  0.00  0.00    +0.000 A 
ATOM      9  C   UNL     1      -1.082  -1.275  -1.546  0.00  0.00    +0.000 A 
ATOM     10  F   UNL     1      -2.899  -0.908  -3.002  0.00  0.00    +0.000 F 
ENDBRANCH   3   6
ENDBRANCH   1   3
BRANCH   1  11
ATOM     11  C   UNL     1      -1.275   5.184  -0.186  0.00  0.00    +0.000 C 
BRANCH  11  12
ATOM     12  C   UNL     1      -0.776   5.517   1.196  0.00  0.00    +0.000 A 
ATOM     13  C   UNL     1      -1.673   5.779   2.240  0.00  0.00    +0.000 A 
ATOM     14  C   UNL     1      -1.191   6.075   3.511  0.00  0.00    +0.000 A 
ATOM     15  C   UNL     1       0.174   6.118   3.771  0.00  0.00    +0.000 A 
ATOM     16  C   UNL     1       1.075   5.862   2.739  0.00  0.00    +0.000 A 
ATOM     17  C   UNL     1       0.603   5.564   1.458  0.00  0.00    +0.000 A 
ATOM     18  F   UNL     1      -2.058   6.321   4.502  0.00  0.00    +0.000 F 
ENDBRANCH  11  12
ENDBRANCH   1  11
TORSDOF 4
