REMARK  Name = *****
REMARK  4 active torsions:
REMARK  status: ('A' for Active; 'I' for Inactive)
REMARK    1  A    between atoms: C_1  and  O_2
REMARK    2  A    between atoms: O_2  and  C_3
REMARK    3  A    between atoms: C_6  and  C_9
REMARK    4  A    between atoms: C_10  and  C_11
REMARK                            x       y       z     vdW  Elec       q    Type
REMARK                         _______ _______ _______ _____ _____    ______ ____
ROOT
ATOM      1  C   UNL     1       3.158  -0.946  -0.468  0.00  0.00    +0.000 A 
ATOM      2  C   UNL     1       2.678  -1.726  -1.519  0.00  0.00    +0.000 A 
ATOM      3  C   UNL     1       3.370  -2.878  -1.915  0.00  0.00    +0.000 A 
ATOM      4  C   UNL     1       4.555  -3.259  -1.273  0.00  0.00    +0.000 A 
ATOM      5  C   UNL     1       5.021  -2.482  -0.208  0.00  0.00    +0.000 A 
ATOM      6  C   UNL     1       4.330  -1.333   0.185  0.00  0.00    +0.000 A 
ENDROOT
BRANCH   1   8
ATOM      7  C   UNL     1       1.393   0.638  -0.624  0.00  0.00    +0.000 C 
ATOM      8  O   UNL     1       2.583   0.196   0.017  0.00  0.00    +0.000 OA
ENDBRANCH   1   8
BRANCH   4   9
ATOM      9  C   UNL     1       5.288  -4.478  -1.642  0.00  0.00    +0.000 C 
ATOM     10  C   UNL     1       5.507  -4.860  -2.912  0.00  0.00    +0.000 C 
BRANCH  10  11
ATOM     11  C   UNL     1       6.218  -6.030  -3.343  0.00  0.00    +0.000 A 
ATOM     12  C   UNL     1       6.770  -6.984  -2.514  0.00  0.00    +0.000 A 
ATOM     13  S   UNL     1       7.542  -8.243  -3.384  0.00  0.00    +0.000 S 
ATOM     14  C   UNL     1       7.143  -7.525  -4.882  0.00  0.00    +0.000 A 
ATOM     15  C   UNL     1       6.438  -6.352  -4.720  0.00  0.00    +0.000 A 
ENDBRANCH  10  11
ENDBRANCH   4   9
TORSDOF 3
