REMARK  Name = *****
REMARK  6 active torsions:
REMARK  status: ('A' for Active; 'I' for Inactive)
REMARK    1  A    between atoms: C_1  and  C_2
REMARK    2  A    between atoms: C_4  and  C_9
REMARK    3  A    between atoms: C_5  and  C_8
REMARK    4  A    between atoms: C_9  and  C_10
REMARK    5  A    between atoms: C_10  and  C_11
REMARK    6  A    between atoms: C_11  and  C_13
REMARK                            x       y       z     vdW  Elec       q    Type
REMARK                         _______ _______ _______ _____ _____    ______ ____
ROOT
ATOM      1  C   UNL     1      -0.515   3.698   0.022  0.00  0.00    +0.000 C 
ENDROOT
BRANCH   1   2
ATOM      2  C   UNL     1      -1.266   5.016   0.047  0.00  0.00    +0.000 C 
ATOM      3  O   UNL     1      -2.494   5.071   0.070  0.00  0.00    +0.000 OA
BRANCH   2   4
ATOM      4  C   UNL     1      -0.482   6.290   0.043  0.00  0.00    +0.000 A 
ATOM      5  C   UNL     1       0.916   6.308  -0.016  0.00  0.00    +0.000 A 
ATOM      6  C   UNL     1       1.592   7.529  -0.015  0.00  0.00    +0.000 A 
ATOM      7  C   UNL     1       0.893   8.734   0.043  0.00  0.00    +0.000 A 
ATOM      8  C   UNL     1      -0.499   8.721   0.101  0.00  0.00    +0.000 A 
ATOM      9  C   UNL     1      -1.184   7.504   0.100  0.00  0.00    +0.000 A 
ATOM     10 CL   UNL     1       3.312   7.548  -0.087  0.00  0.00    +0.000 Cl
ENDBRANCH   2   4
ENDBRANCH   1   2
BRANCH   1  11
ATOM     11  C   UNL     1      -1.466   2.502   0.080  0.00  0.00    +0.000 C 
BRANCH  11  15
ATOM     12  C   UNL     1       0.706  -1.180  -2.558  0.00  0.00    +0.000 C 
ATOM     13  C   UNL     1       0.377  -0.568  -1.229  0.00  0.00    +0.000 A 
ATOM     14  C   UNL     1      -0.352   0.624  -1.156  0.00  0.00    +0.000 A 
ATOM     15  C   UNL     1      -0.704   1.194   0.082  0.00  0.00    +0.000 A 
ATOM     16  C   UNL     1      -0.313   0.549   1.272  0.00  0.00    +0.000 A 
ATOM     17  C   UNL     1       0.399  -0.658   1.191  0.00  0.00    +0.000 A 
ATOM     18  C   UNL     1       0.738  -1.212  -0.044  0.00  0.00    +0.000 A 
ATOM     19  C   UNL     1      -0.668   1.092   2.629  0.00  0.00    +0.000 C 
ENDBRANCH  11  15
ENDBRANCH   1  11
TORSDOF 4
