REMARK  Name = *****
REMARK  4 active torsions:
REMARK  status: ('A' for Active; 'I' for Inactive)
REMARK    1  A    between atoms: C_4  and  S_7
REMARK    2  A    between atoms: C_4  and  S_8
REMARK    3  A    between atoms: S_8  and  C_9
REMARK    4  A    between atoms: C_9  and  C_10
REMARK                            x       y       z     vdW  Elec       q    Type
REMARK                         _______ _______ _______ _____ _____    ______ ____
ROOT
ATOM      1  C   UNL     1       0.771   1.172  -0.363  0.00  0.00    +0.000 C 
ATOM      2  C   UNL     1       1.425  -0.095   0.179  0.00  0.00    +0.000 C 
ATOM      3  C   UNL     1       0.593  -1.338  -0.150  0.00  0.00    +0.000 C 
ATOM      4  C   UNL     1      -0.863  -1.237   0.348  0.00  0.00    +0.000 C 
ATOM      5  C   UNL     1      -1.502   0.063  -0.197  0.00  0.00    +0.000 C 
ATOM      6  C   UNL     1      -0.673   1.318   0.105  0.00  0.00    +0.000 C 
ENDROOT
BRANCH   4   7
ATOM      7  S   UNL     1      -1.830  -2.659  -0.311  0.00  0.00    +0.000 S 
ATOM      8  H   UNL     1      -1.727  -2.688  -1.667  0.00  0.00    +0.000 HD
ENDBRANCH   4   7
BRANCH   4   9
ATOM      9  S   UNL     1      -1.025  -1.227   2.194  0.00  0.00    +0.000 S 
BRANCH   9  10
ATOM     10  C   UNL     1      -0.045  -2.689   2.663  0.00  0.00    +0.000 C 
BRANCH  10  11
ATOM     11  C   UNL     1      -0.217  -3.009   4.128  0.00  0.00    +0.000 A 
ATOM     12  C   UNL     1      -1.270  -3.831   4.557  0.00  0.00    +0.000 A 
ATOM     13  C   UNL     1      -1.436  -4.122   5.912  0.00  0.00    +0.000 A 
ATOM     14  C   UNL     1      -0.554  -3.592   6.852  0.00  0.00    +0.000 A 
ATOM     15  C   UNL     1       0.490  -2.766   6.440  0.00  0.00    +0.000 A 
ATOM     16  C   UNL     1       0.657  -2.473   5.085  0.00  0.00    +0.000 A 
ENDBRANCH  10  11
ENDBRANCH   9  10
ENDBRANCH   4   9
TORSDOF 4
