REMARK  Name = *****
REMARK  5 active torsions:
REMARK  status: ('A' for Active; 'I' for Inactive)
REMARK    1  A    between atoms: C_1  and  C_2
REMARK    2  A    between atoms: C_4  and  C_9
REMARK    3  A    between atoms: C_5  and  C_8
REMARK    4  A    between atoms: C_9  and  C_10
REMARK    5  A    between atoms: C_10  and  C_12
REMARK                            x       y       z     vdW  Elec       q    Type
REMARK                         _______ _______ _______ _____ _____    ______ ____
ROOT
ATOM      1  C   UNL     1      -1.268   2.612   0.233  0.00  0.00    +0.000 C 
ENDROOT
BRANCH   1   5
ATOM      2  C   UNL     1       2.941  -0.199   0.040  0.00  0.00    +0.000 C 
ATOM      3  C   UNL     1       1.447  -0.095  -0.054  0.00  0.00    +0.000 A 
ATOM      4  C   UNL     1       0.806   1.139   0.120  0.00  0.00    +0.000 A 
ATOM      5  C   UNL     1      -0.597   1.262   0.056  0.00  0.00    +0.000 A 
ATOM      6  C   UNL     1      -1.366   0.092  -0.134  0.00  0.00    +0.000 A 
ATOM      7  C   UNL     1      -0.715  -1.144  -0.289  0.00  0.00    +0.000 A 
ATOM      8  C   UNL     1       0.675  -1.237  -0.253  0.00  0.00    +0.000 A 
ATOM      9  C   UNL     1      -2.873   0.072  -0.139  0.00  0.00    +0.000 C 
ENDBRANCH   1   5
BRANCH   1  10
ATOM     10  C   UNL     1      -0.367   3.832   0.171  0.00  0.00    +0.000 C 
ATOM     11  O   UNL     1       0.074   4.350   1.198  0.00  0.00    +0.000 OA
BRANCH  10  12
ATOM     12  C   UNL     1      -0.013   4.426  -1.155  0.00  0.00    +0.000 A 
ATOM     13  C   UNL     1      -0.246   3.765  -2.367  0.00  0.00    +0.000 A 
ATOM     14  C   UNL     1       0.110   4.369  -3.576  0.00  0.00    +0.000 A 
ATOM     15  C   UNL     1       0.700   5.632  -3.583  0.00  0.00    +0.000 A 
ATOM     16  C   UNL     1       0.941   6.294  -2.381  0.00  0.00    +0.000 A 
ATOM     17  C   UNL     1       0.588   5.693  -1.172  0.00  0.00    +0.000 A 
ENDBRANCH  10  12
ENDBRANCH   1  10
TORSDOF 3
