REMARK  Name = *****
REMARK  5 active torsions:
REMARK  status: ('A' for Active; 'I' for Inactive)
REMARK    1  A    between atoms: C_1  and  C_2
REMARK    2  A    between atoms: C_5  and  C_8
REMARK    3  A    between atoms: C_8  and  O_9
REMARK    4  A    between atoms: O_9  and  C_10
REMARK    5  A    between atoms: C_12  and  C_17
REMARK                            x       y       z     vdW  Elec       q    Type
REMARK                         _______ _______ _______ _____ _____    ______ ____
ROOT
ATOM      1  O   UNL     1      -3.825   1.315  -0.106  0.00  0.00    +0.000 OA
ENDROOT
BRANCH   1   2
ATOM      2  C   UNL     1      -5.181   1.482  -0.085  0.00  0.00    +0.000 A 
ATOM      3  C   UNL     1      -6.138   0.465  -0.047  0.00  0.00    +0.000 A 
ATOM      4  C   UNL     1      -7.514   0.767  -0.028  0.00  0.00    +0.000 A 
ATOM      5  C   UNL     1      -7.911   2.113  -0.048  0.00  0.00    +0.000 A 
ATOM      6  C   UNL     1      -6.958   3.131  -0.087  0.00  0.00    +0.000 A 
ATOM      7  C   UNL     1      -5.599   2.813  -0.105  0.00  0.00    +0.000 A 
ATOM      8 CL   UNL     1      -9.578   2.565  -0.027  0.00  0.00    +0.000 Cl
ATOM      9  C   UNL     1      -8.516  -0.353   0.012  0.00  0.00    +0.000 C 
ENDBRANCH   1   2
BRANCH   1  10
ATOM     10  C   UNL     1      -3.329  -0.023  -0.086  0.00  0.00    +0.000 C 
BRANCH  10  15
ATOM     11  C   UNL     1       2.500   0.086  -0.003  0.00  0.00    +0.000 C 
ATOM     12  C   UNL     1       1.001   0.037  -0.009  0.00  0.00    +0.000 A 
ATOM     13  C   UNL     1       0.263   0.738   0.951  0.00  0.00    +0.000 A 
ATOM     14  C   UNL     1      -1.133   0.720   0.923  0.00  0.00    +0.000 A 
ATOM     15  C   UNL     1      -1.819   0.013  -0.075  0.00  0.00    +0.000 A 
ATOM     16  C   UNL     1      -1.078  -0.678  -1.042  0.00  0.00    +0.000 A 
ATOM     17  C   UNL     1       0.319  -0.660  -1.013  0.00  0.00    +0.000 A 
ENDBRANCH  10  15
ENDBRANCH   1  10
TORSDOF 3
