REMARK  Name = *****
REMARK  3 active torsions:
REMARK  status: ('A' for Active; 'I' for Inactive)
REMARK    1  A    between atoms: C_2  and  C_3
REMARK    2  A    between atoms: C_7  and  C_8
REMARK    3  A    between atoms: C_9  and  C_10
REMARK                            x       y       z     vdW  Elec       q    Type
REMARK                         _______ _______ _______ _____ _____    ______ ____
ROOT
ATOM      1  C   UNL     1       3.759   0.029   0.012  0.00  0.00    +0.000 A 
ATOM      2  C   UNL     1       4.545   1.162   0.004  0.00  0.00    +0.000 A 
ATOM      3  S   UNL     1       6.216   0.790  -0.000  0.00  0.00    +0.000 S 
ATOM      4  C   UNL     1       5.895  -0.892   0.009  0.00  0.00    +0.000 A 
ATOM      5  C   UNL     1       4.544  -1.164   0.015  0.00  0.00    +0.000 A 
ENDROOT
BRANCH   1   7
ATOM      6  C   UNL     1       1.130   0.144   0.021  0.00  0.00    +0.000 C 
ATOM      7  C   UNL     1       2.329   0.093   0.017  0.00  0.00    +0.000 C 
ENDBRANCH   1   7
BRANCH   5   8
ATOM      8  C   UNL     1       4.036  -2.502   0.023  0.00  0.00    +0.000 C 
ATOM      9  C   UNL     1       3.607  -3.623   0.032  0.00  0.00    +0.000 C 
BRANCH   9  10
ATOM     10  C   UNL     1       3.074  -4.989   0.040  0.00  0.00    +0.000 C 
ATOM     11  C   UNL     1       2.700  -5.466   1.444  0.00  0.00    +0.000 C 
ATOM     12  C   UNL     1       2.870  -6.986   1.424  0.00  0.00    +0.000 C 
ATOM     13  C   UNL     1       3.508  -7.330   0.081  0.00  0.00    +0.000 C 
ATOM     14  C   UNL     1       4.099  -6.020  -0.416  0.00  0.00    +0.000 C 
ENDBRANCH   9  10
ENDBRANCH   5   8
TORSDOF 3
