REMARK  Name = *****
REMARK  3 active torsions:
REMARK  status: ('A' for Active; 'I' for Inactive)
REMARK    1  A    between atoms: C_3  and  C_6
REMARK    2  A    between atoms: C_6  and  C_7
REMARK    3  A    between atoms: C_7  and  C_8
REMARK                            x       y       z     vdW  Elec       q    Type
REMARK                         _______ _______ _______ _____ _____    ______ ____
ROOT
ATOM      1  C   UNL     1      -2.606  -2.394   0.857  0.00  0.00    +0.000 C 
ENDROOT
BRANCH   1   2
ATOM      2  C   UNL     1      -3.639  -2.764   1.892  0.00  0.00    +0.000 A 
ATOM      3  C   UNL     1      -5.005  -2.620   1.617  0.00  0.00    +0.000 A 
ATOM      4  C   UNL     1      -5.959  -2.966   2.575  0.00  0.00    +0.000 A 
ATOM      5  C   UNL     1      -5.557  -3.454   3.817  0.00  0.00    +0.000 A 
ATOM      6  C   UNL     1      -4.200  -3.590   4.105  0.00  0.00    +0.000 A 
ATOM      7  C   UNL     1      -3.245  -3.243   3.149  0.00  0.00    +0.000 A 
ENDBRANCH   1   2
BRANCH   1   8
ATOM      8  C   UNL     1      -2.148  -0.939   1.000  0.00  0.00    +0.000 C 
BRANCH   8  11
ATOM      9  C   UNL     1       1.335  -0.366  -0.214  0.00  0.00    +0.000 C 
ATOM     10  C   UNL     1       0.192  -1.352   0.027  0.00  0.00    +0.000 C 
ATOM     11  C   UNL     1      -1.115  -0.546  -0.063  0.00  0.00    +0.000 C 
ATOM     12  C   UNL     1      -0.636   0.866   0.103  0.00  0.00    +0.000 C 
ATOM     13  C   UNL     1       0.695   0.959   0.022  0.00  0.00    +0.000 C 
ENDBRANCH   8  11
ENDBRANCH   1   8
TORSDOF 3
