REMARK  Name = *****
REMARK  2 active torsions:
REMARK  status: ('A' for Active; 'I' for Inactive)
REMARK    1  A    between atoms: C_4  and  C_7
REMARK    2  A    between atoms: C_8  and  C_9
REMARK                            x       y       z     vdW  Elec       q    Type
REMARK                         _______ _______ _______ _____ _____    ______ ____
ROOT
ATOM      1  C   UNL     1      -2.708   0.365  -0.374  0.00  0.00    +0.000 C 
ATOM      2  C   UNL     1      -3.594  -0.637  -0.277  0.00  0.00    +0.000 C 
ATOM      3  F   UNL     1      -4.909  -0.342  -0.390  0.00  0.00    +0.000 F 
ENDROOT
BRANCH   1   7
ATOM      4  C   UNL     1       1.519  -0.088  -0.096  0.00  0.00    +0.000 A 
ATOM      5  C   UNL     1       0.881  -0.246  -1.326  0.00  0.00    +0.000 A 
ATOM      6  C   UNL     1      -0.504  -0.095  -1.419  0.00  0.00    +0.000 A 
ATOM      7  C   UNL     1      -1.255   0.215  -0.280  0.00  0.00    +0.000 A 
ATOM      8  C   UNL     1      -0.610   0.373   0.951  0.00  0.00    +0.000 A 
ATOM      9  C   UNL     1       0.775   0.221   1.041  0.00  0.00    +0.000 A 
ENDBRANCH   1   7
BRANCH   2  10
ATOM     10  C   UNL     1      -3.262  -2.046  -0.056  0.00  0.00    +0.000 A 
ATOM     11  C   UNL     1      -3.131  -2.545   1.245  0.00  0.00    +0.000 A 
ATOM     12  C   UNL     1      -2.811  -3.888   1.454  0.00  0.00    +0.000 A 
ATOM     13  C   UNL     1      -2.623  -4.738   0.365  0.00  0.00    +0.000 A 
ATOM     14  C   UNL     1      -2.757  -4.248  -0.934  0.00  0.00    +0.000 A 
ATOM     15  C   UNL     1      -3.078  -2.906  -1.145  0.00  0.00    +0.000 A 
ENDBRANCH   2  10
TORSDOF 2
