REMARK  Name = *****
REMARK  3 active torsions:
REMARK  status: ('A' for Active; 'I' for Inactive)
REMARK    1  A    between atoms: C_4  and  C_7
REMARK    2  A    between atoms: C_8  and  C_9
REMARK    3  A    between atoms: C_9  and  C_10
REMARK                            x       y       z     vdW  Elec       q    Type
REMARK                         _______ _______ _______ _____ _____    ______ ____
ROOT
ATOM      1  C   UNL     1      -2.796   0.345  -0.148  0.00  0.00    +0.000 C 
ATOM      2  C   UNL     1      -3.668  -0.652  -0.370  0.00  0.00    +0.000 C 
ENDROOT
BRANCH   1   6
ATOM      3  C   UNL     1       1.459  -0.044   0.094  0.00  0.00    +0.000 A 
ATOM      4  C   UNL     1       0.745  -0.861  -0.779  0.00  0.00    +0.000 A 
ATOM      5  C   UNL     1      -0.646  -0.750  -0.863  0.00  0.00    +0.000 A 
ATOM      6  C   UNL     1      -1.339   0.171  -0.067  0.00  0.00    +0.000 A 
ATOM      7  C   UNL     1      -0.606   0.998   0.795  0.00  0.00    +0.000 A 
ATOM      8  C   UNL     1       0.784   0.888   0.880  0.00  0.00    +0.000 A 
ENDBRANCH   1   6
BRANCH   2   9
ATOM      9  C   UNL     1      -5.160  -0.464  -0.446  0.00  0.00    +0.000 C 
BRANCH   9  10
ATOM     10  C   UNL     1      -5.927  -1.244   0.564  0.00  0.00    +0.000 A 
ATOM     11  C   UNL     1      -6.012  -1.188   1.940  0.00  0.00    +0.000 A 
ATOM     12  C   UNL     1      -6.922  -2.201   2.325  0.00  0.00    +0.000 A 
ATOM     13  C   UNL     1      -7.334  -2.809   1.162  0.00  0.00    +0.000 A 
ATOM     14  O   UNL     1      -6.735  -2.235   0.087  0.00  0.00    +0.000 OA
ENDBRANCH   9  10
ENDBRANCH   2   9
TORSDOF 3
