REMARK  Name = *****
REMARK  3 active torsions:
REMARK  status: ('A' for Active; 'I' for Inactive)
REMARK    1  A    between atoms: C_2  and  C_3
REMARK    2  A    between atoms: C_2  and  C_10
REMARK    3  A    between atoms: C_3  and  C_4
REMARK                            x       y       z     vdW  Elec       q    Type
REMARK                         _______ _______ _______ _____ _____    ______ ____
ROOT
ATOM      1  C   UNL     1       3.038  -1.362  -1.748  0.00  0.00    +0.000 C 
ATOM      2  C   UNL     1       2.812  -0.609  -0.657  0.00  0.00    +0.000 C 
ENDROOT
BRANCH   2   3
ATOM      3  C   UNL     1       2.203   0.726  -0.811  0.00  0.00    +0.000 A 
ATOM      4  C   UNL     1       0.931   0.861  -1.384  0.00  0.00    +0.000 A 
ATOM      5  C   UNL     1       0.340   2.120  -1.514  0.00  0.00    +0.000 A 
ATOM      6  C   UNL     1       1.016   3.256  -1.072  0.00  0.00    +0.000 A 
ATOM      7  C   UNL     1       2.281   3.134  -0.500  0.00  0.00    +0.000 A 
ATOM      8  C   UNL     1       2.871   1.874  -0.368  0.00  0.00    +0.000 A 
ENDBRANCH   2   3
BRANCH   2   9
ATOM      9  C   UNL     1       3.201  -1.057   0.739  0.00  0.00    +0.000 C 
BRANCH   9  10
ATOM     10  C   UNL     1       2.015  -1.205   1.719  0.00  0.00    +0.000 C 
ATOM     11  S   UNL     1       0.757  -2.441   1.228  0.00  0.00    +0.000 S 
ATOM     12  C   UNL     1       1.724  -3.967   1.374  0.00  0.00    +0.000 C 
ATOM     13  C   UNL     1       2.236  -4.210   2.787  0.00  0.00    +0.000 C 
ATOM     14  C   UNL     1       3.260  -3.189   3.262  0.00  0.00    +0.000 C 
ATOM     15  S   UNL     1       2.578  -1.516   3.434  0.00  0.00    +0.000 S 
ENDBRANCH   9  10
ENDBRANCH   2   9
TORSDOF 3
