REMARK  Name = *****
REMARK  6 active torsions:
REMARK  status: ('A' for Active; 'I' for Inactive)
REMARK    1  A    between atoms: C_1  and  C_2
REMARK    2  A    between atoms: C_2  and  O_4
REMARK    3  A    between atoms: O_4  and  C_5
REMARK    4  A    between atoms: C_10  and  S_11
REMARK    5  A    between atoms: S_11  and  C_12
REMARK    6  A    between atoms: C_12  and  C_13
REMARK                            x       y       z     vdW  Elec       q    Type
REMARK                         _______ _______ _______ _____ _____    ______ ____
ROOT
ATOM      1  C   UNL     1       4.416   0.173   0.936  0.00  0.00    +0.000 A 
ATOM      2  C   UNL     1       5.278   0.759   0.005  0.00  0.00    +0.000 A 
ATOM      3  C   UNL     1       6.655   0.658   0.186  0.00  0.00    +0.000 A 
ATOM      4  C   UNL     1       7.163  -0.033   1.286  0.00  0.00    +0.000 A 
ATOM      5  C   UNL     1       6.294  -0.636   2.202  0.00  0.00    +0.000 A 
ATOM      6  C   UNL     1       4.907  -0.557   2.028  0.00  0.00    +0.000 A 
ENDROOT
BRANCH   1   7
ATOM      7  O   UNL     1       3.039   0.280   0.720  0.00  0.00    +0.000 OA
BRANCH   7   9
ATOM      8  C   UNL     1       1.019   1.442   0.995  0.00  0.00    +0.000 C 
ATOM      9  C   UNL     1       2.506   1.475   1.188  0.00  0.00    +0.000 C 
ATOM     10  O   UNL     1       3.116   2.417   1.674  0.00  0.00    +0.000 OA
ENDBRANCH   7   9
ENDBRANCH   1   7
BRANCH   6  11
ATOM     11  S   UNL     1       3.866  -1.372   3.231  0.00  0.00    +0.000 S 
BRANCH  11  12
ATOM     12  C   UNL     1       2.990  -2.548   2.146  0.00  0.00    +0.000 C 
BRANCH  12  13
ATOM     13  C   UNL     1       2.275  -3.614   2.940  0.00  0.00    +0.000 A 
ATOM     14  C   UNL     1       1.096  -3.315   3.640  0.00  0.00    +0.000 A 
ATOM     15  C   UNL     1       0.436  -4.303   4.373  0.00  0.00    +0.000 A 
ATOM     16  C   UNL     1       0.944  -5.600   4.412  0.00  0.00    +0.000 A 
ATOM     17  C   UNL     1       2.115  -5.909   3.723  0.00  0.00    +0.000 A 
ATOM     18  C   UNL     1       2.780  -4.921   2.993  0.00  0.00    +0.000 A 
ENDBRANCH  12  13
ENDBRANCH  11  12
ENDBRANCH   6  11
TORSDOF 5
