REMARK  Name = *****
REMARK  3 active torsions:
REMARK  status: ('A' for Active; 'I' for Inactive)
REMARK    1  A    between atoms: C_3  and  C_9
REMARK    2  A    between atoms: C_9  and  C_10
REMARK    3  A    between atoms: C_10  and  C_11
REMARK                            x       y       z     vdW  Elec       q    Type
REMARK                         _______ _______ _______ _____ _____    ______ ____
ROOT
ATOM      1  C   UNL     1       0.905  -0.154   0.353  0.00  0.00    +0.000 C 
ATOM      2  C   UNL     1       2.232  -0.109   0.141  0.00  0.00    +0.000 C 
ATOM      3  C   UNL     1       3.028   1.165  -0.117  0.00  0.00    +0.000 C 
ATOM      4  S   UNL     1       3.580   1.809   1.516  0.00  0.00    +0.000 S 
ATOM      5  C   UNL     1       5.188   0.974   1.701  0.00  0.00    +0.000 C 
ATOM      6  C   UNL     1       5.364  -0.456   1.187  0.00  0.00    +0.000 C 
ATOM      7  C   UNL     1       4.227  -1.424   1.501  0.00  0.00    +0.000 C 
ATOM      8  S   UNL     1       3.086  -1.634   0.095  0.00  0.00    +0.000 S 
ENDROOT
BRANCH   3   9
ATOM      9  C   UNL     1       2.280   2.297  -0.852  0.00  0.00    +0.000 C 
BRANCH   9  10
ATOM     10  C   UNL     1       1.897   1.901  -2.284  0.00  0.00    +0.000 C 
BRANCH  10  11
ATOM     11  C   UNL     1       1.203   3.032  -3.003  0.00  0.00    +0.000 A 
ATOM     12  C   UNL     1       1.941   3.958  -3.752  0.00  0.00    +0.000 A 
ATOM     13  C   UNL     1       1.298   5.014  -4.400  0.00  0.00    +0.000 A 
ATOM     14  C   UNL     1      -0.085   5.156  -4.302  0.00  0.00    +0.000 A 
ATOM     15  C   UNL     1      -0.827   4.243  -3.555  0.00  0.00    +0.000 A 
ATOM     16  C   UNL     1      -0.186   3.186  -2.906  0.00  0.00    +0.000 A 
ENDBRANCH  10  11
ENDBRANCH   9  10
ENDBRANCH   3   9
TORSDOF 3
