REMARK  Name = *****
REMARK  2 active torsions:
REMARK  status: ('A' for Active; 'I' for Inactive)
REMARK    1  A    between atoms: C_1  and  C_2
REMARK    2  A    between atoms: C_4  and  C_8
REMARK                            x       y       z     vdW  Elec       q    Type
REMARK                         _______ _______ _______ _____ _____    ______ ____
ROOT
ATOM      1  C   UNL     1      -1.308   3.170  -0.424  0.00  0.00    +0.000 C 
ATOM      2  C   UNL     1      -1.580   4.195  -1.258  0.00  0.00    +0.000 C 
ATOM      3  C   UNL     1      -2.382   5.172  -0.541  0.00  0.00    +0.000 A 
ATOM      4  C   UNL     1      -2.906   6.376  -0.974  0.00  0.00    +0.000 A 
ATOM      5  C   UNL     1      -3.657   7.133  -0.069  0.00  0.00    +0.000 A 
ATOM      6  C   UNL     1      -3.869   6.677   1.244  0.00  0.00    +0.000 A 
ATOM      7  C   UNL     1      -3.335   5.460   1.672  0.00  0.00    +0.000 A 
ATOM      8  C   UNL     1      -2.594   4.720   0.765  0.00  0.00    +0.000 A 
ATOM      9  C   UNL     1      -1.909   3.401   0.954  0.00  0.00    +0.000 C 
ENDROOT
BRANCH   1  13
ATOM     10  C   UNL     1       0.716   0.061  -3.821  0.00  0.00    +0.000 C 
ATOM     11  C   UNL     1       0.482   0.444  -2.389  0.00  0.00    +0.000 A 
ATOM     12  C   UNL     1      -0.260   1.595  -2.076  0.00  0.00    +0.000 A 
ATOM     13  C   UNL     1      -0.525   1.963  -0.745  0.00  0.00    +0.000 A 
ATOM     14  C   UNL     1      -0.041   1.126   0.271  0.00  0.00    +0.000 A 
ATOM     15  C   UNL     1       0.687  -0.030  -0.029  0.00  0.00    +0.000 A 
ATOM     16  C   UNL     1       0.944  -0.372  -1.354  0.00  0.00    +0.000 A 
ENDBRANCH   1  13
TORSDOF 1
