REMARK  Name = *****
REMARK  2 active torsions:
REMARK  status: ('A' for Active; 'I' for Inactive)
REMARK    1  A    between atoms: C_6  and  C_10
REMARK    2  A    between atoms: C_11  and  C_12
REMARK                            x       y       z     vdW  Elec       q    Type
REMARK                         _______ _______ _______ _____ _____    ______ ____
ROOT
ATOM      1  C   UNL     1       1.615   1.187   0.027  0.00  0.00    +0.000 C 
ATOM      2  C   UNL     1       2.618   0.070   0.286  0.00  0.00    +0.000 C 
ATOM      3  S   UNL     1       1.779  -1.464  -0.212  0.00  0.00    +0.000 S 
ATOM      4  C   UNL     1       0.157  -0.683  -0.463  0.00  0.00    +0.000 C 
ATOM      5  C   UNL     1       0.234   0.609   0.354  0.00  0.00    +0.000 C 
ATOM      6  C   UNL     1      -0.945   1.531   0.016  0.00  0.00    +0.000 C 
ATOM      7  S   UNL     1      -2.524   0.727   0.501  0.00  0.00    +0.000 S 
ATOM      8  C   UNL     1      -2.341  -0.871  -0.352  0.00  0.00    +0.000 C 
ATOM      9  C   UNL     1      -1.014  -1.562  -0.052  0.00  0.00    +0.000 C 
ENDROOT
BRANCH   6  10
ATOM     10  C   UNL     1      -0.867   2.844   0.751  0.00  0.00    +0.000 C 
ATOM     11  C   UNL     1      -0.787   4.038   0.139  0.00  0.00    +0.000 C 
BRANCH  11  12
ATOM     12  C   UNL     1      -0.706   5.326   0.842  0.00  0.00    +0.000 A 
ATOM     13  C   UNL     1       0.003   5.485   2.040  0.00  0.00    +0.000 A 
ATOM     14  C   UNL     1       0.085   6.736   2.658  0.00  0.00    +0.000 A 
ATOM     15  C   UNL     1      -0.532   7.843   2.079  0.00  0.00    +0.000 A 
ATOM     16  C   UNL     1      -1.227   7.701   0.880  0.00  0.00    +0.000 A 
ATOM     17  C   UNL     1      -1.308   6.451   0.262  0.00  0.00    +0.000 A 
ENDBRANCH  11  12
ENDBRANCH   6  10
TORSDOF 2
