REMARK  Name = *****
REMARK  5 active torsions:
REMARK  status: ('A' for Active; 'I' for Inactive)
REMARK    1  A    between atoms: C_1  and  C_2
REMARK    2  A    between atoms: C_5  and  C_8
REMARK    3  A    between atoms: C_8  and  S_10
REMARK    4  A    between atoms: S_10  and  C_11
REMARK    5  A    between atoms: C_14  and  C_17
REMARK                            x       y       z     vdW  Elec       q    Type
REMARK                         _______ _______ _______ _____ _____    ______ ____
ROOT
ATOM      1  C   UNL     1      -3.476   0.004   0.285  0.00  0.00    +0.000 C 
ATOM      2  O   UNL     1      -4.033  -1.088   0.297  0.00  0.00    +0.000 OA
ENDROOT
BRANCH   1   7
ATOM      3  C   UNL     1       2.321   0.112  -0.194  0.00  0.00    +0.000 C 
ATOM      4  C   UNL     1       0.823   0.100  -0.107  0.00  0.00    +0.000 A 
ATOM      5  C   UNL     1       0.101   1.297  -0.162  0.00  0.00    +0.000 A 
ATOM      6  C   UNL     1      -1.294   1.296  -0.044  0.00  0.00    +0.000 A 
ATOM      7  C   UNL     1      -1.990   0.093   0.145  0.00  0.00    +0.000 A 
ATOM      8  C   UNL     1      -1.260  -1.104   0.205  0.00  0.00    +0.000 A 
ATOM      9  C   UNL     1       0.134  -1.100   0.089  0.00  0.00    +0.000 A 
ENDBRANCH   1   7
BRANCH   1  10
ATOM     10  S   UNL     1      -4.383   1.498   0.513  0.00  0.00    +0.000 S 
BRANCH  10  11
ATOM     11  C   UNL     1      -5.754   1.263  -0.599  0.00  0.00    +0.000 A 
ATOM     12  C   UNL     1      -6.725   0.286  -0.364  0.00  0.00    +0.000 A 
ATOM     13  C   UNL     1      -7.812   0.144  -1.231  0.00  0.00    +0.000 A 
ATOM     14  C   UNL     1      -7.944   0.978  -2.346  0.00  0.00    +0.000 A 
ATOM     15  C   UNL     1      -6.986   1.974  -2.566  0.00  0.00    +0.000 A 
ATOM     16  C   UNL     1      -5.898   2.114  -1.699  0.00  0.00    +0.000 A 
ATOM     17  C   UNL     1      -9.132   0.849  -3.253  0.00  0.00    +0.000 C 
ENDBRANCH  10  11
ENDBRANCH   1  10
TORSDOF 3
