REMARK  Name = *****
REMARK  3 active torsions:
REMARK  status: ('A' for Active; 'I' for Inactive)
REMARK    1  A    between atoms: C_1  and  C_2
REMARK    2  A    between atoms: C_4  and  C_8
REMARK    3  A    between atoms: N_9  and  C_10
REMARK                            x       y       z     vdW  Elec       q    Type
REMARK                         _______ _______ _______ _____ _____    ______ ____
ROOT
ATOM      1  C   UNL     1      -1.702   2.633  -0.179  0.00  0.00    +0.000 C 
ATOM      2  N   UNL     1      -1.107   3.722   0.198  0.00  0.00    +0.000 NA
ENDROOT
BRANCH   1   6
ATOM      3  C   UNL     1       2.418  -0.134   0.551  0.00  0.00    +0.000 C 
ATOM      4  C   UNL     1       0.985  -0.014   0.122  0.00  0.00    +0.000 A 
ATOM      5  C   UNL     1       0.337   1.228   0.163  0.00  0.00    +0.000 A 
ATOM      6  C   UNL     1      -1.007   1.331  -0.208  0.00  0.00    +0.000 A 
ATOM      7  C   UNL     1      -1.719   0.199  -0.610  0.00  0.00    +0.000 A 
ATOM      8  C   UNL     1      -1.082  -1.042  -0.636  0.00  0.00    +0.000 A 
ATOM      9  C   UNL     1       0.261  -1.148  -0.267  0.00  0.00    +0.000 A 
ENDBRANCH   1   6
BRANCH   2  10
ATOM     10  C   UNL     1      -1.887   4.886   0.176  0.00  0.00    +0.000 A 
ATOM     11  C   UNL     1      -2.713   5.209   1.253  0.00  0.00    +0.000 A 
ATOM     12  C   UNL     1      -3.464   6.379   1.217  0.00  0.00    +0.000 A 
ATOM     13  C   UNL     1      -3.399   7.242   0.128  0.00  0.00    +0.000 A 
ATOM     14  C   UNL     1      -2.563   6.934  -0.943  0.00  0.00    +0.000 A 
ATOM     15  C   UNL     1      -1.806   5.760  -0.914  0.00  0.00    +0.000 A 
ATOM     16  F   UNL     1      -4.264   6.681   2.248  0.00  0.00    +0.000 F 
ENDBRANCH   2  10
TORSDOF 2
