REMARK  Name = *****
REMARK  3 active torsions:
REMARK  status: ('A' for Active; 'I' for Inactive)
REMARK    1  A    between atoms: C_4  and  O_7
REMARK    2  A    between atoms: O_7  and  C_8
REMARK    3  A    between atoms: C_8  and  C_10
REMARK                            x       y       z     vdW  Elec       q    Type
REMARK                         _______ _______ _______ _____ _____    ______ ____
ROOT
ATOM      1  C   UNL     1      -3.662  -0.670  -0.047  0.00  0.00    +0.000 C 
ATOM      2  O   UNL     1      -3.434  -1.813   0.315  0.00  0.00    +0.000 OA
ENDROOT
BRANCH   1   3
ATOM      3  C   UNL     1      -5.003  -0.217  -0.457  0.00  0.00    +0.000 A 
ATOM      4  C   UNL     1      -5.614   0.930   0.065  0.00  0.00    +0.000 A 
ATOM      5  C   UNL     1      -6.889   1.298  -0.375  0.00  0.00    +0.000 A 
ATOM      6  C   UNL     1      -7.551   0.516  -1.321  0.00  0.00    +0.000 A 
ATOM      7  C   UNL     1      -6.958  -0.639  -1.828  0.00  0.00    +0.000 A 
ATOM      8  C   UNL     1      -5.685  -1.010  -1.393  0.00  0.00    +0.000 A 
ATOM      9 CL   UNL     1      -9.120   0.973  -1.859  0.00  0.00    +0.000 Cl
ATOM     10 CL   UNL     1      -4.884   1.905   1.290  0.00  0.00    +0.000 Cl
ENDBRANCH   1   3
BRANCH   1  11
ATOM     11  O   UNL     1      -2.772   0.358  -0.281  0.00  0.00    +0.000 OA
BRANCH  11  15
ATOM     12  C   UNL     1       1.264  -0.242   0.604  0.00  0.00    +0.000 A 
ATOM     13  C   UNL     1       0.628  -1.107  -0.289  0.00  0.00    +0.000 A 
ATOM     14  C   UNL     1      -0.722  -0.932  -0.590  0.00  0.00    +0.000 A 
ATOM     15  C   UNL     1      -1.429   0.100   0.026  0.00  0.00    +0.000 A 
ATOM     16  C   UNL     1      -0.798   0.980   0.903  0.00  0.00    +0.000 A 
ATOM     17  C   UNL     1       0.553   0.802   1.197  0.00  0.00    +0.000 A 
ENDBRANCH  11  15
ENDBRANCH   1  11
TORSDOF 3
