REMARK  Name = *****
REMARK  5 active torsions:
REMARK  status: ('A' for Active; 'I' for Inactive)
REMARK    1  A    between atoms: C_4  and  C_7
REMARK    2  A    between atoms: C_7  and  C_8
REMARK    3  A    between atoms: C_8  and  N_9
REMARK    4  A    between atoms: N_9  and  C_10
REMARK    5  A    between atoms: N_9  and  N_16
REMARK                            x       y       z     vdW  Elec       q    Type
REMARK                         _______ _______ _______ _____ _____    ______ ____
ROOT
ATOM      1  N   UNL     1      -5.106  -0.491  -0.395  0.00  0.00    +0.000 N 
ENDROOT
BRANCH   1   2
ATOM      2  C   UNL     1      -5.580  -0.298  -1.729  0.00  0.00    +0.000 A 
ATOM      3  C   UNL     1      -4.734  -0.158  -2.847  0.00  0.00    +0.000 A 
ATOM      4  C   UNL     1      -5.239   0.036  -4.141  0.00  0.00    +0.000 A 
ATOM      5  C   UNL     1      -6.610   0.099  -4.357  0.00  0.00    +0.000 A 
ATOM      6  C   UNL     1      -7.476  -0.029  -3.280  0.00  0.00    +0.000 A 
ATOM      7  C   UNL     1      -6.967  -0.221  -1.990  0.00  0.00    +0.000 A 
ENDBRANCH   1   2
BRANCH   1   8
ATOM      8  N   UNL     1      -5.966  -0.372   0.657  0.00  0.00    +0.000 NA
ATOM      9  O   UNL     1      -5.429  -0.486   1.764  0.00  0.00    +0.000 OA
ENDBRANCH   1   8
BRANCH   1  10
ATOM     10  C   UNL     1      -3.663  -0.783  -0.227  0.00  0.00    +0.000 C 
BRANCH  10  11
ATOM     11  C   UNL     1      -2.864   0.507  -0.006  0.00  0.00    +0.000 C 
BRANCH  11  15
ATOM     12  C   UNL     1       1.348  -0.339   0.364  0.00  0.00    +0.000 A 
ATOM     13  C   UNL     1       0.815   0.017  -0.874  0.00  0.00    +0.000 A 
ATOM     14  C   UNL     1      -0.546   0.299  -0.995  0.00  0.00    +0.000 A 
ATOM     15  C   UNL     1      -1.386   0.229   0.125  0.00  0.00    +0.000 A 
ATOM     16  C   UNL     1      -0.842  -0.133   1.364  0.00  0.00    +0.000 A 
ATOM     17  C   UNL     1       0.520  -0.414   1.482  0.00  0.00    +0.000 A 
ENDBRANCH  11  15
ENDBRANCH  10  11
ENDBRANCH   1  10
TORSDOF 5
