REMARK  Name = *****
REMARK  3 active torsions:
REMARK  status: ('A' for Active; 'I' for Inactive)
REMARK    1  A    between atoms: C_4  and  C_7
REMARK    2  A    between atoms: C_7  and  C_9
REMARK    3  A    between atoms: C_9  and  C_10
REMARK                            x       y       z     vdW  Elec       q    Type
REMARK                         _______ _______ _______ _____ _____    ______ ____
ROOT
ATOM      1  C   UNL     1       2.698  -0.724  -0.958  0.00  0.00    +0.000 C 
ATOM      2  O   UNL     1       2.960  -0.107  -1.992  0.00  0.00    +0.000 OA
ENDROOT
BRANCH   1   6
ATOM      3  C   UNL     1      -1.249   0.647   0.272  0.00  0.00    +0.000 C 
ATOM      4  C   UNL     1      -0.925  -0.839   0.389  0.00  0.00    +0.000 C 
ATOM      5  C   UNL     1       0.309  -1.215  -0.428  0.00  0.00    +0.000 C 
ATOM      6  C   UNL     1       1.518  -0.346  -0.065  0.00  0.00    +0.000 C 
ATOM      7  C   UNL     1       1.181   1.146  -0.188  0.00  0.00    +0.000 C 
ATOM      8  C   UNL     1      -0.048   1.514   0.639  0.00  0.00    +0.000 C 
ENDBRANCH   1   6
BRANCH   1   9
ATOM      9  C   UNL     1       3.544  -1.910  -0.514  0.00  0.00    +0.000 C 
BRANCH   9  10
ATOM     10  C   UNL     1       4.789  -1.445   0.199  0.00  0.00    +0.000 C 
ATOM     11  C   UNL     1       4.952  -1.600   1.527  0.00  0.00    +0.000 C 
ATOM     12  C   UNL     1       6.174  -1.148   2.275  0.00  0.00    +0.000 C 
ATOM     13  C   UNL     1       7.086  -0.236   1.456  0.00  0.00    +0.000 C 
ATOM     14  C   UNL     1       7.228  -0.743   0.026  0.00  0.00    +0.000 C 
ATOM     15  C   UNL     1       5.865  -0.827  -0.667  0.00  0.00    +0.000 C 
ENDBRANCH   9  10
ENDBRANCH   1   9
TORSDOF 3
