REMARK  Name = *****
REMARK  6 active torsions:
REMARK  status: ('A' for Active; 'I' for Inactive)
REMARK    1  A    between atoms: C_1  and  O_2
REMARK    2  A    between atoms: O_2  and  C_3
REMARK    3  A    between atoms: C_7  and  C_9
REMARK    4  A    between atoms: C_9  and  P_10
REMARK    5  A    between atoms: P_10  and  C_11
REMARK    6  A    between atoms: P_10  and  C_12
REMARK                            x       y       z     vdW  Elec       q    Type
REMARK                         _______ _______ _______ _____ _____    ______ ____
ROOT
ATOM      1  C   UNL     1       6.633   1.606   2.141  0.00  0.00    +0.000 C 
ENDROOT
BRANCH   1   6
ATOM      2  C   UNL     1       3.398  -0.429   2.092  0.00  0.00    +0.000 A 
ATOM      3  C   UNL     1       2.466   0.523   2.503  0.00  0.00    +0.000 A 
ATOM      4  C   UNL     1       2.879   1.824   2.799  0.00  0.00    +0.000 A 
ATOM      5  C   UNL     1       4.224   2.179   2.688  0.00  0.00    +0.000 A 
ATOM      6  C   UNL     1       5.180   1.234   2.288  0.00  0.00    +0.000 A 
ATOM      7  C   UNL     1       4.744  -0.068   1.983  0.00  0.00    +0.000 A 
BRANCH   2   9
ATOM      8  C   UNL     1       1.773  -2.148   1.857  0.00  0.00    +0.000 C 
ATOM      9  O   UNL     1       3.129  -1.731   1.767  0.00  0.00    +0.000 OA
ENDBRANCH   2   9
ENDBRANCH   1   6
BRANCH   1  10
ATOM     10  P   UNL     1       7.304   1.586   3.845  0.00  0.00    +0.000 P 
ATOM     11  C   UNL     1       7.521  -0.213   4.130  0.00  0.00    +0.000 C 
BRANCH  10  12
ATOM     12  C   UNL     1       9.019   2.127   3.564  0.00  0.00    +0.000 A 
ATOM     13  C   UNL     1       9.503   3.219   4.298  0.00  0.00    +0.000 A 
ATOM     14  C   UNL     1      10.810   3.680   4.121  0.00  0.00    +0.000 A 
ATOM     15  C   UNL     1      11.652   3.054   3.206  0.00  0.00    +0.000 A 
ATOM     16  C   UNL     1      11.187   1.967   2.469  0.00  0.00    +0.000 A 
ATOM     17  C   UNL     1       9.879   1.507   2.647  0.00  0.00    +0.000 A 
ENDBRANCH  10  12
ENDBRANCH   1  10
TORSDOF 4
