REMARK  Name = *****
REMARK  3 active torsions:
REMARK  status: ('A' for Active; 'I' for Inactive)
REMARK    1  A    between atoms: C_4  and  C_7
REMARK    2  A    between atoms: C_7  and  C_10
REMARK    3  A    between atoms: C_10  and  C_13
REMARK                            x       y       z     vdW  Elec       q    Type
REMARK                         _______ _______ _______ _____ _____    ______ ____
ROOT
ATOM      1  C   UNL     1      -2.841   0.500   0.058  0.00  0.00    +0.000 C 
ATOM      2  C   UNL     1      -3.267   1.702   0.350  0.00  0.00    +0.000 C 
ATOM      3  O   UNL     1      -3.646   2.785   0.608  0.00  0.00    +0.000 OA
ENDROOT
BRANCH   1   7
ATOM      4  C   UNL     1       1.382  -0.329   0.158  0.00  0.00    +0.000 A 
ATOM      5  C   UNL     1       0.931   0.921  -0.258  0.00  0.00    +0.000 A 
ATOM      6  C   UNL     1      -0.439   1.195  -0.295  0.00  0.00    +0.000 A 
ATOM      7  C   UNL     1      -1.379   0.220   0.080  0.00  0.00    +0.000 A 
ATOM      8  C   UNL     1      -0.905  -1.034   0.502  0.00  0.00    +0.000 A 
ATOM      9  C   UNL     1       0.465  -1.306   0.538  0.00  0.00    +0.000 A 
ENDBRANCH   1   7
BRANCH   1  10
ATOM     10  C   UNL     1      -3.850  -0.502  -0.316  0.00  0.00    +0.000 C 
ATOM     11  C   UNL     1      -3.696  -1.110  -1.463  0.00  0.00    +0.000 C 
ATOM     12  O   UNL     1      -3.564  -1.655  -2.497  0.00  0.00    +0.000 OA
BRANCH  10  13
ATOM     13  C   UNL     1      -5.037  -0.820   0.524  0.00  0.00    +0.000 A 
ATOM     14  C   UNL     1      -4.932  -0.826   1.926  0.00  0.00    +0.000 A 
ATOM     15  C   UNL     1      -6.036  -1.134   2.725  0.00  0.00    +0.000 A 
ATOM     16  C   UNL     1      -7.260  -1.445   2.138  0.00  0.00    +0.000 A 
ATOM     17  C   UNL     1      -7.381  -1.449   0.751  0.00  0.00    +0.000 A 
ATOM     18  C   UNL     1      -6.279  -1.141  -0.051  0.00  0.00    +0.000 A 
ENDBRANCH  10  13
ENDBRANCH   1  10
TORSDOF 3
