REMARK  Name = *****
REMARK  4 active torsions:
REMARK  status: ('A' for Active; 'I' for Inactive)
REMARK    1  A    between atoms: C_4  and  C_7
REMARK    2  A    between atoms: C_7  and  O_8
REMARK    3  A    between atoms: O_8  and  C_9
REMARK    4  A    between atoms: C_9  and  C_11
REMARK                            x       y       z     vdW  Elec       q    Type
REMARK                         _______ _______ _______ _____ _____    ______ ____
ROOT
ATOM      1  C   UNL     1      -5.588  -2.066  -0.724  0.00  0.00    +0.000 A 
ATOM      2  C   UNL     1      -4.773  -3.182  -0.891  0.00  0.00    +0.000 A 
ATOM      3  C   UNL     1      -5.327  -4.457  -0.853  0.00  0.00    +0.000 A 
ATOM      4  C   UNL     1      -6.693  -4.618  -0.654  0.00  0.00    +0.000 A 
ATOM      5  C   UNL     1      -7.506  -3.503  -0.494  0.00  0.00    +0.000 A 
ATOM      6  C   UNL     1      -6.957  -2.226  -0.533  0.00  0.00    +0.000 A 
ATOM      7  F   UNL     1      -7.754  -1.163  -0.359  0.00  0.00    +0.000 F 
ATOM      8  F   UNL     1      -8.823  -3.659  -0.299  0.00  0.00    +0.000 F 
ATOM      9  F   UNL     1      -7.225  -5.847  -0.617  0.00  0.00    +0.000 F 
ATOM     10  F   UNL     1      -4.543  -5.531  -1.016  0.00  0.00    +0.000 F 
ATOM     11  F   UNL     1      -3.458  -3.043  -1.111  0.00  0.00    +0.000 F 
ENDROOT
BRANCH   1  12
ATOM     12  C   UNL     1      -5.024  -0.721  -0.779  0.00  0.00    +0.000 C 
ATOM     13  O   UNL     1      -5.409   0.148  -1.539  0.00  0.00    +0.000 OA
BRANCH  12  14
ATOM     14  O   UNL     1      -4.067  -0.623   0.169  0.00  0.00    +0.000 OA
BRANCH  14  15
ATOM     15  C   UNL     1      -3.444   0.664   0.226  0.00  0.00    +0.000 C 
BRANCH  15  19
ATOM     16  C   UNL     1      -0.602   0.570   3.467  0.00  0.00    +0.000 A 
ATOM     17  C   UNL     1      -0.319  -0.084   2.270  0.00  0.00    +0.000 A 
ATOM     18  C   UNL     1      -1.238  -0.051   1.220  0.00  0.00    +0.000 A 
ATOM     19  C   UNL     1      -2.449   0.643   1.357  0.00  0.00    +0.000 A 
ATOM     20  C   UNL     1      -2.728   1.290   2.569  0.00  0.00    +0.000 A 
ATOM     21  C   UNL     1      -1.807   1.255   3.617  0.00  0.00    +0.000 A 
ENDBRANCH  15  19
ENDBRANCH  14  15
ENDBRANCH  12  14
ENDBRANCH   1  12
TORSDOF 4
