REMARK  Name = *****
REMARK  3 active torsions:
REMARK  status: ('A' for Active; 'I' for Inactive)
REMARK    1  A    between atoms: C_4  and  C_6
REMARK    2  A    between atoms: C_6  and  S_7
REMARK    3  A    between atoms: S_7  and  C_8
REMARK                            x       y       z     vdW  Elec       q    Type
REMARK                         _______ _______ _______ _____ _____    ______ ____
ROOT
ATOM      1  C   UNL     1       0.018  -2.774   0.006  0.00  0.00    +0.000 C 
ENDROOT
BRANCH   1   5
ATOM      2  C   UNL     1       0.651   0.910  -0.629  0.00  0.00    +0.000 A 
ATOM      3  C   UNL     1       0.646   1.037   0.742  0.00  0.00    +0.000 A 
ATOM      4  S   UNL     1       0.379  -0.459   1.524  0.00  0.00    +0.000 S 
ATOM      5  C   UNL     1       0.273  -1.296   0.030  0.00  0.00    +0.000 A 
ATOM      6  C   UNL     1       0.433  -0.436  -1.041  0.00  0.00    +0.000 A 
ENDBRANCH   1   5
BRANCH   1   7
ATOM      7  S   UNL     1       1.566  -3.682  -0.273  0.00  0.00    +0.000 S 
BRANCH   7   8
ATOM      8  C   UNL     1       1.084  -5.374  -0.184  0.00  0.00    +0.000 A 
ATOM      9  C   UNL     1       1.982  -6.417  -0.068  0.00  0.00    +0.000 A 
ATOM     10  C   UNL     1       1.345  -7.692  -0.032  0.00  0.00    +0.000 A 
ATOM     11  C   UNL     1      -0.023  -7.582  -0.125  0.00  0.00    +0.000 A 
ATOM     12  S   UNL     1      -0.524  -5.954  -0.262  0.00  0.00    +0.000 S 
ENDBRANCH   7   8
ENDBRANCH   1   7
TORSDOF 3
