REMARK  Name = *****
REMARK  4 active torsions:
REMARK  status: ('A' for Active; 'I' for Inactive)
REMARK    1  A    between atoms: C_4  and  C_7
REMARK    2  A    between atoms: C_7  and  C_8
REMARK    3  A    between atoms: C_8  and  C_9
REMARK    4  A    between atoms: C_8  and  C_11
REMARK                            x       y       z     vdW  Elec       q    Type
REMARK                         _______ _______ _______ _____ _____    ______ ____
ROOT
ATOM      1  C   UNL     1      -3.695  -0.846   0.286  0.00  0.00    +0.000 C 
ENDROOT
BRANCH   1   2
ATOM      2  C   UNL     1      -5.127  -0.632  -0.196  0.00  0.00    +0.000 A 
ATOM      3  C   UNL     1      -5.640  -1.422  -1.238  0.00  0.00    +0.000 A 
ATOM      4  C   UNL     1      -6.947  -1.236  -1.696  0.00  0.00    +0.000 A 
ATOM      5  C   UNL     1      -7.753  -0.259  -1.116  0.00  0.00    +0.000 A 
ATOM      6  C   UNL     1      -7.263   0.532  -0.081  0.00  0.00    +0.000 A 
ATOM      7  C   UNL     1      -5.957   0.348   0.379  0.00  0.00    +0.000 A 
ATOM      8 CL   UNL     1      -9.361  -0.030  -1.683  0.00  0.00    +0.000 Cl
ENDBRANCH   1   2
BRANCH   1   9
ATOM      9  C   UNL     1      -3.668  -1.283   1.700  0.00  0.00    +0.000 C 
ATOM     10  N   UNL     1      -3.645  -1.607   2.815  0.00  0.00    +0.000 NA
ENDBRANCH   1   9
BRANCH   1  11
ATOM     11  C   UNL     1      -2.852   0.431   0.086  0.00  0.00    +0.000 C 
BRANCH  11  15
ATOM     12  C   UNL     1       1.387  -0.382   0.148  0.00  0.00    +0.000 A 
ATOM     13  C   UNL     1       0.679  -0.457  -1.049  0.00  0.00    +0.000 A 
ATOM     14  C   UNL     1      -0.690  -0.188  -1.070  0.00  0.00    +0.000 A 
ATOM     15  C   UNL     1      -1.363   0.163   0.109  0.00  0.00    +0.000 A 
ATOM     16  C   UNL     1      -0.642   0.236   1.308  0.00  0.00    +0.000 A 
ATOM     17  C   UNL     1       0.727  -0.036   1.326  0.00  0.00    +0.000 A 
ENDBRANCH  11  15
ENDBRANCH   1  11
TORSDOF 4
