REMARK  Name = *****
REMARK  6 active torsions:
REMARK  status: ('A' for Active; 'I' for Inactive)
REMARK    1  A    between atoms: C_3  and  C_17
REMARK    2  A    between atoms: C_6  and  C_7
REMARK    3  A    between atoms: C_7  and  C_8
REMARK    4  A    between atoms: C_8  and  C_9
REMARK    5  A    between atoms: C_12  and  C_15
REMARK    6  A    between atoms: C_17  and  N_18
REMARK                            x       y       z     vdW  Elec       q    Type
REMARK                         _______ _______ _______ _____ _____    ______ ____
ROOT
ATOM      1  C   UNL     1       1.903   2.231   0.126  0.00  0.00    +0.000 C 
ENDROOT
BRANCH   1   7
ATOM      2  C   UNL     1      -0.074   0.885  -0.688  0.00  0.00    +0.000 A 
ATOM      3  C   UNL     1      -0.943  -0.203  -0.585  0.00  0.00    +0.000 A 
ATOM      4  C   UNL     1      -0.807  -1.129   0.458  0.00  0.00    +0.000 A 
ATOM      5  C   UNL     1       0.228  -0.951   1.388  0.00  0.00    +0.000 A 
ATOM      6  C   UNL     1       1.096   0.138   1.286  0.00  0.00    +0.000 A 
ATOM      7  C   UNL     1       0.949   1.069   0.250  0.00  0.00    +0.000 A 
BRANCH   4   8
ATOM      8  C   UNL     1      -1.735  -2.311   0.566  0.00  0.00    +0.000 C 
BRANCH   8   9
ATOM      9  N   UNL     1      -1.169  -3.508  -0.120  0.00  0.00    +0.000 NA
ATOM     10  O   UNL     1      -1.084  -4.483   0.635  0.00  0.00    +0.000 OA
ENDBRANCH   8   9
ENDBRANCH   4   8
ENDBRANCH   1   7
BRANCH   1  11
ATOM     11  C   UNL     1       3.173   1.840  -0.635  0.00  0.00    +0.000 C 
BRANCH  11  12
ATOM     12  C   UNL     1       4.112   3.012  -0.791  0.00  0.00    +0.000 A 
ATOM     13  C   UNL     1       5.009   3.342   0.235  0.00  0.00    +0.000 A 
ATOM     14  C   UNL     1       5.866   4.436   0.100  0.00  0.00    +0.000 A 
ATOM     15  C   UNL     1       5.827   5.207  -1.063  0.00  0.00    +0.000 A 
ATOM     16  C   UNL     1       4.936   4.893  -2.091  0.00  0.00    +0.000 A 
ATOM     17  C   UNL     1       4.080   3.798  -1.952  0.00  0.00    +0.000 A 
BRANCH  15  18
ATOM     18  C   UNL     1       6.729   6.366  -1.216  0.00  0.00    +0.000 C 
ATOM     19  O   UNL     1       7.525   6.695  -0.345  0.00  0.00    +0.000 OA
ENDBRANCH  15  18
ENDBRANCH  11  12
ENDBRANCH   1  11
TORSDOF 6
