REMARK  Name = *****
REMARK  5 active torsions:
REMARK  status: ('A' for Active; 'I' for Inactive)
REMARK    1  A    between atoms: C_4  and  C_7
REMARK    2  A    between atoms: C_7  and  C_8
REMARK    3  A    between atoms: C_8  and  C_9
REMARK    4  A    between atoms: C_9  and  C_10
REMARK    5  A    between atoms: C_10  and  C_11
REMARK                            x       y       z     vdW  Elec       q    Type
REMARK                         _______ _______ _______ _____ _____    ______ ____
ROOT
ATOM      1  C   UNL     1      -5.112  -0.464  -0.475  0.00  0.00    +0.000 C 
ATOM      2  F   UNL     1      -5.366   0.503   0.458  0.00  0.00    +0.000 F 
ATOM      3  F   UNL     1      -5.282   0.138  -1.683  0.00  0.00    +0.000 F 
ENDROOT
BRANCH   1   4
ATOM      4  C   UNL     1      -6.125  -1.587  -0.295  0.00  0.00    +0.000 C 
ATOM      5  F   UNL     1      -5.976  -2.149   0.942  0.00  0.00    +0.000 F 
ATOM      6  F   UNL     1      -7.390  -1.066  -0.314  0.00  0.00    +0.000 F 
BRANCH   4   7
ATOM      7  C   UNL     1      -5.992  -2.646  -1.371  0.00  0.00    +0.000 C 
ATOM      8  F   UNL     1      -4.790  -3.271  -1.324  0.00  0.00    +0.000 F 
ATOM      9  F   UNL     1      -6.932  -3.614  -1.235  0.00  0.00    +0.000 F 
ATOM     10  F   UNL     1      -6.125  -2.140  -2.619  0.00  0.00    +0.000 F 
ENDBRANCH   4   7
ENDBRANCH   1   4
BRANCH   1  11
ATOM     11  C   UNL     1      -3.647  -0.872  -0.331  0.00  0.00    +0.000 C 
BRANCH  11  12
ATOM     12  C   UNL     1      -2.727   0.355  -0.363  0.00  0.00    +0.000 C 
BRANCH  12  16
ATOM     13  C   UNL     1       1.551  -0.246  -0.101  0.00  0.00    +0.000 A 
ATOM     14  C   UNL     1       0.704  -1.347   0.003  0.00  0.00    +0.000 A 
ATOM     15  C   UNL     1      -0.682  -1.181  -0.080  0.00  0.00    +0.000 A 
ATOM     16  C   UNL     1      -1.240   0.090  -0.271  0.00  0.00    +0.000 A 
ATOM     17  C   UNL     1      -0.370   1.190  -0.372  0.00  0.00    +0.000 A 
ATOM     18  C   UNL     1       1.014   1.023  -0.288  0.00  0.00    +0.000 A 
ENDBRANCH  12  16
ENDBRANCH  11  12
ENDBRANCH   1  11
TORSDOF 5
