REMARK  Name = *****
REMARK  0 active torsions:
REMARK  status: ('A' for Active; 'I' for Inactive)
REMARK                            x       y       z     vdW  Elec       q    Type
REMARK                         _______ _______ _______ _____ _____    ______ ____
ROOT
ATOM      1  C   UNL     1       0.139   1.643   0.442  0.00  0.00    +0.000 C 
ATOM      2  C   UNL     1       1.609   1.870   0.045  0.00  0.00    +0.000 C 
ATOM      3  C   UNL     1       2.586   0.919   0.759  0.00  0.00    +0.000 C 
ATOM      4  C   UNL     1       2.139  -0.548   0.632  0.00  0.00    +0.000 C 
ATOM      5  C   UNL     1       0.670  -0.774   1.030  0.00  0.00    +0.000 C 
ATOM      6  C   UNL     1      -0.307   0.176   0.315  0.00  0.00    +0.000 C 
ATOM      7  S   UNL     1      -0.441  -0.281  -1.470  0.00  0.00    +0.000 S 
ATOM      8  C   UNL     1      -2.132  -0.926  -1.425  0.00  0.00    +0.000 C 
ATOM      9  C   UNL     1      -2.920  -0.075  -0.454  0.00  0.00    +0.000 C 
ATOM     10  S   UNL     1      -1.970  -0.007   1.082  0.00  0.00    +0.000 S 
ATOM     11  S   UNL     1       4.251   1.096  -0.006  0.00  0.00    +0.000 S 
ATOM     12  C   UNL     1       4.996   2.094   1.304  0.00  0.00    +0.000 C 
ATOM     13  C   UNL     1       4.521   1.523   2.621  0.00  0.00    +0.000 C 
ATOM     14  S   UNL     1       2.718   1.388   2.541  0.00  0.00    +0.000 S 
ENDROOT
TORSDOF 0
