REMARK  Name = *****
REMARK  4 active torsions:
REMARK  status: ('A' for Active; 'I' for Inactive)
REMARK    1  A    between atoms: C_1  and  C_2
REMARK    2  A    between atoms: C_3  and  N_9
REMARK    3  A    between atoms: C_4  and  C_8
REMARK    4  A    between atoms: C_10  and  C_11
REMARK                            x       y       z     vdW  Elec       q    Type
REMARK                         _______ _______ _______ _____ _____    ______ ____
ROOT
ATOM      1  N   UNL     1       0.172   2.370   0.629  0.00  0.00    +0.000 NA
ATOM      2  C   UNL     1       0.611   3.175  -0.299  0.00  0.00    +0.000 C 
ENDROOT
BRANCH   1   5
ATOM      3  C   UNL     1       2.536   0.790   1.115  0.00  0.00    +0.000 C 
ATOM      4  C   UNL     1       1.283   0.197   0.532  0.00  0.00    +0.000 A 
ATOM      5  C   UNL     1       0.154   1.005   0.289  0.00  0.00    +0.000 A 
ATOM      6  C   UNL     1      -1.012   0.429  -0.257  0.00  0.00    +0.000 A 
ATOM      7  C   UNL     1      -1.022  -0.932  -0.592  0.00  0.00    +0.000 A 
ATOM      8  C   UNL     1       0.104  -1.723  -0.372  0.00  0.00    +0.000 A 
ATOM      9  C   UNL     1       1.251  -1.163   0.187  0.00  0.00    +0.000 A 
ATOM     10  C   UNL     1      -2.228   1.274  -0.518  0.00  0.00    +0.000 C 
ENDBRANCH   1   5
BRANCH   2  11
ATOM     11  C   UNL     1       0.698   4.649  -0.107  0.00  0.00    +0.000 C 
ATOM     12  C   UNL     1       0.266   5.171   1.130  0.00  0.00    +0.000 C 
ATOM     13  C   UNL     1       0.318   6.537   1.376  0.00  0.00    +0.000 C 
ATOM     14  C   UNL     1       0.803   7.379   0.388  0.00  0.00    +0.000 C 
ATOM     15  C   UNL     1       1.231   6.849  -0.838  0.00  0.00    +0.000 C 
ATOM     16  C   UNL     1       1.203   5.472  -1.152  0.00  0.00    +0.000 C 
ATOM     17  O   UNL     1       1.609   5.054  -2.291  0.00  0.00    +0.000 OA
ENDBRANCH   2  11
TORSDOF 2
