REMARK  Name = *****
REMARK  3 active torsions:
REMARK  status: ('A' for Active; 'I' for Inactive)
REMARK    1  A    between atoms: C_4  and  C_15
REMARK    2  A    between atoms: C_6  and  C_7
REMARK    3  A    between atoms: C_8  and  C_9
REMARK                            x       y       z     vdW  Elec       q    Type
REMARK                         _______ _______ _______ _____ _____    ______ ____
ROOT
ATOM      1  C   UNL     1       0.046  -1.451  -0.367  0.00  0.00    +0.000 C 
ATOM      2  C   UNL     1       1.264  -0.712   0.128  0.00  0.00    +0.000 C 
ATOM      3  O   UNL     1       1.153   0.694  -0.126  0.00  0.00    +0.000 OA
ATOM      4  C   UNL     1      -0.074   1.279  -0.141  0.00  0.00    +0.000 C 
ATOM      5  N   UNL     1      -1.186   0.640   0.004  0.00  0.00    +0.000 NA
ATOM      6  C   UNL     1      -1.201  -0.801   0.207  0.00  0.00    +0.000 C 
ENDROOT
BRANCH   4   7
ATOM      7  C   UNL     1      -0.039   2.803  -0.363  0.00  0.00    +0.000 C 
ATOM      8 CL   UNL     1       1.625   3.445  -0.483  0.00  0.00    +0.000 Cl
ATOM      9 CL   UNL     1      -0.907   3.169  -1.882  0.00  0.00    +0.000 Cl
ATOM     10 CL   UNL     1      -0.857   3.595   1.016  0.00  0.00    +0.000 Cl
ENDBRANCH   4   7
BRANCH   6  11
ATOM     11  C   UNL     1      -1.397  -1.066   1.677  0.00  0.00    +0.000 C 
ATOM     12  C   UNL     1      -2.429  -1.766   2.179  0.00  0.00    +0.000 C 
BRANCH  12  13
ATOM     13  C   UNL     1      -2.650  -2.023   3.610  0.00  0.00    +0.000 A 
ATOM     14  C   UNL     1      -2.250  -1.126   4.610  0.00  0.00    +0.000 A 
ATOM     15  C   UNL     1      -2.509  -1.396   5.957  0.00  0.00    +0.000 A 
ATOM     16  C   UNL     1      -3.182  -2.560   6.319  0.00  0.00    +0.000 A 
ATOM     17  C   UNL     1      -3.602  -3.452   5.335  0.00  0.00    +0.000 A 
ATOM     18  C   UNL     1      -3.341  -3.183   3.989  0.00  0.00    +0.000 A 
ENDBRANCH  12  13
ENDBRANCH   6  11
TORSDOF 3
