REMARK  Name = *****
REMARK  5 active torsions:
REMARK  status: ('A' for Active; 'I' for Inactive)
REMARK    1  A    between atoms: C_1  and  C_2
REMARK    2  A    between atoms: C_5  and  C_8
REMARK    3  A    between atoms: C_8  and  O_10
REMARK    4  A    between atoms: O_10  and  C_11
REMARK    5  A    between atoms: C_15  and  C_17
REMARK                            x       y       z     vdW  Elec       q    Type
REMARK                         _______ _______ _______ _____ _____    ______ ____
ROOT
ATOM      1  O   UNL     1      -3.403   1.412   1.400  0.00  0.00    +0.000 OA
ENDROOT
BRANCH   1   2
ATOM      2  C   UNL     1      -4.705   1.540   1.893  0.00  0.00    +0.000 A 
ATOM      3  C   UNL     1      -5.049   1.025   3.141  0.00  0.00    +0.000 A 
ATOM      4  C   UNL     1      -6.341   1.217   3.625  0.00  0.00    +0.000 A 
ATOM      5  C   UNL     1      -7.272   1.936   2.869  0.00  0.00    +0.000 A 
ATOM      6  C   UNL     1      -6.916   2.483   1.624  0.00  0.00    +0.000 A 
ATOM      7  C   UNL     1      -5.617   2.276   1.138  0.00  0.00    +0.000 A 
BRANCH   6   8
ATOM      8  C   UNL     1      -7.925   3.248   0.804  0.00  0.00    +0.000 C 
ATOM      9  F   UNL     1      -8.865   3.877   1.563  0.00  0.00    +0.000 F 
ATOM     10  F   UNL     1      -7.359   4.221   0.036  0.00  0.00    +0.000 F 
ATOM     11  F   UNL     1      -8.612   2.446  -0.055  0.00  0.00    +0.000 F 
ENDBRANCH   6   8
ENDBRANCH   1   2
BRANCH   1  12
ATOM     12  C   UNL     1      -3.036   0.122   1.060  0.00  0.00    +0.000 C 
ATOM     13  O   UNL     1      -3.725  -0.884   1.132  0.00  0.00    +0.000 OA
BRANCH  12  18
ATOM     14  C   UNL     1       2.439  -0.101  -0.856  0.00  0.00    +0.000 C 
ATOM     15  C   UNL     1       1.016  -0.024  -0.386  0.00  0.00    +0.000 A 
ATOM     16  C   UNL     1       0.467   1.202   0.010  0.00  0.00    +0.000 A 
ATOM     17  C   UNL     1      -0.849   1.273   0.479  0.00  0.00    +0.000 A 
ATOM     18  C   UNL     1      -1.629   0.113   0.568  0.00  0.00    +0.000 A 
ATOM     19  C   UNL     1      -1.074  -1.116   0.187  0.00  0.00    +0.000 A 
ATOM     20  C   UNL     1       0.241  -1.184  -0.281  0.00  0.00    +0.000 A 
ENDBRANCH  12  18
ENDBRANCH   1  12
TORSDOF 4
