REMARK  Name = *****
REMARK  8 active torsions:
REMARK  status: ('A' for Active; 'I' for Inactive)
REMARK    1  A    between atoms: C_1  and  C_2
REMARK    2  A    between atoms: C_4  and  C_20
REMARK    3  A    between atoms: C_5  and  C_8
REMARK    4  A    between atoms: C_8  and  C_9
REMARK    5  A    between atoms: C_9  and  C_10
REMARK    6  A    between atoms: C_10  and  C_12
REMARK    7  A    between atoms: C_13  and  C_19
REMARK    8  A    between atoms: C_15  and  C_18
REMARK                            x       y       z     vdW  Elec       q    Type
REMARK                         _______ _______ _______ _____ _____    ______ ____
ROOT
ATOM      1  C   UNL     1      -2.432  -2.944   0.427  0.00  0.00    +0.000 C 
ENDROOT
BRANCH   1   2
ATOM      2  C   UNL     1      -3.765  -3.667   0.405  0.00  0.00    +0.000 C 
ATOM      3  O   UNL     1      -4.330  -3.982  -0.639  0.00  0.00    +0.000 OA
BRANCH   2   4
ATOM      4  C   UNL     1      -4.359  -4.062   1.709  0.00  0.00    +0.000 A 
ATOM      5  C   UNL     1      -4.754  -5.390   1.952  0.00  0.00    +0.000 A 
ATOM      6  C   UNL     1      -5.333  -5.703   3.194  0.00  0.00    +0.000 A 
ATOM      7  C   UNL     1      -5.518  -4.722   4.179  0.00  0.00    +0.000 A 
ATOM      8  C   UNL     1      -5.106  -3.411   3.923  0.00  0.00    +0.000 A 
ATOM      9  C   UNL     1      -4.540  -3.078   2.691  0.00  0.00    +0.000 A 
ATOM     10  C   UNL     1      -6.102  -5.090   5.511  0.00  0.00    +0.000 C 
ATOM     11  C   UNL     1      -4.600  -6.473   0.921  0.00  0.00    +0.000 C 
ENDBRANCH   2   4
ENDBRANCH   1   2
BRANCH   1  12
ATOM     12  C   UNL     1      -2.345  -1.941  -0.721  0.00  0.00    +0.000 C 
BRANCH  12  17
ATOM     13  C   UNL     1       2.644   1.069  -0.419  0.00  0.00    +0.000 C 
ATOM     14  C   UNL     1       1.350   0.318  -0.517  0.00  0.00    +0.000 A 
ATOM     15  C   UNL     1       0.184   0.837   0.060  0.00  0.00    +0.000 A 
ATOM     16  C   UNL     1      -1.033   0.135   0.011  0.00  0.00    +0.000 A 
ATOM     17  C   UNL     1      -1.080  -1.115  -0.637  0.00  0.00    +0.000 A 
ATOM     18  C   UNL     1       0.098  -1.639  -1.197  0.00  0.00    +0.000 A 
ATOM     19  C   UNL     1       1.300  -0.933  -1.133  0.00  0.00    +0.000 A 
ATOM     20  C   UNL     1      -2.255   0.757   0.630  0.00  0.00    +0.000 C 
ENDBRANCH  12  17
ENDBRANCH   1  12
TORSDOF 4
