REMARK  Name = *****
REMARK  5 active torsions:
REMARK  status: ('A' for Active; 'I' for Inactive)
REMARK    1  A    between atoms: C_1  and  C_2
REMARK    2  A    between atoms: C_2  and  C_3
REMARK    3  A    between atoms: C_2  and  N_9
REMARK    4  A    between atoms: N_9  and  C_10
REMARK    5  A    between atoms: C_10  and  C_11
REMARK                            x       y       z     vdW  Elec       q    Type
REMARK                         _______ _______ _______ _____ _____    ______ ____
ROOT
ATOM      1  C   UNL     1       0.549  -0.380   0.318  0.00  0.00    +0.000 C 
ATOM      2  C   UNL     1       2.026  -0.147  -0.005  0.00  0.00    +0.000 C 
ENDROOT
BRANCH   2   3
ATOM      3  C   UNL     1       2.875  -0.349   1.238  0.00  0.00    +0.000 A 
ATOM      4  C   UNL     1       3.224  -1.636   1.676  0.00  0.00    +0.000 A 
ATOM      5  C   UNL     1       3.988  -1.813   2.830  0.00  0.00    +0.000 A 
ATOM      6  C   UNL     1       4.409  -0.707   3.564  0.00  0.00    +0.000 A 
ATOM      7  C   UNL     1       4.065   0.577   3.145  0.00  0.00    +0.000 A 
ATOM      8  C   UNL     1       3.302   0.756   1.990  0.00  0.00    +0.000 A 
ENDBRANCH   2   3
BRANCH   2   9
ATOM      9  N   UNL     1       2.389  -1.064  -1.101  0.00  0.00    +0.000 NA
BRANCH   9  10
ATOM     10  C   UNL     1       3.426  -0.691  -1.766  0.00  0.00    +0.000 C 
BRANCH  10  11
ATOM     11  C   UNL     1       3.886  -1.518  -2.866  0.00  0.00    +0.000 A 
ATOM     12  C   UNL     1       4.943  -1.157  -3.680  0.00  0.00    +0.000 A 
ATOM     13  S   UNL     1       5.271  -2.317  -4.895  0.00  0.00    +0.000 S 
ATOM     14  C   UNL     1       4.005  -3.326  -4.349  0.00  0.00    +0.000 A 
ATOM     15  C   UNL     1       3.347  -2.785  -3.267  0.00  0.00    +0.000 A 
ENDBRANCH  10  11
ENDBRANCH   9  10
ENDBRANCH   2   9
TORSDOF 4
