REMARK  Name = *****
REMARK  4 active torsions:
REMARK  status: ('A' for Active; 'I' for Inactive)
REMARK    1  A    between atoms: C_1  and  C_2
REMARK    2  A    between atoms: C_4  and  N_9
REMARK    3  A    between atoms: C_5  and  C_8
REMARK    4  A    between atoms: C_10  and  C_12
REMARK                            x       y       z     vdW  Elec       q    Type
REMARK                         _______ _______ _______ _____ _____    ______ ____
ROOT
ATOM      1  N   UNL     1      -1.147   2.626  -0.010  0.00  0.00    +0.000 N 
ATOM      2  C   UNL     1      -0.521   3.861   0.023  0.00  0.00    +0.000 C 
ATOM      3  O   UNL     1       0.684   4.079   0.013  0.00  0.00    +0.000 OA
ATOM      4  H   UNL     1      -2.131   2.641  -0.055  0.00  0.00    +0.000 HD
ENDROOT
BRANCH   1   8
ATOM      5  C   UNL     1       2.919  -0.273   0.068  0.00  0.00    +0.000 C 
ATOM      6  C   UNL     1       1.428  -0.108   0.044  0.00  0.00    +0.000 A 
ATOM      7  C   UNL     1       0.846   1.169   0.044  0.00  0.00    +0.000 A 
ATOM      8  C   UNL     1      -0.545   1.343   0.014  0.00  0.00    +0.000 A 
ATOM      9  C   UNL     1      -1.373   0.198   0.011  0.00  0.00    +0.000 A 
ATOM     10  C   UNL     1      -0.783  -1.079   0.002  0.00  0.00    +0.000 A 
ATOM     11  C   UNL     1       0.602  -1.231   0.021  0.00  0.00    +0.000 A 
ATOM     12  C   UNL     1      -2.876   0.271  -0.020  0.00  0.00    +0.000 C 
ENDBRANCH   1   8
BRANCH   2  13
ATOM     13  C   UNL     1      -1.436   5.040   0.046  0.00  0.00    +0.000 A 
ATOM     14  C   UNL     1      -2.687   5.000   0.675  0.00  0.00    +0.000 A 
ATOM     15  C   UNL     1      -3.493   6.139   0.673  0.00  0.00    +0.000 A 
ATOM     16  C   UNL     1      -3.064   7.318   0.066  0.00  0.00    +0.000 A 
ATOM     17  C   UNL     1      -1.810   7.367  -0.542  0.00  0.00    +0.000 A 
ATOM     18  C   UNL     1      -0.997   6.232  -0.549  0.00  0.00    +0.000 A 
ATOM     19 CL   UNL     1      -5.035   6.088   1.437  0.00  0.00    +0.000 Cl
ENDBRANCH   2  13
TORSDOF 2
