REMARK  Name = *****
REMARK  2 active torsions:
REMARK  status: ('A' for Active; 'I' for Inactive)
REMARK    1  A    between atoms: C_3  and  C_8
REMARK    2  A    between atoms: C_9  and  C_10
REMARK                            x       y       z     vdW  Elec       q    Type
REMARK                         _______ _______ _______ _____ _____    ______ ____
ROOT
ATOM      1  C   UNL     1      -1.872  -2.529  -0.073  0.00  0.00    +0.000 C 
ATOM      2  C   UNL     1      -3.188  -2.714   0.126  0.00  0.00    +0.000 C 
ENDROOT
BRANCH   1   5
ATOM      3  C   UNL     1      -1.159   1.266  -0.319  0.00  0.00    +0.000 C 
ATOM      4  C   UNL     1      -1.955   0.032   0.106  0.00  0.00    +0.000 C 
ATOM      5  C   UNL     1      -1.164  -1.252  -0.023  0.00  0.00    +0.000 C 
ATOM      6  C   UNL     1       0.179  -1.249  -0.104  0.00  0.00    +0.000 C 
ATOM      7  C   UNL     1       0.961   0.007   0.015  0.00  0.00    +0.000 C 
ATOM      8  O   UNL     1       2.186  -0.038  -0.058  0.00  0.00    +0.000 OA
ATOM      9  C   UNL     1       0.220   1.287   0.314  0.00  0.00    +0.000 C 
ENDBRANCH   1   5
BRANCH   2  10
ATOM     10  C   UNL     1      -3.852  -4.026   0.066  0.00  0.00    +0.000 A 
ATOM     11  C   UNL     1      -3.257  -5.191   0.569  0.00  0.00    +0.000 A 
ATOM     12  C   UNL     1      -3.942  -6.407   0.518  0.00  0.00    +0.000 A 
ATOM     13  C   UNL     1      -5.225  -6.477  -0.020  0.00  0.00    +0.000 A 
ATOM     14  C   UNL     1      -5.831  -5.321  -0.507  0.00  0.00    +0.000 A 
ATOM     15  C   UNL     1      -5.150  -4.102  -0.459  0.00  0.00    +0.000 A 
ATOM     16 CL   UNL     1      -3.197  -7.832   1.132  0.00  0.00    +0.000 Cl
ENDBRANCH   2  10
TORSDOF 2
