REMARK  Name = *****
REMARK  2 active torsions:
REMARK  status: ('A' for Active; 'I' for Inactive)
REMARK    1  A    between atoms: C_2  and  C_3
REMARK    2  A    between atoms: C_2  and  N_9
REMARK                            x       y       z     vdW  Elec       q    Type
REMARK                         _______ _______ _______ _____ _____    ______ ____
ROOT
ATOM      1  N   UNL     1       4.269  -0.083  -1.398  0.00  0.00    +0.000 N 
ATOM      2  C   UNL     1       5.666  -0.214  -1.512  0.00  0.00    +0.000 A 
ATOM      3  C   UNL     1       6.719  -0.405  -0.598  0.00  0.00    +0.000 A 
ATOM      4  C   UNL     1       8.022  -0.488  -1.104  0.00  0.00    +0.000 A 
ATOM      5  C   UNL     1       8.275  -0.387  -2.470  0.00  0.00    +0.000 A 
ATOM      6  C   UNL     1       7.224  -0.199  -3.371  0.00  0.00    +0.000 A 
ATOM      7  C   UNL     1       5.913  -0.115  -2.878  0.00  0.00    +0.000 A 
ATOM      8  N   UNL     1       4.748   0.059  -3.551  0.00  0.00    +0.000 NA
ATOM      9  N   UNL     1       3.765   0.074  -2.669  0.00  0.00    +0.000 NA
ENDROOT
BRANCH   1  11
ATOM     10  C   UNL     1       2.120   0.030  -0.281  0.00  0.00    +0.000 C 
ATOM     11  C   UNL     1       3.462  -0.097  -0.229  0.00  0.00    +0.000 C 
BRANCH  11  12
ATOM     12  C   UNL     1       4.013  -0.244   1.130  0.00  0.00    +0.000 A 
ATOM     13  C   UNL     1       4.116  -1.513   1.718  0.00  0.00    +0.000 A 
ATOM     14  C   UNL     1       4.623  -1.647   3.012  0.00  0.00    +0.000 A 
ATOM     15  C   UNL     1       5.019  -0.517   3.728  0.00  0.00    +0.000 A 
ATOM     16  C   UNL     1       4.906   0.749   3.154  0.00  0.00    +0.000 A 
ATOM     17  C   UNL     1       4.400   0.887   1.861  0.00  0.00    +0.000 A 
ENDBRANCH  11  12
ENDBRANCH   1  11
TORSDOF 2
