REMARK  Name = *****
REMARK  2 active torsions:
REMARK  status: ('A' for Active; 'I' for Inactive)
REMARK    1  A    between atoms: C_6  and  N_7
REMARK    2  A    between atoms: C_8  and  C_9
REMARK                            x       y       z     vdW  Elec       q    Type
REMARK                         _______ _______ _______ _____ _____    ______ ____
ROOT
ATOM      1  N   UNL     1       3.869  -0.057   0.099  0.00  0.00    +0.000 NA
ATOM      2  C   UNL     1       4.525   1.058   0.009  0.00  0.00    +0.000 C 
ENDROOT
BRANCH   2   3
ATOM      3  C   UNL     1       5.996   1.092   0.061  0.00  0.00    +0.000 A 
ATOM      4  C   UNL     1       6.647   2.323  -0.026  0.00  0.00    +0.000 A 
ATOM      5  C   UNL     1       8.034   2.398   0.020  0.00  0.00    +0.000 A 
ATOM      6  C   UNL     1       8.767   1.225   0.152  0.00  0.00    +0.000 A 
ATOM      7  C   UNL     1       8.137  -0.014   0.241  0.00  0.00    +0.000 A 
ATOM      8  C   UNL     1       6.743  -0.084   0.195  0.00  0.00    +0.000 A 
ATOM      9  F   UNL     1      10.104   1.287   0.197  0.00  0.00    +0.000 F 
ATOM     10  F   UNL     1       5.944   3.458  -0.154  0.00  0.00    +0.000 F 
ENDBRANCH   2   3
BRANCH   1  16
ATOM     11  C   UNL     1       1.729   0.308   1.190  0.00  0.00    +0.000 A 
ATOM     12  C   UNL     1       0.335   0.393   1.127  0.00  0.00    +0.000 A 
ATOM     13  C   UNL     1      -0.313   0.204  -0.092  0.00  0.00    +0.000 A 
ATOM     14  C   UNL     1       0.418  -0.074  -1.246  0.00  0.00    +0.000 A 
ATOM     15  C   UNL     1       1.811  -0.157  -1.178  0.00  0.00    +0.000 A 
ATOM     16  C   UNL     1       2.474   0.046   0.036  0.00  0.00    +0.000 A 
ATOM     17 CL   UNL     1      -2.029   0.307  -0.172  0.00  0.00    +0.000 Cl
ENDBRANCH   1  16
TORSDOF 2
