REMARK  Name = *****
REMARK  4 active torsions:
REMARK  status: ('A' for Active; 'I' for Inactive)
REMARK    1  A    between atoms: C_4  and  C_7
REMARK    2  A    between atoms: C_7  and  C_8
REMARK    3  A    between atoms: C_8  and  C_9
REMARK    4  A    between atoms: C_11  and  C_16
REMARK                            x       y       z     vdW  Elec       q    Type
REMARK                         _______ _______ _______ _____ _____    ______ ____
ROOT
ATOM      1  C   UNL     1      -5.097  -0.552  -0.406  0.00  0.00    +0.000 A 
ATOM      2  C   UNL     1      -5.896  -0.506   0.748  0.00  0.00    +0.000 A 
ATOM      3  C   UNL     1      -7.272  -0.257   0.649  0.00  0.00    +0.000 A 
ATOM      4  C   UNL     1      -7.840  -0.052  -0.605  0.00  0.00    +0.000 A 
ATOM      5  C   UNL     1      -7.059  -0.089  -1.757  0.00  0.00    +0.000 A 
ATOM      6  C   UNL     1      -5.689  -0.336  -1.658  0.00  0.00    +0.000 A 
ATOM      7  F   UNL     1      -9.153   0.189  -0.727  0.00  0.00    +0.000 F 
ENDROOT
BRANCH   3   8
ATOM      8  C   UNL     1      -8.083  -0.213   1.825  0.00  0.00    +0.000 C 
ATOM      9  N   UNL     1      -8.712  -0.183   2.800  0.00  0.00    +0.000 NA
ENDBRANCH   3   8
BRANCH   1  10
ATOM     10  C   UNL     1      -3.611  -0.802  -0.296  0.00  0.00    +0.000 C 
BRANCH  10  11
ATOM     11  C   UNL     1      -2.827   0.506  -0.152  0.00  0.00    +0.000 C 
BRANCH  11  15
ATOM     12  C   UNL     1       1.397  -0.267   0.236  0.00  0.00    +0.000 A 
ATOM     13  C   UNL     1       0.833  -0.095  -1.027  0.00  0.00    +0.000 A 
ATOM     14  C   UNL     1      -0.533   0.161  -1.153  0.00  0.00    +0.000 A 
ATOM     15  C   UNL     1      -1.346   0.251  -0.016  0.00  0.00    +0.000 A 
ATOM     16  C   UNL     1      -0.770   0.071   1.249  0.00  0.00    +0.000 A 
ATOM     17  C   UNL     1       0.596  -0.185   1.373  0.00  0.00    +0.000 A 
ENDBRANCH  11  15
ENDBRANCH  10  11
ENDBRANCH   1  10
TORSDOF 4
