REMARK  Name = *****
REMARK  3 active torsions:
REMARK  status: ('A' for Active; 'I' for Inactive)
REMARK    1  A    between atoms: C_4  and  C_7
REMARK    2  A    between atoms: C_8  and  C_9
REMARK    3  A    between atoms: C_12  and  C_15
REMARK                            x       y       z     vdW  Elec       q    Type
REMARK                         _______ _______ _______ _____ _____    ______ ____
ROOT
ATOM      1  C   UNL     1       6.124   0.042  -0.674  0.00  0.00    +0.000 C 
ATOM      2  C   UNL     1       6.984  -0.990  -0.744  0.00  0.00    +0.000 C 
ENDROOT
BRANCH   1   6
ATOM      3  C   UNL     1       1.931  -0.101   0.224  0.00  0.00    +0.000 A 
ATOM      4  C   UNL     1       2.577  -1.258  -0.206  0.00  0.00    +0.000 A 
ATOM      5  C   UNL     1       3.947  -1.235  -0.487  0.00  0.00    +0.000 A 
ATOM      6  C   UNL     1       4.692  -0.058  -0.332  0.00  0.00    +0.000 A 
ATOM      7  C   UNL     1       4.025   1.099   0.099  0.00  0.00    +0.000 A 
ATOM      8  C   UNL     1       2.655   1.078   0.376  0.00  0.00    +0.000 A 
ENDBRANCH   1   6
BRANCH   2   9
ATOM      9  C   UNL     1       8.404  -0.893  -1.132  0.00  0.00    +0.000 A 
ATOM     10  C   UNL     1       9.146   0.294  -1.050  0.00  0.00    +0.000 A 
ATOM     11  C   UNL     1      10.494   0.325  -1.430  0.00  0.00    +0.000 A 
ATOM     12  C   UNL     1      11.124  -0.835  -1.885  0.00  0.00    +0.000 A 
ATOM     13  C   UNL     1      10.401  -2.028  -1.953  0.00  0.00    +0.000 A 
ATOM     14  C   UNL     1       9.054  -2.055  -1.576  0.00  0.00    +0.000 A 
BRANCH  12  15
ATOM     15  C   UNL     1      12.502  -0.802  -2.278  0.00  0.00    +0.000 C 
ATOM     16  N   UNL     1      13.617  -0.775  -2.597  0.00  0.00    +0.000 NA
ENDBRANCH  12  15
ENDBRANCH   2   9
TORSDOF 3
