REMARK  Name = *****
REMARK  5 active torsions:
REMARK  status: ('A' for Active; 'I' for Inactive)
REMARK    1  A    between atoms: C_1  and  O_2
REMARK    2  A    between atoms: O_2  and  C_3
REMARK    3  A    between atoms: C_6  and  C_9
REMARK    4  A    between atoms: C_9  and  C_10
REMARK    5  A    between atoms: C_10  and  C_11
REMARK                            x       y       z     vdW  Elec       q    Type
REMARK                         _______ _______ _______ _____ _____    ______ ____
ROOT
ATOM      1  C   UNL     1       2.998  -1.100   0.160  0.00  0.00    +0.000 A 
ATOM      2  C   UNL     1       2.679  -1.658   1.397  0.00  0.00    +0.000 A 
ATOM      3  C   UNL     1       3.500  -2.643   1.958  0.00  0.00    +0.000 A 
ATOM      4  C   UNL     1       4.651  -3.080   1.290  0.00  0.00    +0.000 A 
ATOM      5  C   UNL     1       4.963  -2.522   0.046  0.00  0.00    +0.000 A 
ATOM      6  C   UNL     1       4.142  -1.538  -0.510  0.00  0.00    +0.000 A 
ENDROOT
BRANCH   1   8
ATOM      7  C   UNL     1       1.107   0.340   0.143  0.00  0.00    +0.000 C 
ATOM      8  O   UNL     1       2.285  -0.135  -0.497  0.00  0.00    +0.000 OA
ENDBRANCH   1   8
BRANCH   4   9
ATOM      9  C   UNL     1       5.523  -4.156   1.891  0.00  0.00    +0.000 C 
BRANCH   9  10
ATOM     10  C   UNL     1       4.971  -5.556   1.598  0.00  0.00    +0.000 C 
BRANCH  10  11
ATOM     11  C   UNL     1       5.899  -6.694   2.072  0.00  0.00    +0.000 C 
ATOM     12  C   UNL     1       5.406  -8.029   1.472  0.00  0.00    +0.000 C 
ATOM     13  C   UNL     1       6.098  -9.227   2.116  0.00  0.00    +0.000 C 
ATOM     14  C   UNL     1       5.840  -9.267   3.622  0.00  0.00    +0.000 C 
ATOM     15  C   UNL     1       5.971  -7.920   4.268  0.00  0.00    +0.000 C 
ATOM     16  C   UNL     1       6.014  -6.770   3.578  0.00  0.00    +0.000 C 
ENDBRANCH  10  11
ENDBRANCH   9  10
ENDBRANCH   4   9
TORSDOF 4
