REMARK  Name = *****
REMARK  1 active torsions:
REMARK  status: ('A' for Active; 'I' for Inactive)
REMARK    1  A    between atoms: C_8  and  C_9
REMARK                            x       y       z     vdW  Elec       q    Type
REMARK                         _______ _______ _______ _____ _____    ______ ____
ROOT
ATOM      1  C   UNL     1      -1.537   0.867   0.208  0.00  0.00    +0.000 C 
ATOM      2  C   UNL     1      -0.343   1.516  -0.491  0.00  0.00    +0.000 C 
ATOM      3  C   UNL     1       0.977   1.102   0.162  0.00  0.00    +0.000 C 
ATOM      4  C   UNL     1       1.087  -0.368   0.417  0.00  0.00    +0.000 C 
ATOM      5  C   UNL     1      -0.204  -1.259   0.396  0.00  0.00    +0.000 C 
ATOM      6  C   UNL     1      -1.528  -0.653   0.042  0.00  0.00    +0.000 C 
ATOM      7  C   UNL     1       0.826  -1.332  -0.576  0.00  0.00    +0.000 C 
ATOM      8  C   UNL     1       1.219  -1.932  -1.682  0.00  0.00    +0.000 C 
ENDROOT
BRANCH   8   9
ATOM      9  C   UNL     1       2.459  -1.639  -2.413  0.00  0.00    +0.000 A 
ATOM     10  C   UNL     1       3.615  -1.155  -1.787  0.00  0.00    +0.000 A 
ATOM     11  C   UNL     1       4.780  -0.918  -2.521  0.00  0.00    +0.000 A 
ATOM     12  C   UNL     1       4.808  -1.171  -3.890  0.00  0.00    +0.000 A 
ATOM     13  C   UNL     1       3.671  -1.667  -4.525  0.00  0.00    +0.000 A 
ATOM     14  C   UNL     1       2.506  -1.903  -3.790  0.00  0.00    +0.000 A 
ENDBRANCH   8   9
TORSDOF 1
