REMARK  Name = *****
REMARK  4 active torsions:
REMARK  status: ('A' for Active; 'I' for Inactive)
REMARK    1  A    between atoms: C_1  and  C_2
REMARK    2  A    between atoms: C_6  and  C_9
REMARK    3  A    between atoms: C_9  and  S_10
REMARK    4  A    between atoms: S_10  and  C_11
REMARK                            x       y       z     vdW  Elec       q    Type
REMARK                         _______ _______ _______ _____ _____    ______ ____
ROOT
ATOM      1  C   UNL     1       0.905   0.191   0.297  0.00  0.00    +0.000 C 
ATOM      2  C   UNL     1       2.405  -0.009   0.110  0.00  0.00    +0.000 C 
ATOM      3  C   UNL     1       3.037   1.030  -0.817  0.00  0.00    +0.000 C 
ATOM      4  C   UNL     1       2.703   0.801  -2.288  0.00  0.00    +0.000 C 
ATOM      5  C   UNL     1       3.094  -0.609  -2.727  0.00  0.00    +0.000 C 
ATOM      6  C   UNL     1       2.401  -1.686  -1.881  0.00  0.00    +0.000 C 
ATOM      7  C   UNL     1       2.687  -1.414  -0.404  0.00  0.00    +0.000 C 
ATOM      8  O   UNL     1       3.045  -2.301   0.372  0.00  0.00    +0.000 OA
ENDROOT
BRANCH   6   9
ATOM      9  C   UNL     1       2.848  -3.111  -2.242  0.00  0.00    +0.000 C 
BRANCH   9  10
ATOM     10  S   UNL     1       2.330  -3.586  -3.933  0.00  0.00    +0.000 S 
BRANCH  10  11
ATOM     11  C   UNL     1       3.152  -5.163  -4.073  0.00  0.00    +0.000 A 
ATOM     12  C   UNL     1       2.880  -6.212  -3.189  0.00  0.00    +0.000 A 
ATOM     13  C   UNL     1       3.530  -7.440  -3.331  0.00  0.00    +0.000 A 
ATOM     14  C   UNL     1       4.449  -7.628  -4.362  0.00  0.00    +0.000 A 
ATOM     15  C   UNL     1       4.715  -6.592  -5.255  0.00  0.00    +0.000 A 
ATOM     16  C   UNL     1       4.065  -5.364  -5.114  0.00  0.00    +0.000 A 
ENDBRANCH  10  11
ENDBRANCH   9  10
ENDBRANCH   6   9
TORSDOF 3
