REMARK  Name = *****
REMARK  2 active torsions:
REMARK  status: ('A' for Active; 'I' for Inactive)
REMARK    1  A    between atoms: C_2  and  C_12
REMARK    2  A    between atoms: C_4  and  C_6
REMARK                            x       y       z     vdW  Elec       q    Type
REMARK                         _______ _______ _______ _____ _____    ______ ____
ROOT
ATOM      1  C   UNL     1      -1.241  -1.264  -0.321  0.00  0.00    +0.000 C 
ATOM      2  C   UNL     1       0.283  -1.157  -0.015  0.00  0.00    +0.000 C 
ATOM      3  C   UNL     1       0.154   0.330  -0.106  0.00  0.00    +0.000 C 
ATOM      4  C   UNL     1      -1.330   0.222  -0.226  0.00  0.00    +0.000 C 
ATOM      5  C   UNL     1      -0.553   1.104  -1.174  0.00  0.00    +0.000 C 
ENDROOT
BRANCH   4   6
ATOM      6  C   UNL     1      -2.296   0.843   0.745  0.00  0.00    +0.000 A 
ATOM      7  C   UNL     1      -3.468   1.463   0.281  0.00  0.00    +0.000 A 
ATOM      8  C   UNL     1      -4.389   2.040   1.160  0.00  0.00    +0.000 A 
ATOM      9  C   UNL     1      -4.157   2.004   2.532  0.00  0.00    +0.000 A 
ATOM     10  C   UNL     1      -3.008   1.392   3.021  0.00  0.00    +0.000 A 
ATOM     11  C   UNL     1      -2.090   0.818   2.136  0.00  0.00    +0.000 A 
ENDBRANCH   4   6
BRANCH   2  12
ATOM     12  C   UNL     1       1.317  -1.795  -1.035  0.00  0.00    +0.000 A 
ATOM     13  C   UNL     1       2.431  -1.095  -1.543  0.00  0.00    +0.000 A 
ATOM     14  C   UNL     1       3.338  -1.681  -2.432  0.00  0.00    +0.000 A 
ATOM     15  C   UNL     1       3.162  -2.998  -2.839  0.00  0.00    +0.000 A 
ATOM     16  C   UNL     1       2.082  -3.726  -2.354  0.00  0.00    +0.000 A 
ATOM     17  C   UNL     1       1.180  -3.132  -1.466  0.00  0.00    +0.000 A 
ENDBRANCH   2  12
TORSDOF 2
