REMARK  Name = *****
REMARK  5 active torsions:
REMARK  status: ('A' for Active; 'I' for Inactive)
REMARK    1  A    between atoms: C_1  and  O_2
REMARK    2  A    between atoms: O_2  and  C_3
REMARK    3  A    between atoms: C_3  and  C_12
REMARK    4  A    between atoms: C_4  and  C_5
REMARK    5  A    between atoms: C_5  and  C_6
REMARK                            x       y       z     vdW  Elec       q    Type
REMARK                         _______ _______ _______ _____ _____    ______ ____
ROOT
ATOM      1  C   UNL     1       3.025  -0.113  -1.519  0.00  0.00    +0.000 C 
ATOM      2  C   UNL     1       2.460  -0.836  -2.500  0.00  0.00    +0.000 C 
ENDROOT
BRANCH   1   3
ATOM      3  C   UNL     1       4.468  -0.217  -1.219  0.00  0.00    +0.000 A 
ATOM      4  C   UNL     1       5.251   0.943  -1.133  0.00  0.00    +0.000 A 
ATOM      5  C   UNL     1       6.614   0.861  -0.839  0.00  0.00    +0.000 A 
ATOM      6  C   UNL     1       7.207  -0.382  -0.624  0.00  0.00    +0.000 A 
ATOM      7  C   UNL     1       6.439  -1.542  -0.701  0.00  0.00    +0.000 A 
ATOM      8  C   UNL     1       5.076  -1.461  -0.995  0.00  0.00    +0.000 A 
ENDBRANCH   1   3
BRANCH   1  10
ATOM      9  C   UNL     1       2.216   0.552   0.559  0.00  0.00    +0.000 C 
ATOM     10  O   UNL     1       2.304   0.849  -0.835  0.00  0.00    +0.000 OA
ENDBRANCH   1  10
BRANCH   2  11
ATOM     11  C   UNL     1       1.021  -0.747  -2.921  0.00  0.00    +0.000 C 
BRANCH  11  12
ATOM     12  C   UNL     1       0.285  -2.047  -2.696  0.00  0.00    +0.000 A 
ATOM     13  C   UNL     1      -0.314  -2.315  -1.457  0.00  0.00    +0.000 A 
ATOM     14  C   UNL     1      -0.978  -3.523  -1.237  0.00  0.00    +0.000 A 
ATOM     15  C   UNL     1      -1.044  -4.476  -2.252  0.00  0.00    +0.000 A 
ATOM     16  C   UNL     1      -0.445  -4.224  -3.484  0.00  0.00    +0.000 A 
ATOM     17  C   UNL     1       0.219  -3.017  -3.706  0.00  0.00    +0.000 A 
ENDBRANCH  11  12
ENDBRANCH   2  11
TORSDOF 4
