REMARK  Name = *****
REMARK  4 active torsions:
REMARK  status: ('A' for Active; 'I' for Inactive)
REMARK    1  A    between atoms: C_1  and  C_2
REMARK    2  A    between atoms: C_5  and  C_7
REMARK    3  A    between atoms: C_5  and  C_8
REMARK    4  A    between atoms: C_9  and  C_10
REMARK                            x       y       z     vdW  Elec       q    Type
REMARK                         _______ _______ _______ _____ _____    ______ ____
ROOT
ATOM      1  C   UNL     1       5.716   0.510  -0.190  0.00  0.00    +0.000 C 
ATOM      2  C   UNL     1       6.978   0.920   0.033  0.00  0.00    +0.000 C 
ENDROOT
BRANCH   1   7
ATOM      3  C   UNL     1       0.613   0.434   0.149  0.00  0.00    +0.000 C 
ATOM      4  C   UNL     1       2.052  -0.026  -0.042  0.00  0.00    +0.000 C 
ATOM      5  C   UNL     1       2.374  -1.238   0.818  0.00  0.00    +0.000 C 
ATOM      6  S   UNL     1       4.156  -1.514   0.704  0.00  0.00    +0.000 S 
ATOM      7  C   UNL     1       4.646   0.248   0.843  0.00  0.00    +0.000 C 
ATOM      8  S   UNL     1       3.201   1.307   0.428  0.00  0.00    +0.000 S 
ATOM      9  C   UNL     1       5.030   0.528   2.300  0.00  0.00    +0.000 C 
ENDBRANCH   1   7
BRANCH   2  10
ATOM     10  C   UNL     1       7.951   1.149  -1.043  0.00  0.00    +0.000 A 
ATOM     11  C   UNL     1       7.618   1.862  -2.202  0.00  0.00    +0.000 A 
ATOM     12  C   UNL     1       8.575   2.089  -3.194  0.00  0.00    +0.000 A 
ATOM     13  C   UNL     1       9.874   1.613  -3.033  0.00  0.00    +0.000 A 
ATOM     14  C   UNL     1      10.220   0.914  -1.877  0.00  0.00    +0.000 A 
ATOM     15  C   UNL     1       9.263   0.688  -0.884  0.00  0.00    +0.000 A 
ENDBRANCH   2  10
TORSDOF 2
