REMARK  Name = *****
REMARK  5 active torsions:
REMARK  status: ('A' for Active; 'I' for Inactive)
REMARK    1  A    between atoms: C_1  and  C_2
REMARK    2  A    between atoms: C_3  and  C_18
REMARK    3  A    between atoms: C_5  and  N_8
REMARK    4  A    between atoms: N_8  and  C_9
REMARK    5  A    between atoms: C_10  and  C_12
REMARK                            x       y       z     vdW  Elec       q    Type
REMARK                         _______ _______ _______ _____ _____    ______ ____
ROOT
ATOM      1  N   UNL     1      -3.195  -1.332  -0.305  0.00  0.00    +0.000 N 
ATOM      2  C   UNL     1      -3.118  -2.780  -0.533  0.00  0.00    +0.000 C 
ATOM      3  C   UNL     1      -4.442  -0.674  -0.271  0.00  0.00    +0.000 C 
ATOM      4  O   UNL     1      -4.649   0.536  -0.222  0.00  0.00    +0.000 OA
ENDROOT
BRANCH   1   9
ATOM      5  C   UNL     1       1.888   1.375   0.451  0.00  0.00    +0.000 C 
ATOM      6  C   UNL     1       0.558   0.705   0.250  0.00  0.00    +0.000 A 
ATOM      7  C   UNL     1      -0.590   1.433  -0.099  0.00  0.00    +0.000 A 
ATOM      8  C   UNL     1      -1.818   0.757  -0.274  0.00  0.00    +0.000 A 
ATOM      9  C   UNL     1      -1.941  -0.631  -0.124  0.00  0.00    +0.000 A 
ATOM     10  C   UNL     1      -0.773  -1.333   0.217  0.00  0.00    +0.000 A 
ATOM     11  C   UNL     1       0.453  -0.680   0.401  0.00  0.00    +0.000 A 
ATOM     12  C   UNL     1      -0.545   2.927  -0.282  0.00  0.00    +0.000 C 
ENDBRANCH   1   9
BRANCH   3  13
ATOM     13  C   UNL     1      -5.668  -1.504  -0.248  0.00  0.00    +0.000 A 
ATOM     14  C   UNL     1      -5.953  -2.310   0.860  0.00  0.00    +0.000 A 
ATOM     15  C   UNL     1      -7.122  -3.071   0.873  0.00  0.00    +0.000 A 
ATOM     16  C   UNL     1      -8.004  -3.014  -0.208  0.00  0.00    +0.000 A 
ATOM     17  C   UNL     1      -7.728  -2.189  -1.300  0.00  0.00    +0.000 A 
ATOM     18  C   UNL     1      -6.562  -1.425  -1.320  0.00  0.00    +0.000 A 
ENDBRANCH   3  13
TORSDOF 2
