REMARK  Name = *****
REMARK  3 active torsions:
REMARK  status: ('A' for Active; 'I' for Inactive)
REMARK    1  A    between atoms: C_1  and  C_2
REMARK    2  A    between atoms: C_4  and  C_7
REMARK    3  A    between atoms: C_8  and  C_9
REMARK                            x       y       z     vdW  Elec       q    Type
REMARK                         _______ _______ _______ _____ _____    ______ ____
ROOT
ATOM      1  C   UNL     1       5.843   1.464   0.021  0.00  0.00    +0.000 C 
ATOM      2  C   UNL     1       6.755   2.245   0.030  0.00  0.00    +0.000 C 
ENDROOT
BRANCH   2   3
ATOM      3  C   UNL     1       7.834   3.183   0.041  0.00  0.00    +0.000 A 
ATOM      4  C   UNL     1       9.153   2.729   0.056  0.00  0.00    +0.000 A 
ATOM      5  C   UNL     1      10.193   3.653   0.066  0.00  0.00    +0.000 A 
ATOM      6  C   UNL     1       9.944   5.021   0.061  0.00  0.00    +0.000 A 
ATOM      7  C   UNL     1       8.626   5.466   0.046  0.00  0.00    +0.000 A 
ATOM      8  C   UNL     1       7.567   4.555   0.036  0.00  0.00    +0.000 A 
ATOM      9 BR   UNL     1       8.265   7.322   0.039  0.00  0.00    +0.000 Br
ATOM     10  F   UNL     1      11.459   3.216   0.081  0.00  0.00    +0.000 F 
ENDBRANCH   2   3
BRANCH   1  14
ATOM     11  C   UNL     1       1.139   0.185  -0.002  0.00  0.00    +0.000 C 
ATOM     12  C   UNL     1       2.620   0.032   0.001  0.00  0.00    +0.000 A 
ATOM     13  N   UNL     1       3.472   1.035   0.011  0.00  0.00    +0.000 NA
ATOM     14  C   UNL     1       4.757   0.541   0.011  0.00  0.00    +0.000 A 
ATOM     15  C   UNL     1       4.882  -0.829   0.001  0.00  0.00    +0.000 A 
ATOM     16  S   UNL     1       3.322  -1.540  -0.009  0.00  0.00    +0.000 S 
ENDBRANCH   1  14
TORSDOF 2
