REMARK  Name = *****
REMARK  4 active torsions:
REMARK  status: ('A' for Active; 'I' for Inactive)
REMARK    1  A    between atoms: C_1  and  C_2
REMARK    2  A    between atoms: C_2  and  C_3
REMARK    3  A    between atoms: C_2  and  O_9
REMARK    4  A    between atoms: O_9  and  C_10
REMARK                            x       y       z     vdW  Elec       q    Type
REMARK                         _______ _______ _______ _____ _____    ______ ____
ROOT
ATOM      1  C   UNL     1       2.886   1.538  -0.419  0.00  0.00    +0.000 C 
ATOM      2  C   UNL     1       2.490   0.131   0.031  0.00  0.00    +0.000 C 
ENDROOT
BRANCH   2   3
ATOM      3  C   UNL     1       0.975   0.019   0.130  0.00  0.00    +0.000 A 
ATOM      4  C   UNL     1       0.264   0.655   1.161  0.00  0.00    +0.000 A 
ATOM      5  C   UNL     1      -1.127   0.558   1.232  0.00  0.00    +0.000 A 
ATOM      6  C   UNL     1      -1.825  -0.175   0.275  0.00  0.00    +0.000 A 
ATOM      7  C   UNL     1      -1.134  -0.811  -0.754  0.00  0.00    +0.000 A 
ATOM      8  C   UNL     1       0.258  -0.714  -0.827  0.00  0.00    +0.000 A 
ENDBRANCH   2   3
BRANCH   2   9
ATOM      9  O   UNL     1       3.038  -0.136   1.328  0.00  0.00    +0.000 OA
BRANCH   9  10
ATOM     10  C   UNL     1       4.236  -0.787   1.419  0.00  0.00    +0.000 A 
ATOM     11  C   UNL     1       5.172  -0.943   0.397  0.00  0.00    +0.000 A 
ATOM     12  C   UNL     1       6.368  -1.627   0.637  0.00  0.00    +0.000 A 
ATOM     13  C   UNL     1       6.637  -2.151   1.900  0.00  0.00    +0.000 A 
ATOM     14  C   UNL     1       5.711  -1.989   2.928  0.00  0.00    +0.000 A 
ATOM     15  C   UNL     1       4.519  -1.305   2.686  0.00  0.00    +0.000 A 
ENDBRANCH   9  10
ENDBRANCH   2   9
TORSDOF 3
