REMARK  Name = *****
REMARK  3 active torsions:
REMARK  status: ('A' for Active; 'I' for Inactive)
REMARK    1  A    between atoms: C_4  and  C_7
REMARK    2  A    between atoms: C_7  and  C_8
REMARK    3  A    between atoms: C_8  and  C_9
REMARK                            x       y       z     vdW  Elec       q    Type
REMARK                         _______ _______ _______ _____ _____    ______ ____
ROOT
ATOM      1  C   UNL     1      -2.707   0.932   0.056  0.00  0.00    +0.000 C 
ATOM      2  F   UNL     1      -3.579  -0.035   0.492  0.00  0.00    +0.000 F 
ENDROOT
BRANCH   1   6
ATOM      3  C   UNL     1       1.346  -0.567   0.229  0.00  0.00    +0.000 A 
ATOM      4  C   UNL     1       1.077   0.749   0.601  0.00  0.00    +0.000 A 
ATOM      5  C   UNL     1      -0.230   1.237   0.554  0.00  0.00    +0.000 A 
ATOM      6  C   UNL     1      -1.282   0.412   0.127  0.00  0.00    +0.000 A 
ATOM      7  C   UNL     1      -0.998  -0.913  -0.239  0.00  0.00    +0.000 A 
ATOM      8  C   UNL     1       0.309  -1.398  -0.190  0.00  0.00    +0.000 A 
ENDBRANCH   1   6
BRANCH   1   9
ATOM      9  C   UNL     1      -3.128   1.351  -1.368  0.00  0.00    +0.000 C 
ATOM     10 BR   UNL     1      -2.176   2.987  -1.928  0.00  0.00    +0.000 Br
BRANCH   9  11
ATOM     11  C   UNL     1      -4.607   1.632  -1.550  0.00  0.00    +0.000 A 
ATOM     12  C   UNL     1      -5.341   2.407  -0.636  0.00  0.00    +0.000 A 
ATOM     13  C   UNL     1      -6.700   2.653  -0.839  0.00  0.00    +0.000 A 
ATOM     14  C   UNL     1      -7.346   2.134  -1.958  0.00  0.00    +0.000 A 
ATOM     15  C   UNL     1      -6.634   1.370  -2.878  0.00  0.00    +0.000 A 
ATOM     16  C   UNL     1      -5.274   1.122  -2.677  0.00  0.00    +0.000 A 
ENDBRANCH   9  11
ENDBRANCH   1   9
TORSDOF 3
