REMARK  Name = *****
REMARK  3 active torsions:
REMARK  status: ('A' for Active; 'I' for Inactive)
REMARK    1  A    between atoms: C_1  and  C_2
REMARK    2  A    between atoms: C_5  and  C_7
REMARK    3  A    between atoms: C_8  and  C_9
REMARK                            x       y       z     vdW  Elec       q    Type
REMARK                         _______ _______ _______ _____ _____    ______ ____
ROOT
ATOM      1  C   UNL     1       5.782  -1.837   0.012  0.00  0.00    +0.000 C 
ATOM      2  C   UNL     1       6.776  -2.511   0.020  0.00  0.00    +0.000 C 
ENDROOT
BRANCH   1   7
ATOM      3  C   UNL     1       0.820  -0.010  -0.029  0.00  0.00    +0.000 C 
ATOM      4  C   UNL     1       2.304  -0.140  -0.019  0.00  0.00    +0.000 A 
ATOM      5  C   UNL     1       3.255   0.860  -0.018  0.00  0.00    +0.000 A 
ATOM      6  C   UNL     1       4.583   0.339  -0.007  0.00  0.00    +0.000 A 
ATOM      7  C   UNL     1       4.601  -1.038   0.000  0.00  0.00    +0.000 A 
ATOM      8  S   UNL     1       3.025  -1.693  -0.008  0.00  0.00    +0.000 S 
ENDBRANCH   1   7
BRANCH   2   9
ATOM      9  C   UNL     1       7.997  -3.342   0.028  0.00  0.00    +0.000 C 
ATOM     10  C   UNL     1       8.981  -2.887  -1.059  0.00  0.00    +0.000 C 
ATOM     11  C   UNL     1       8.531  -3.266  -2.470  0.00  0.00    +0.000 C 
ATOM     12  C   UNL     1       8.223  -4.755  -2.583  0.00  0.00    +0.000 C 
ATOM     13  C   UNL     1       7.207  -5.202  -1.537  0.00  0.00    +0.000 C 
ATOM     14  C   UNL     1       7.652  -4.830  -0.122  0.00  0.00    +0.000 C 
ENDBRANCH   2   9
TORSDOF 2
