REMARK  Name = *****
REMARK  4 active torsions:
REMARK  status: ('A' for Active; 'I' for Inactive)
REMARK    1  A    between atoms: C_4  and  C_7
REMARK    2  A    between atoms: C_7  and  N_8
REMARK    3  A    between atoms: N_8  and  C_9
REMARK    4  A    between atoms: C_12  and  C_15
REMARK                            x       y       z     vdW  Elec       q    Type
REMARK                         _______ _______ _______ _____ _____    ______ ____
ROOT
ATOM      1  C   UNL     1      -5.072  -0.377  -0.771  0.00  0.00    +0.000 A 
ATOM      2  C   UNL     1      -5.463   0.724  -1.540  0.00  0.00    +0.000 A 
ATOM      3  C   UNL     1      -6.820   1.038  -1.651  0.00  0.00    +0.000 A 
ATOM      4  C   UNL     1      -7.791   0.256  -1.002  0.00  0.00    +0.000 A 
ATOM      5  C   UNL     1      -7.381  -0.861  -0.255  0.00  0.00    +0.000 A 
ATOM      6  C   UNL     1      -6.027  -1.180  -0.140  0.00  0.00    +0.000 A 
ENDROOT
BRANCH   4   7
ATOM      7  C   UNL     1      -9.260   0.579  -1.141  0.00  0.00    +0.000 C 
ATOM      8  F   UNL     1      -9.495   1.881  -1.468  0.00  0.00    +0.000 F 
ATOM      9  F   UNL     1      -9.866  -0.165  -2.106  0.00  0.00    +0.000 F 
ATOM     10  F   UNL     1      -9.963   0.353   0.004  0.00  0.00    +0.000 F 
ENDBRANCH   4   7
BRANCH   1  11
ATOM     11  N   UNL     1      -3.666  -0.739  -0.651  0.00  0.00    +0.000 N 
ATOM     12  O   UNL     1      -3.320  -1.944  -0.880  0.00  0.00    +0.000 OA
BRANCH  11  13
ATOM     13  C   UNL     1      -2.835   0.199  -0.255  0.00  0.00    +0.000 C 
BRANCH  13  17
ATOM     14  C   UNL     1       1.387  -0.025   0.349  0.00  0.00    +0.000 A 
ATOM     15  C   UNL     1       0.771  -0.992  -0.443  0.00  0.00    +0.000 A 
ATOM     16  C   UNL     1      -0.610  -0.954  -0.658  0.00  0.00    +0.000 A 
ATOM     17  C   UNL     1      -1.381   0.051  -0.070  0.00  0.00    +0.000 A 
ATOM     18  C   UNL     1      -0.756   1.029   0.714  0.00  0.00    +0.000 A 
ATOM     19  C   UNL     1       0.624   0.987   0.926  0.00  0.00    +0.000 A 
ENDBRANCH  13  17
ENDBRANCH  11  13
ENDBRANCH   1  11
TORSDOF 4
