REMARK  Name = *****
REMARK  5 active torsions:
REMARK  status: ('A' for Active; 'I' for Inactive)
REMARK    1  A    between atoms: C_6  and  O_7
REMARK    2  A    between atoms: O_7  and  C_8
REMARK    3  A    between atoms: C_8  and  O_10
REMARK    4  A    between atoms: O_10  and  C_11
REMARK    5  A    between atoms: C_11  and  C_12
REMARK                            x       y       z     vdW  Elec       q    Type
REMARK                         _______ _______ _______ _____ _____    ______ ____
ROOT
ATOM      1  O   UNL     1       3.628   0.179  -0.670  0.00  0.00    +0.000 OA
ENDROOT
BRANCH   1   7
ATOM      2  C   UNL     1       1.441   1.223  -0.620  0.00  0.00    +0.000 A 
ATOM      3  C   UNL     1       0.090   1.152  -0.278  0.00  0.00    +0.000 A 
ATOM      4  C   UNL     1      -0.404   0.015   0.364  0.00  0.00    +0.000 A 
ATOM      5  C   UNL     1       0.439  -1.057   0.663  0.00  0.00    +0.000 A 
ATOM      6  C   UNL     1       1.791  -0.990   0.325  0.00  0.00    +0.000 A 
ATOM      7  C   UNL     1       2.282   0.157  -0.296  0.00  0.00    +0.000 A 
ATOM      8 CL   UNL     1      -2.072  -0.071   0.781  0.00  0.00    +0.000 Cl
ENDBRANCH   1   7
BRANCH   1   9
ATOM      9  C   UNL     1       4.399   1.059   0.067  0.00  0.00    +0.000 C 
ATOM     10  O   UNL     1       4.034   1.762   0.998  0.00  0.00    +0.000 OA
BRANCH   9  11
ATOM     11  O   UNL     1       5.664   1.019  -0.428  0.00  0.00    +0.000 OA
BRANCH  11  12
ATOM     12  C   UNL     1       6.615   1.923   0.178  0.00  0.00    +0.000 C 
BRANCH  12  13
ATOM     13  C   UNL     1       6.877   3.175  -0.680  0.00  0.00    +0.000 C 
ATOM     14 CL   UNL     1       7.506   2.705  -2.293  0.00  0.00    +0.000 Cl
ATOM     15 CL   UNL     1       5.394   4.148  -0.911  0.00  0.00    +0.000 Cl
ATOM     16 CL   UNL     1       8.110   4.199   0.126  0.00  0.00    +0.000 Cl
ENDBRANCH  12  13
ENDBRANCH  11  12
ENDBRANCH   9  11
ENDBRANCH   1   9
TORSDOF 5
