REMARK  Name = *****
REMARK  6 active torsions:
REMARK  status: ('A' for Active; 'I' for Inactive)
REMARK    1  A    between atoms: C_1  and  C_2
REMARK    2  A    between atoms: C_5  and  C_18
REMARK    3  A    between atoms: C_8  and  C_9
REMARK    4  A    between atoms: C_8  and  C_10
REMARK    5  A    between atoms: C_10  and  S_11
REMARK    6  A    between atoms: S_11  and  C_12
REMARK                            x       y       z     vdW  Elec       q    Type
REMARK                         _______ _______ _______ _____ _____    ______ ____
ROOT
ATOM      1  C   UNL     1       4.228  -0.419   1.270  0.00  0.00    +0.000 C 
ATOM      2  C   UNL     1       2.879  -0.017   0.642  0.00  0.00    +0.000 C 
ATOM      3  C   UNL     1       2.350  -1.163  -0.238  0.00  0.00    +0.000 C 
ATOM      4  C   UNL     1       3.020  -1.222  -1.577  0.00  0.00    +0.000 C 
ATOM      5  C   UNL     1       3.701  -0.208  -2.136  0.00  0.00    +0.000 C 
ATOM      6  C   UNL     1       3.773   1.116  -1.436  0.00  0.00    +0.000 C 
ATOM      7  O   UNL     1       4.425   2.029  -1.944  0.00  0.00    +0.000 OA
ATOM      8  C   UNL     1       2.942   1.324  -0.156  0.00  0.00    +0.000 C 
ATOM      9  C   UNL     1       3.606   2.436   0.684  0.00  0.00    +0.000 C 
ATOM     10  C   UNL     1       4.396  -0.307  -3.458  0.00  0.00    +0.000 C 
ENDROOT
BRANCH   8  11
ATOM     11  C   UNL     1       1.553   1.810  -0.661  0.00  0.00    +0.000 C 
BRANCH  11  12
ATOM     12  S   UNL     1       0.322   2.126   0.662  0.00  0.00    +0.000 S 
BRANCH  12  13
ATOM     13  C   UNL     1      -1.169   2.297  -0.304  0.00  0.00    +0.000 A 
ATOM     14  C   UNL     1      -1.241   3.123  -1.430  0.00  0.00    +0.000 A 
ATOM     15  C   UNL     1      -2.434   3.233  -2.150  0.00  0.00    +0.000 A 
ATOM     16  C   UNL     1      -3.564   2.527  -1.743  0.00  0.00    +0.000 A 
ATOM     17  C   UNL     1      -3.506   1.716  -0.611  0.00  0.00    +0.000 A 
ATOM     18  C   UNL     1      -2.314   1.605   0.108  0.00  0.00    +0.000 A 
ENDBRANCH  12  13
ENDBRANCH  11  12
ENDBRANCH   8  11
TORSDOF 3
