REMARK  Name = *****
REMARK  3 active torsions:
REMARK  status: ('A' for Active; 'I' for Inactive)
REMARK    1  A    between atoms: C_6  and  C_7
REMARK    2  A    between atoms: C_7  and  O_8
REMARK    3  A    between atoms: O_8  and  C_9
REMARK                            x       y       z     vdW  Elec       q    Type
REMARK                         _______ _______ _______ _____ _____    ______ ____
ROOT
ATOM      1  C   UNL     1       3.959   0.066   0.014  0.00  0.00    +0.000 C 
ENDROOT
BRANCH   1   7
ATOM      2  C   UNL     1       1.726  -0.086   1.195  0.00  0.00    +0.000 A 
ATOM      3  C   UNL     1       0.329  -0.094   1.180  0.00  0.00    +0.000 A 
ATOM      4  C   UNL     1      -0.352   0.034  -0.029  0.00  0.00    +0.000 A 
ATOM      5  C   UNL     1       0.352   0.175  -1.223  0.00  0.00    +0.000 A 
ATOM      6  C   UNL     1       1.748   0.183  -1.208  0.00  0.00    +0.000 A 
ATOM      7  C   UNL     1       2.448   0.040  -0.001  0.00  0.00    +0.000 A 
ATOM      8 CL   UNL     1      -2.072   0.023  -0.047  0.00  0.00    +0.000 Cl
ENDBRANCH   1   7
BRANCH   1   9
ATOM      9  O   UNL     1       4.367   1.427   0.136  0.00  0.00    +0.000 OA
BRANCH   9  10
ATOM     10  C   UNL     1       5.737   1.585   0.097  0.00  0.00    +0.000 A 
ATOM     11  N   UNL     1       6.537   0.502  -0.016  0.00  0.00    +0.000 NA
ATOM     12  C   UNL     1       7.868   0.726  -0.057  0.00  0.00    +0.000 A 
ATOM     13  C   UNL     1       8.436   1.984   0.010  0.00  0.00    +0.000 A 
ATOM     14  C   UNL     1       7.579   3.070   0.128  0.00  0.00    +0.000 A 
ATOM     15  C   UNL     1       6.205   2.882   0.174  0.00  0.00    +0.000 A 
ATOM     16 CL   UNL     1       8.228   4.661   0.214  0.00  0.00    +0.000 Cl
ENDBRANCH   9  10
ENDBRANCH   1   9
TORSDOF 3
