REMARK  Name = *****
REMARK  4 active torsions:
REMARK  status: ('A' for Active; 'I' for Inactive)
REMARK    1  A    between atoms: C_1  and  C_2
REMARK    2  A    between atoms: C_5  and  C_7
REMARK    3  A    between atoms: C_7  and  C_8
REMARK    4  A    between atoms: C_8  and  C_9
REMARK                            x       y       z     vdW  Elec       q    Type
REMARK                         _______ _______ _______ _____ _____    ______ ____
ROOT
ATOM      1  C   UNL     1       5.052   1.041  -1.841  0.00  0.00    +0.000 C 
ENDROOT
BRANCH   1   6
ATOM      2  C   UNL     1       1.069  -0.055  -0.037  0.00  0.00    +0.000 C 
ATOM      3  C   UNL     1       2.557  -0.098   0.020  0.00  0.00    +0.000 C 
ATOM      4  C   UNL     1       3.298  -1.210   0.079  0.00  0.00    +0.000 C 
ATOM      5  S   UNL     1       4.998  -0.909   0.166  0.00  0.00    +0.000 S 
ATOM      6  C   UNL     1       4.801   0.850  -0.335  0.00  0.00    +0.000 C 
ATOM      7  C   UNL     1       3.345   1.184   0.045  0.00  0.00    +0.000 C 
ENDBRANCH   1   6
BRANCH   1   8
ATOM      8  C   UNL     1       6.485   0.710  -2.272  0.00  0.00    +0.000 C 
BRANCH   8   9
ATOM      9  C   UNL     1       6.685   0.920  -3.754  0.00  0.00    +0.000 A 
ATOM     10  C   UNL     1       7.143   2.148  -4.246  0.00  0.00    +0.000 A 
ATOM     11  C   UNL     1       7.330   2.333  -5.618  0.00  0.00    +0.000 A 
ATOM     12  C   UNL     1       7.054   1.296  -6.507  0.00  0.00    +0.000 A 
ATOM     13  C   UNL     1       6.585   0.075  -6.028  0.00  0.00    +0.000 A 
ATOM     14  C   UNL     1       6.398  -0.112  -4.658  0.00  0.00    +0.000 A 
ENDBRANCH   8   9
ENDBRANCH   1   8
TORSDOF 3
