REMARK  Name = *****
REMARK  3 active torsions:
REMARK  status: ('A' for Active; 'I' for Inactive)
REMARK    1  A    between atoms: C_1  and  C_2
REMARK    2  A    between atoms: C_5  and  C_8
REMARK    3  A    between atoms: C_8  and  C_10
REMARK                            x       y       z     vdW  Elec       q    Type
REMARK                         _______ _______ _______ _____ _____    ______ ____
ROOT
ATOM      1  C   UNL     1      -3.422  -0.054  -0.045  0.00  0.00    +0.000 C 
ATOM      2  O   UNL     1      -2.863  -0.559  -1.012  0.00  0.00    +0.000 OA
ENDROOT
BRANCH   1   7
ATOM      3  C   UNL     1      -3.941  -3.179   4.817  0.00  0.00    +0.000 C 
ATOM      4  C   UNL     1      -3.780  -2.356   3.573  0.00  0.00    +0.000 A 
ATOM      5  C   UNL     1      -3.870  -0.960   3.627  0.00  0.00    +0.000 A 
ATOM      6  C   UNL     1      -3.751  -0.194   2.462  0.00  0.00    +0.000 A 
ATOM      7  C   UNL     1      -3.560  -0.821   1.225  0.00  0.00    +0.000 A 
ATOM      8  C   UNL     1      -3.469  -2.217   1.170  0.00  0.00    +0.000 A 
ATOM      9  C   UNL     1      -3.589  -2.979   2.334  0.00  0.00    +0.000 A 
ENDBRANCH   1   7
BRANCH   1  10
ATOM     10  C   UNL     1      -4.066   1.290  -0.110  0.00  0.00    +0.000 C 
ATOM     11  C   UNL     1      -3.654   2.322  -0.872  0.00  0.00    +0.000 C 
ATOM     12  C   UNL     1      -2.421   2.345  -1.747  0.00  0.00    +0.000 C 
ATOM     13  C   UNL     1      -1.539   3.555  -1.426  0.00  0.00    +0.000 C 
ATOM     14  C   UNL     1      -2.321   4.866  -1.471  0.00  0.00    +0.000 C 
ATOM     15  C   UNL     1      -3.548   4.812  -0.563  0.00  0.00    +0.000 C 
ATOM     16  C   UNL     1      -4.439   3.616  -0.895  0.00  0.00    +0.000 C 
ENDBRANCH   1  10
TORSDOF 2
