REMARK  Name = *****
REMARK  4 active torsions:
REMARK  status: ('A' for Active; 'I' for Inactive)
REMARK    1  A    between atoms: C_1  and  C_2
REMARK    2  A    between atoms: C_5  and  O_8
REMARK    3  A    between atoms: O_8  and  C_9
REMARK    4  A    between atoms: C_9  and  C_10
REMARK                            x       y       z     vdW  Elec       q    Type
REMARK                         _______ _______ _______ _____ _____    ______ ____
ROOT
ATOM      1  O   UNL     1      -3.236   0.069   0.447  0.00  0.00    +0.000 OA
ENDROOT
BRANCH   1   6
ATOM      2  C   UNL     1       2.090   0.538   2.352  0.00  0.00    +0.000 C 
ATOM      3  C   UNL     1       0.690   0.432   1.826  0.00  0.00    +0.000 A 
ATOM      4  C   UNL     1      -0.024  -0.766   1.913  0.00  0.00    +0.000 A 
ATOM      5  C   UNL     1      -1.333  -0.843   1.431  0.00  0.00    +0.000 A 
ATOM      6  C   UNL     1      -1.951   0.275   0.869  0.00  0.00    +0.000 A 
ATOM      7  C   UNL     1      -1.240   1.470   0.769  0.00  0.00    +0.000 A 
ATOM      8  C   UNL     1       0.072   1.548   1.249  0.00  0.00    +0.000 A 
ENDBRANCH   1   6
BRANCH   1   9
ATOM      9  C   UNL     1      -4.017   1.235   0.173  0.00  0.00    +0.000 C 
BRANCH   9  10
ATOM     10  C   UNL     1      -5.466   0.815   0.044  0.00  0.00    +0.000 C 
ATOM     11  C   UNL     1      -6.270   1.114  -0.997  0.00  0.00    +0.000 C 
ATOM     12  C   UNL     1      -7.704   0.665  -1.108  0.00  0.00    +0.000 C 
ATOM     13  C   UNL     1      -8.077  -0.421  -0.100  0.00  0.00    +0.000 C 
ATOM     14  C   UNL     1      -7.513  -0.097   1.275  0.00  0.00    +0.000 C 
ATOM     15  C   UNL     1      -5.989   0.020   1.224  0.00  0.00    +0.000 C 
ATOM     16 CL   UNL     1      -5.740   2.070  -2.343  0.00  0.00    +0.000 Cl
ENDBRANCH   9  10
ENDBRANCH   1   9
TORSDOF 3
