REMARK  Name = *****
REMARK  4 active torsions:
REMARK  status: ('A' for Active; 'I' for Inactive)
REMARK    1  A    between atoms: C_5  and  C_6
REMARK    2  A    between atoms: C_6  and  S_8
REMARK    3  A    between atoms: S_8  and  C_9
REMARK    4  A    between atoms: C_9  and  C_10
REMARK                            x       y       z     vdW  Elec       q    Type
REMARK                         _______ _______ _______ _____ _____    ______ ____
ROOT
ATOM      1  S   UNL     1      -2.643  -2.827   0.289  0.00  0.00    +0.000 S 
ENDROOT
BRANCH   1   2
ATOM      2  C   UNL     1      -2.569  -1.077   0.228  0.00  0.00    +0.000 C 
ATOM      3  O   UNL     1      -3.570  -0.385   0.091  0.00  0.00    +0.000 OA
BRANCH   2   8
ATOM      4  C   UNL     1       0.071  -1.240   0.520  0.00  0.00    +0.000 C 
ATOM      5  C   UNL     1       1.065  -0.113   0.587  0.00  0.00    +0.000 C 
ATOM      6  C   UNL     1       0.428   1.063   0.475  0.00  0.00    +0.000 C 
ATOM      7  C   UNL     1      -0.987   0.825   0.330  0.00  0.00    +0.000 C 
ATOM      8  C   UNL     1      -1.221  -0.498   0.353  0.00  0.00    +0.000 C 
ENDBRANCH   2   8
ENDBRANCH   1   2
BRANCH   1   9
ATOM      9  C   UNL     1      -4.436  -3.040   0.106  0.00  0.00    +0.000 C 
BRANCH   9  10
ATOM     10  C   UNL     1      -4.818  -4.500   0.125  0.00  0.00    +0.000 A 
ATOM     11  C   UNL     1      -5.121  -5.141   1.336  0.00  0.00    +0.000 A 
ATOM     12  C   UNL     1      -5.460  -6.495   1.355  0.00  0.00    +0.000 A 
ATOM     13  C   UNL     1      -5.496  -7.222   0.166  0.00  0.00    +0.000 A 
ATOM     14  C   UNL     1      -5.189  -6.599  -1.041  0.00  0.00    +0.000 A 
ATOM     15  C   UNL     1      -4.850  -5.245  -1.063  0.00  0.00    +0.000 A 
ENDBRANCH   9  10
ENDBRANCH   1   9
TORSDOF 4
