REMARK  Name = *****
REMARK  5 active torsions:
REMARK  status: ('A' for Active; 'I' for Inactive)
REMARK    1  A    between atoms: C_1  and  C_2
REMARK    2  A    between atoms: C_2  and  C_3
REMARK    3  A    between atoms: C_3  and  C_4
REMARK    4  A    between atoms: C_3  and  C_10
REMARK    5  A    between atoms: C_4  and  C_5
REMARK                            x       y       z     vdW  Elec       q    Type
REMARK                         _______ _______ _______ _____ _____    ______ ____
ROOT
ATOM      1  C   UNL     1       2.962  -0.532   1.105  0.00  0.00    +0.000 C 
ENDROOT
BRANCH   1   2
ATOM      2  C   UNL     1       4.475  -0.520   1.323  0.00  0.00    +0.000 A 
ATOM      3  C   UNL     1       5.401  -0.496   0.271  0.00  0.00    +0.000 A 
ATOM      4  C   UNL     1       6.776  -0.488   0.525  0.00  0.00    +0.000 A 
ATOM      5  C   UNL     1       7.247  -0.501   1.835  0.00  0.00    +0.000 A 
ATOM      6  C   UNL     1       6.343  -0.522   2.893  0.00  0.00    +0.000 A 
ATOM      7  C   UNL     1       4.970  -0.530   2.640  0.00  0.00    +0.000 A 
ENDBRANCH   1   2
BRANCH   1   9
ATOM      8  C   UNL     1       1.016   0.291  -0.355  0.00  0.00    +0.000 C 
ATOM      9  C   UNL     1       2.513   0.020  -0.270  0.00  0.00    +0.000 C 
ENDBRANCH   1   9
BRANCH   1  10
ATOM     10  C   UNL     1       2.333  -1.906   1.456  0.00  0.00    +0.000 C 
BRANCH  10  11
ATOM     11  C   UNL     1       2.542  -3.021   0.480  0.00  0.00    +0.000 C 
ATOM     12  C   UNL     1       1.625  -3.572  -0.337  0.00  0.00    +0.000 C 
ATOM     13  C   UNL     1       2.214  -4.679  -1.046  0.00  0.00    +0.000 C 
ATOM     14  C   UNL     1       3.487  -4.829  -0.657  0.00  0.00    +0.000 C 
ATOM     15  C   UNL     1       3.838  -3.780   0.360  0.00  0.00    +0.000 C 
ENDBRANCH  10  11
ENDBRANCH   1  10
TORSDOF 4
