REMARK  Name = *****
REMARK  2 active torsions:
REMARK  status: ('A' for Active; 'I' for Inactive)
REMARK    1  A    between atoms: C_8  and  O_11
REMARK    2  A    between atoms: O_11  and  C_12
REMARK                            x       y       z     vdW  Elec       q    Type
REMARK                         _______ _______ _______ _____ _____    ______ ____
ROOT
ATOM      1  C   UNL     1       1.258   1.329  -0.441  0.00  0.00    +0.000 C 
ATOM      2  C   UNL     1      -0.061   0.670  -0.175  0.00  0.00    +0.000 A 
ATOM      3  C   UNL     1      -1.288   1.274  -0.462  0.00  0.00    +0.000 A 
ATOM      4  C   UNL     1      -2.474   0.580  -0.215  0.00  0.00    +0.000 A 
ATOM      5  C   UNL     1      -2.439  -0.716   0.306  0.00  0.00    +0.000 A 
ATOM      6  C   UNL     1      -1.216  -1.330   0.580  0.00  0.00    +0.000 A 
ATOM      7  C   UNL     1      -0.031  -0.632   0.335  0.00  0.00    +0.000 A 
ATOM      8  C   UNL     1       1.319  -1.185   0.552  0.00  0.00    +0.000 C 
ATOM      9  N   UNL     1       2.413  -0.485   0.592  0.00  0.00    +0.000 NA
ATOM     10  O   UNL     1       2.195   0.919   0.566  0.00  0.00    +0.000 OA
ENDROOT
BRANCH   8  11
ATOM     11  O   UNL     1       1.261  -2.567   0.625  0.00  0.00    +0.000 OA
BRANCH  11  12
ATOM     12  C   UNL     1       2.454  -3.268   0.866  0.00  0.00    +0.000 A 
ATOM     13  C   UNL     1       3.172  -3.086   2.046  0.00  0.00    +0.000 A 
ATOM     14  C   UNL     1       4.317  -3.850   2.271  0.00  0.00    +0.000 A 
ATOM     15  C   UNL     1       4.721  -4.799   1.329  0.00  0.00    +0.000 A 
ATOM     16  C   UNL     1       3.980  -4.988   0.160  0.00  0.00    +0.000 A 
ATOM     17  C   UNL     1       2.836  -4.225  -0.072  0.00  0.00    +0.000 A 
ENDBRANCH  11  12
ENDBRANCH   8  11
TORSDOF 2
