REMARK  Name = *****
REMARK  3 active torsions:
REMARK  status: ('A' for Active; 'I' for Inactive)
REMARK    1  A    between atoms: C_4  and  C_7
REMARK    2  A    between atoms: C_7  and  O_9
REMARK    3  A    between atoms: O_9  and  C_10
REMARK                            x       y       z     vdW  Elec       q    Type
REMARK                         _______ _______ _______ _____ _____    ______ ____
ROOT
ATOM      1  C   UNL     1       2.694  -0.757  -0.755  0.00  0.00    +0.000 C 
ATOM      2  O   UNL     1       3.028  -0.294  -1.836  0.00  0.00    +0.000 OA
ENDROOT
BRANCH   1   6
ATOM      3  C   UNL     1      -1.469   0.209   0.035  0.00  0.00    +0.000 C 
ATOM      4  C   UNL     1      -0.945  -1.158   0.468  0.00  0.00    +0.000 C 
ATOM      5  C   UNL     1       0.376  -1.500  -0.217  0.00  0.00    +0.000 C 
ATOM      6  C   UNL     1       1.423  -0.403  -0.005  0.00  0.00    +0.000 C 
ATOM      7  C   UNL     1       0.889   0.965  -0.446  0.00  0.00    +0.000 C 
ATOM      8  C   UNL     1      -0.427   1.303   0.248  0.00  0.00    +0.000 C 
ENDBRANCH   1   6
BRANCH   1   9
ATOM      9  O   UNL     1       3.398  -1.691  -0.054  0.00  0.00    +0.000 OA
BRANCH   9  10
ATOM     10  C   UNL     1       4.651  -2.110  -0.635  0.00  0.00    +0.000 C 
ATOM     11  C   UNL     1       4.370  -3.259  -1.611  0.00  0.00    +0.000 C 
ATOM     12  C   UNL     1       5.652  -3.883  -2.148  0.00  0.00    +0.000 C 
ATOM     13  C   UNL     1       6.564  -4.345  -1.016  0.00  0.00    +0.000 C 
ATOM     14  C   UNL     1       6.866  -3.208  -0.043  0.00  0.00    +0.000 C 
ATOM     15  C   UNL     1       5.582  -2.578   0.497  0.00  0.00    +0.000 C 
ATOM     16 CL   UNL     1       6.011  -1.197   1.563  0.00  0.00    +0.000 Cl
ENDBRANCH   9  10
ENDBRANCH   1   9
TORSDOF 3
