REMARK  Name = *****
REMARK  5 active torsions:
REMARK  status: ('A' for Active; 'I' for Inactive)
REMARK    1  A    between atoms: C_1  and  C_2
REMARK    2  A    between atoms: C_2  and  O_4
REMARK    3  A    between atoms: O_4  and  C_5
REMARK    4  A    between atoms: C_10  and  C_11
REMARK    5  A    between atoms: C_12  and  C_13
REMARK                            x       y       z     vdW  Elec       q    Type
REMARK                         _______ _______ _______ _____ _____    ______ ____
ROOT
ATOM      1  C   UNL     1       4.831   0.638   1.142  0.00  0.00    +0.000 C 
ATOM      2  C   UNL     1       5.141   1.318   2.485  0.00  0.00    +0.000 C 
ATOM      3  C   UNL     1       4.630   2.757   2.535  0.00  0.00    +0.000 C 
ATOM      4  C   UNL     1       5.162   3.584   1.370  0.00  0.00    +0.000 C 
ATOM      5  C   UNL     1       4.852   2.930   0.023  0.00  0.00    +0.000 C 
ATOM      6  C   UNL     1       5.329   1.470  -0.058  0.00  0.00    +0.000 C 
ENDROOT
BRANCH   6   7
ATOM      7  C   UNL     1       6.800   1.402  -0.184  0.00  0.00    +0.000 C 
ATOM      8  C   UNL     1       7.996   1.353  -0.279  0.00  0.00    +0.000 C 
BRANCH   8   9
ATOM      9  C   UNL     1       9.421   1.303  -0.384  0.00  0.00    +0.000 A 
ATOM     10  C   UNL     1      10.191   2.392   0.033  0.00  0.00    +0.000 A 
ATOM     11  C   UNL     1      11.583   2.343  -0.068  0.00  0.00    +0.000 A 
ATOM     12  C   UNL     1      12.205   1.207  -0.586  0.00  0.00    +0.000 A 
ATOM     13  C   UNL     1      11.438   0.119  -1.003  0.00  0.00    +0.000 A 
ATOM     14  C   UNL     1      10.046   0.167  -0.902  0.00  0.00    +0.000 A 
ENDBRANCH   8   9
ENDBRANCH   6   7
BRANCH   1  15
ATOM     15  O   UNL     1       3.397   0.491   1.000  0.00  0.00    +0.000 OA
BRANCH  15  17
ATOM     16  C   UNL     1       1.359  -0.600   1.368  0.00  0.00    +0.000 C 
ATOM     17  C   UNL     1       2.840  -0.598   1.596  0.00  0.00    +0.000 C 
ATOM     18  O   UNL     1       3.441  -1.452   2.230  0.00  0.00    +0.000 OA
ENDBRANCH  15  17
ENDBRANCH   1  15
TORSDOF 4
