REMARK  Name = *****
REMARK  4 active torsions:
REMARK  status: ('A' for Active; 'I' for Inactive)
REMARK    1  A    between atoms: C_1  and  C_2
REMARK    2  A    between atoms: C_5  and  O_8
REMARK    3  A    between atoms: O_8  and  C_9
REMARK    4  A    between atoms: C_9  and  C_10
REMARK                            x       y       z     vdW  Elec       q    Type
REMARK                         _______ _______ _______ _____ _____    ______ ____
ROOT
ATOM      1  O   UNL     1      -2.260   0.408  -1.503  0.00  0.00    +0.000 OA
ENDROOT
BRANCH   1   6
ATOM      2  C   UNL     1       1.277  -2.400   1.938  0.00  0.00    +0.000 C 
ATOM      3  C   UNL     1       0.321  -1.642   1.066  0.00  0.00    +0.000 A 
ATOM      4  C   UNL     1      -1.040  -1.580   1.388  0.00  0.00    +0.000 A 
ATOM      5  C   UNL     1      -1.941  -0.901   0.559  0.00  0.00    +0.000 A 
ATOM      6  C   UNL     1      -1.491  -0.284  -0.608  0.00  0.00    +0.000 A 
ATOM      7  C   UNL     1      -0.137  -0.359  -0.939  0.00  0.00    +0.000 A 
ATOM      8  C   UNL     1       0.764  -1.036  -0.114  0.00  0.00    +0.000 A 
ENDBRANCH   1   6
BRANCH   1   9
ATOM      9  C   UNL     1      -3.648   0.554  -1.191  0.00  0.00    +0.000 C 
BRANCH   9  10
ATOM     10  C   UNL     1      -4.378   1.360  -2.248  0.00  0.00    +0.000 A 
ATOM     11  C   UNL     1      -3.723   1.815  -3.407  0.00  0.00    +0.000 A 
ATOM     12  C   UNL     1      -4.405   2.552  -4.377  0.00  0.00    +0.000 A 
ATOM     13  C   UNL     1      -5.754   2.849  -4.210  0.00  0.00    +0.000 A 
ATOM     14  C   UNL     1      -6.424   2.405  -3.071  0.00  0.00    +0.000 A 
ATOM     15  C   UNL     1      -5.742   1.666  -2.099  0.00  0.00    +0.000 A 
ATOM     16 CL   UNL     1      -6.641   1.144  -0.716  0.00  0.00    +0.000 Cl
ENDBRANCH   9  10
ENDBRANCH   1   9
TORSDOF 3
