REMARK  Name = *****
REMARK  2 active torsions:
REMARK  status: ('A' for Active; 'I' for Inactive)
REMARK    1  A    between atoms: C_3  and  C_8
REMARK    2  A    between atoms: N_10  and  C_11
REMARK                            x       y       z     vdW  Elec       q    Type
REMARK                         _______ _______ _______ _____ _____    ______ ____
ROOT
ATOM      1  C   UNL     1      -2.161   2.404   0.214  0.00  0.00    +0.000 C 
ATOM      2  O   UNL     1      -3.296   2.235   0.640  0.00  0.00    +0.000 OA
ATOM      3  N   UNL     1      -1.600   3.605  -0.176  0.00  0.00    +0.000 N 
ATOM      4  H   UNL     1      -0.692   3.556  -0.554  0.00  0.00    +0.000 HD
ENDROOT
BRANCH   3   5
ATOM      5  C   UNL     1      -2.174   4.898  -0.097  0.00  0.00    +0.000 A 
ATOM      6  C   UNL     1      -1.452   5.980  -0.640  0.00  0.00    +0.000 A 
ATOM      7  C   UNL     1      -1.958   7.282  -0.591  0.00  0.00    +0.000 A 
ATOM      8  C   UNL     1      -3.195   7.521   0.006  0.00  0.00    +0.000 A 
ATOM      9  C   UNL     1      -3.913   6.458   0.550  0.00  0.00    +0.000 A 
ATOM     10  C   UNL     1      -3.411   5.154   0.503  0.00  0.00    +0.000 A 
ATOM     11 CL   UNL     1      -5.436   6.762   1.293  0.00  0.00    +0.000 Cl
ATOM     12 CL   UNL     1       0.091   5.735  -1.388  0.00  0.00    +0.000 Cl
ENDBRANCH   3   5
BRANCH   1  15
ATOM     13  C   UNL     1      -1.094  -1.160  -0.444  0.00  0.00    +0.000 A 
ATOM     14  C   UNL     1      -1.879  -0.016  -0.281  0.00  0.00    +0.000 A 
ATOM     15  C   UNL     1      -1.283   1.212   0.046  0.00  0.00    +0.000 A 
ATOM     16  C   UNL     1       0.101   1.283   0.236  0.00  0.00    +0.000 A 
ATOM     17  C   UNL     1       0.868   0.135   0.072  0.00  0.00    +0.000 A 
ATOM     18  C   UNL     1       0.287  -1.082  -0.271  0.00  0.00    +0.000 A 
ATOM     19  F   UNL     1       2.193   0.202   0.254  0.00  0.00    +0.000 F 
ENDBRANCH   1  15
TORSDOF 2
