REMARK  Name = *****
REMARK  1 active torsions:
REMARK  status: ('A' for Active; 'I' for Inactive)
REMARK    1  A    between atoms: C_4  and  C_7
REMARK                            x       y       z     vdW  Elec       q    Type
REMARK                         _______ _______ _______ _____ _____    ______ ____
ROOT
ATOM      1  C   UNL     1      -3.048   0.136  -0.538  0.00  0.00    +0.000 A 
ATOM      2  N   UNL     1      -3.848   0.923  -1.237  0.00  0.00    +0.000 NA
ATOM      3  C   UNL     1      -5.111   0.471  -0.939  0.00  0.00    +0.000 A 
ATOM      4  C   UNL     1      -5.024  -0.591  -0.053  0.00  0.00    +0.000 A 
ATOM      5  O   UNL     1      -3.704  -0.812   0.209  0.00  0.00    +0.000 OA
ATOM      6  C   UNL     1      -6.122  -1.276   0.450  0.00  0.00    +0.000 A 
ATOM      7  C   UNL     1      -7.376  -0.849   0.020  0.00  0.00    +0.000 A 
ATOM      8  C   UNL     1      -7.507   0.214  -0.870  0.00  0.00    +0.000 A 
ATOM      9  C   UNL     1      -6.384   0.886  -1.359  0.00  0.00    +0.000 A 
ATOM     10  F   UNL     1      -6.531   1.906  -2.214  0.00  0.00    +0.000 F 
ATOM     11  F   UNL     1      -8.730   0.599  -1.263  0.00  0.00    +0.000 F 
ATOM     12  F   UNL     1      -8.474  -1.473   0.471  0.00  0.00    +0.000 F 
ATOM     13  F   UNL     1      -5.989  -2.297   1.304  0.00  0.00    +0.000 F 
ENDROOT
BRANCH   1  17
ATOM     14  C   UNL     1       1.221   0.202  -0.350  0.00  0.00    +0.000 A 
ATOM     15  C   UNL     1       0.535   1.122  -1.139  0.00  0.00    +0.000 A 
ATOM     16  C   UNL     1      -0.861   1.092  -1.193  0.00  0.00    +0.000 A 
ATOM     17  C   UNL     1      -1.589   0.142  -0.460  0.00  0.00    +0.000 A 
ATOM     18  C   UNL     1      -0.883  -0.778   0.330  0.00  0.00    +0.000 A 
ATOM     19  C   UNL     1       0.514  -0.748   0.384  0.00  0.00    +0.000 A 
ENDBRANCH   1  17
TORSDOF 1
