REMARK  Name = *****
REMARK  5 active torsions:
REMARK  status: ('A' for Active; 'I' for Inactive)
REMARK    1  A    between atoms: C_1  and  C_2
REMARK    2  A    between atoms: C_5  and  C_8
REMARK    3  A    between atoms: C_8  and  C_17
REMARK    4  A    between atoms: N_9  and  O_10
REMARK    5  A    between atoms: O_10  and  C_11
REMARK                            x       y       z     vdW  Elec       q    Type
REMARK                         _______ _______ _______ _____ _____    ______ ____
ROOT
ATOM      1  C   UNL     1      -3.344  -0.053  -0.195  0.00  0.00    +0.000 C 
ATOM      2  N   UNL     1      -3.951  -1.201  -0.117  0.00  0.00    +0.000 NA
ATOM      3  C   UNL     1      -4.074   1.255  -0.428  0.00  0.00    +0.000 C 
ENDROOT
BRANCH   1   8
ATOM      4  C   UNL     1       2.435  -0.039   0.342  0.00  0.00    +0.000 C 
ATOM      5  C   UNL     1       0.939  -0.017   0.224  0.00  0.00    +0.000 A 
ATOM      6  C   UNL     1       0.305   0.945  -0.571  0.00  0.00    +0.000 A 
ATOM      7  C   UNL     1      -1.086   0.946  -0.712  0.00  0.00    +0.000 A 
ATOM      8  C   UNL     1      -1.858  -0.021  -0.059  0.00  0.00    +0.000 A 
ATOM      9  C   UNL     1      -1.225  -1.001   0.714  0.00  0.00    +0.000 A 
ATOM     10  C   UNL     1       0.166  -0.999   0.853  0.00  0.00    +0.000 A 
ENDBRANCH   1   8
BRANCH   2  11
ATOM     11  O   UNL     1      -5.334  -1.064  -0.293  0.00  0.00    +0.000 OA
BRANCH  11  12
ATOM     12  C   UNL     1      -5.978  -2.279  -0.225  0.00  0.00    +0.000 A 
ATOM     13  C   UNL     1      -5.343  -3.515  -0.078  0.00  0.00    +0.000 A 
ATOM     14  C   UNL     1      -6.099  -4.689  -0.024  0.00  0.00    +0.000 A 
ATOM     15  C   UNL     1      -7.489  -4.632  -0.118  0.00  0.00    +0.000 A 
ATOM     16  C   UNL     1      -8.126  -3.402  -0.267  0.00  0.00    +0.000 A 
ATOM     17  C   UNL     1      -7.372  -2.228  -0.321  0.00  0.00    +0.000 A 
ENDBRANCH  11  12
ENDBRANCH   2  11
TORSDOF 3
