REMARK  Name = *****
REMARK  2 active torsions:
REMARK  status: ('A' for Active; 'I' for Inactive)
REMARK    1  A    between atoms: C_4  and  N_7
REMARK    2  A    between atoms: C_8  and  C_9
REMARK                            x       y       z     vdW  Elec       q    Type
REMARK                         _______ _______ _______ _____ _____    ______ ____
ROOT
ATOM      1  C   UNL     1      -5.024  -0.167  -0.518  0.00  0.00    +0.000 A 
ATOM      2  C   UNL     1      -5.542   0.834  -1.341  0.00  0.00    +0.000 A 
ATOM      3  C   UNL     1      -6.913   0.924  -1.573  0.00  0.00    +0.000 A 
ATOM      4  C   UNL     1      -7.766   0.004  -0.977  0.00  0.00    +0.000 A 
ATOM      5  C   UNL     1      -7.275  -1.000  -0.154  0.00  0.00    +0.000 A 
ATOM      6  C   UNL     1      -5.903  -1.078   0.070  0.00  0.00    +0.000 A 
ATOM      7  F   UNL     1      -5.443  -2.054   0.866  0.00  0.00    +0.000 F 
ATOM      8  F   UNL     1      -9.084   0.088  -1.198  0.00  0.00    +0.000 F 
ATOM      9  F   UNL     1      -4.751   1.740  -1.931  0.00  0.00    +0.000 F 
ENDROOT
BRANCH   1  11
ATOM     10  N   UNL     1      -2.691   0.467  -0.751  0.00  0.00    +0.000 NA
ATOM     11  C   UNL     1      -3.587  -0.312  -0.236  0.00  0.00    +0.000 C 
BRANCH  10  15
ATOM     12  C   UNL     1       1.295  -0.301   0.331  0.00  0.00    +0.000 A 
ATOM     13  C   UNL     1       0.723  -0.978  -0.745  0.00  0.00    +0.000 A 
ATOM     14  C   UNL     1      -0.602  -0.722  -1.105  0.00  0.00    +0.000 A 
ATOM     15  C   UNL     1      -1.364   0.202  -0.386  0.00  0.00    +0.000 A 
ATOM     16  C   UNL     1      -0.779   0.889   0.680  0.00  0.00    +0.000 A 
ATOM     17  C   UNL     1       0.546   0.636   1.042  0.00  0.00    +0.000 A 
ENDBRANCH  10  15
ENDBRANCH   1  11
TORSDOF 2
