REMARK  Name = *****
REMARK  2 active torsions:
REMARK  status: ('A' for Active; 'I' for Inactive)
REMARK    1  A    between atoms: C_6  and  N_7
REMARK    2  A    between atoms: C_8  and  C_9
REMARK                            x       y       z     vdW  Elec       q    Type
REMARK                         _______ _______ _______ _____ _____    ______ ____
ROOT
ATOM      1  N   UNL     1       3.841  -0.160   0.202  0.00  0.00    +0.000 NA
ATOM      2  C   UNL     1       4.546   0.903  -0.029  0.00  0.00    +0.000 C 
ENDROOT
BRANCH   2   3
ATOM      3  C   UNL     1       6.015   0.884   0.059  0.00  0.00    +0.000 A 
ATOM      4  C   UNL     1       6.722   2.062  -0.189  0.00  0.00    +0.000 A 
ATOM      5  C   UNL     1       8.113   2.084  -0.115  0.00  0.00    +0.000 A 
ATOM      6  C   UNL     1       8.803   0.915   0.208  0.00  0.00    +0.000 A 
ATOM      7  C   UNL     1       8.092  -0.258   0.454  0.00  0.00    +0.000 A 
ATOM      8  C   UNL     1       6.703  -0.288   0.383  0.00  0.00    +0.000 A 
ATOM      9  F   UNL     1       8.760  -1.376   0.764  0.00  0.00    +0.000 F 
ATOM     10  F   UNL     1       6.074   3.193  -0.500  0.00  0.00    +0.000 F 
ENDBRANCH   2   3
BRANCH   1  16
ATOM     11  C   UNL     1       1.693   0.423   1.175  0.00  0.00    +0.000 A 
ATOM     12  C   UNL     1       0.306   0.553   1.063  0.00  0.00    +0.000 A 
ATOM     13  C   UNL     1      -0.321   0.237  -0.141  0.00  0.00    +0.000 A 
ATOM     14  C   UNL     1       0.425  -0.212  -1.229  0.00  0.00    +0.000 A 
ATOM     15  C   UNL     1       1.812  -0.340  -1.112  0.00  0.00    +0.000 A 
ATOM     16  C   UNL     1       2.453  -0.011   0.086  0.00  0.00    +0.000 A 
ATOM     17 CL   UNL     1      -2.028   0.395  -0.283  0.00  0.00    +0.000 Cl
ENDBRANCH   1  16
TORSDOF 2
