REMARK  Name = *****
REMARK  3 active torsions:
REMARK  status: ('A' for Active; 'I' for Inactive)
REMARK    1  A    between atoms: C_2  and  C_12
REMARK    2  A    between atoms: C_3  and  C_4
REMARK    3  A    between atoms: C_7  and  C_10
REMARK                            x       y       z     vdW  Elec       q    Type
REMARK                         _______ _______ _______ _____ _____    ______ ____
ROOT
ATOM      1  C   UNL     1       0.077   0.888  -0.077  0.00  0.00    +0.000 C 
ATOM      2  C   UNL     1       0.825  -0.420  -0.042  0.00  0.00    +0.000 C 
ATOM      3  C   UNL     1      -0.698  -0.404  -0.067  0.00  0.00    +0.000 C 
ENDROOT
BRANCH   3   4
ATOM      4  C   UNL     1      -1.432  -0.861  -1.306  0.00  0.00    +0.000 A 
ATOM      5  C   UNL     1      -1.206  -2.134  -1.859  0.00  0.00    +0.000 A 
ATOM      6  C   UNL     1      -1.892  -2.567  -2.996  0.00  0.00    +0.000 A 
ATOM      7  C   UNL     1      -2.828  -1.728  -3.600  0.00  0.00    +0.000 A 
ATOM      8  C   UNL     1      -3.083  -0.464  -3.069  0.00  0.00    +0.000 A 
ATOM      9  C   UNL     1      -2.389  -0.042  -1.929  0.00  0.00    +0.000 A 
BRANCH   7  10
ATOM     10  C   UNL     1      -3.561  -2.172  -4.802  0.00  0.00    +0.000 C 
ATOM     11  O   UNL     1      -3.380  -3.272  -5.309  0.00  0.00    +0.000 OA
ENDBRANCH   7  10
ENDBRANCH   3   4
BRANCH   2  12
ATOM     12  C   UNL     1       1.552  -0.844   1.212  0.00  0.00    +0.000 A 
ATOM     13  C   UNL     1       1.293  -2.081   1.825  0.00  0.00    +0.000 A 
ATOM     14  C   UNL     1       1.977  -2.483   2.976  0.00  0.00    +0.000 A 
ATOM     15  C   UNL     1       2.944  -1.653   3.535  0.00  0.00    +0.000 A 
ATOM     16  C   UNL     1       3.228  -0.427   2.942  0.00  0.00    +0.000 A 
ATOM     17  C   UNL     1       2.540  -0.031   1.792  0.00  0.00    +0.000 A 
ENDBRANCH   2  12
TORSDOF 3
