REMARK  Name = *****
REMARK  6 active torsions:
REMARK  status: ('A' for Active; 'I' for Inactive)
REMARK    1  A    between atoms: C_1  and  O_2
REMARK    2  A    between atoms: O_2  and  C_3
REMARK    3  A    between atoms: C_3  and  C_5
REMARK    4  A    between atoms: C_5  and  S_11
REMARK    5  A    between atoms: S_11  and  C_12
REMARK    6  A    between atoms: C_12  and  C_13
REMARK                            x       y       z     vdW  Elec       q    Type
REMARK                         _______ _______ _______ _____ _____    ______ ____
ROOT
ATOM      1  C   UNL     1       4.599   1.096  -0.286  0.00  0.00    +0.000 C 
ATOM      2  C   UNL     1       5.138   2.466  -0.770  0.00  0.00    +0.000 C 
ATOM      3  C   UNL     1       6.652   2.507  -0.990  0.00  0.00    +0.000 C 
ATOM      4  C   UNL     1       7.124   1.387  -1.907  0.00  0.00    +0.000 C 
ATOM      5  C   UNL     1       6.660   0.023  -1.411  0.00  0.00    +0.000 C 
ATOM      6  C   UNL     1       5.145  -0.014  -1.215  0.00  0.00    +0.000 C 
ENDROOT
BRANCH   1   7
ATOM      7  C   UNL     1       3.059   1.081  -0.331  0.00  0.00    +0.000 C 
ATOM      8  O   UNL     1       2.389   0.094  -0.618  0.00  0.00    +0.000 OA
BRANCH   7  10
ATOM      9  C   UNL     1       1.098   2.299   0.092  0.00  0.00    +0.000 C 
ATOM     10  O   UNL     1       2.525   2.275   0.055  0.00  0.00    +0.000 OA
ENDBRANCH   7  10
ENDBRANCH   1   7
BRANCH   1  11
ATOM     11  S   UNL     1       5.139   0.838   1.482  0.00  0.00    +0.000 S 
BRANCH  11  12
ATOM     12  C   UNL     1       4.182  -0.649   1.939  0.00  0.00    +0.000 C 
BRANCH  12  13
ATOM     13  C   UNL     1       4.570  -1.134   3.315  0.00  0.00    +0.000 A 
ATOM     14  C   UNL     1       3.883  -0.682   4.451  0.00  0.00    +0.000 A 
ATOM     15  C   UNL     1       4.247  -1.126   5.723  0.00  0.00    +0.000 A 
ATOM     16  C   UNL     1       5.306  -2.020   5.873  0.00  0.00    +0.000 A 
ATOM     17  C   UNL     1       6.003  -2.469   4.753  0.00  0.00    +0.000 A 
ATOM     18  C   UNL     1       5.640  -2.026   3.480  0.00  0.00    +0.000 A 
ENDBRANCH  12  13
ENDBRANCH  11  12
ENDBRANCH   1  11
TORSDOF 5
