REMARK  Name = *****
REMARK  3 active torsions:
REMARK  status: ('A' for Active; 'I' for Inactive)
REMARK    1  A    between atoms: C_1  and  C_2
REMARK    2  A    between atoms: C_5  and  C_8
REMARK    3  A    between atoms: N_10  and  C_11
REMARK                            x       y       z     vdW  Elec       q    Type
REMARK                         _______ _______ _______ _____ _____    ______ ____
ROOT
ATOM      1  C   UNL     1      -1.632   0.222  -2.149  0.00  0.00    +0.000 C 
ATOM      2  O   UNL     1      -0.884   0.959  -2.780  0.00  0.00    +0.000 OA
ATOM      3  N   UNL     1      -2.518  -0.687  -2.702  0.00  0.00    +0.000 N 
ATOM      4  H   UNL     1      -3.081  -1.181  -2.064  0.00  0.00    +0.000 HD
ENDROOT
BRANCH   3   5
ATOM      5  C   UNL     1      -2.716  -0.996  -4.069  0.00  0.00    +0.000 A 
ATOM      6  C   UNL     1      -3.713  -1.935  -4.404  0.00  0.00    +0.000 A 
ATOM      7  C   UNL     1      -3.959  -2.289  -5.732  0.00  0.00    +0.000 A 
ATOM      8  C   UNL     1      -3.205  -1.705  -6.743  0.00  0.00    +0.000 A 
ATOM      9  C   UNL     1      -2.214  -0.777  -6.436  0.00  0.00    +0.000 A 
ATOM     10  C   UNL     1      -1.969  -0.424  -5.103  0.00  0.00    +0.000 A 
ATOM     11 CL   UNL     1      -3.498  -2.132  -8.383  0.00  0.00    +0.000 Cl
ATOM     12 CL   UNL     1      -4.672  -2.687  -3.172  0.00  0.00    +0.000 Cl
ENDBRANCH   3   5
BRANCH   1  17
ATOM     13  C   UNL     1       2.519  -0.345   0.530  0.00  0.00    +0.000 C 
ATOM     14  C   UNL     1       1.007  -0.140   0.615  0.00  0.00    +0.000 C 
ATOM     15  C   UNL     1       0.608   1.201  -0.011  0.00  0.00    +0.000 C 
ATOM     16  C   UNL     1      -0.908   1.409  -0.005  0.00  0.00    +0.000 C 
ATOM     17  C   UNL     1      -1.694   0.238  -0.613  0.00  0.00    +0.000 C 
ATOM     18  C   UNL     1      -1.249  -1.100  -0.005  0.00  0.00    +0.000 C 
ATOM     19  C   UNL     1       0.265  -1.297  -0.063  0.00  0.00    +0.000 C 
ENDBRANCH   1  17
TORSDOF 2
