REMARK  Name = *****
REMARK  3 active torsions:
REMARK  status: ('A' for Active; 'I' for Inactive)
REMARK    1  A    between atoms: C_4  and  C_7
REMARK    2  A    between atoms: C_7  and  C_8
REMARK    3  A    between atoms: C_8  and  C_10
REMARK                            x       y       z     vdW  Elec       q    Type
REMARK                         _______ _______ _______ _____ _____    ______ ____
ROOT
ATOM      1  C   UNL     1      -3.700  -0.961  -0.389  0.00  0.00    +0.000 C 
ATOM      2  O   UNL     1      -3.969  -1.546  -1.439  0.00  0.00    +0.000 OA
ENDROOT
BRANCH   1   3
ATOM      3  C   UNL     1      -4.210  -1.523   0.900  0.00  0.00    +0.000 A 
ATOM      4  C   UNL     1      -3.793  -1.053   2.148  0.00  0.00    +0.000 A 
ATOM      5  C   UNL     1      -4.317  -1.620   3.310  0.00  0.00    +0.000 A 
ATOM      6  C   UNL     1      -5.252  -2.652   3.249  0.00  0.00    +0.000 A 
ATOM      7  C   UNL     1      -5.669  -3.131   2.010  0.00  0.00    +0.000 A 
ATOM      8  C   UNL     1      -5.148  -2.569   0.840  0.00  0.00    +0.000 A 
ATOM      9 CL   UNL     1      -5.898  -3.342   4.687  0.00  0.00    +0.000 Cl
ATOM     10  F   UNL     1      -3.901  -1.146   4.494  0.00  0.00    +0.000 F 
ENDBRANCH   1   3
BRANCH   1  11
ATOM     11  C   UNL     1      -2.878   0.314  -0.391  0.00  0.00    +0.000 C 
BRANCH  11  15
ATOM     12  C   UNL     1       1.335  -0.196   0.401  0.00  0.00    +0.000 A 
ATOM     13  C   UNL     1       0.678  -1.079  -0.453  0.00  0.00    +0.000 A 
ATOM     14  C   UNL     1      -0.686  -0.922  -0.708  0.00  0.00    +0.000 A 
ATOM     15  C   UNL     1      -1.412   0.111  -0.099  0.00  0.00    +0.000 A 
ATOM     16  C   UNL     1      -0.734   1.005   0.744  0.00  0.00    +0.000 A 
ATOM     17  C   UNL     1       0.630   0.848   0.996  0.00  0.00    +0.000 A 
ENDBRANCH  11  15
ENDBRANCH   1  11
TORSDOF 3
