REMARK  Name = *****
REMARK  1 active torsions:
REMARK  status: ('A' for Active; 'I' for Inactive)
REMARK    1  A    between atoms: C_6  and  C_10
REMARK                            x       y       z     vdW  Elec       q    Type
REMARK                         _______ _______ _______ _____ _____    ______ ____
ROOT
ATOM      1  C   UNL     1       1.627  -0.960  -0.517  0.00  0.00    +0.000 C 
ATOM      2  C   UNL     1       1.964  -2.246   0.156  0.00  0.00    +0.000 C 
ATOM      3  C   UNL     1       2.690  -2.182   1.287  0.00  0.00    +0.000 C 
ATOM      4  C   UNL     1       3.029  -0.830   1.665  0.00  0.00    +0.000 C 
ATOM      5  C   UNL     1       3.700  -0.399   2.736  0.00  0.00    +0.000 C 
ATOM      6  C   UNL     1       4.240  -1.211   3.800  0.00  0.00    +0.000 C 
ATOM      7  C   UNL     1       4.195  -2.552   3.844  0.00  0.00    +0.000 C 
ATOM      8  N   UNL     1       3.688  -3.482   2.987  0.00  0.00    +0.000 NA
ATOM      9  N   UNL     1       3.058  -3.323   1.931  0.00  0.00    +0.000 NA
ATOM     10  S   UNL     1       2.413   0.331   0.500  0.00  0.00    +0.000 S 
ENDROOT
BRANCH   6  11
ATOM     11  C   UNL     1       4.902  -0.561   4.955  0.00  0.00    +0.000 A 
ATOM     12  C   UNL     1       6.289  -0.360   4.954  0.00  0.00    +0.000 A 
ATOM     13  C   UNL     1       6.908   0.260   6.041  0.00  0.00    +0.000 A 
ATOM     14  C   UNL     1       6.147   0.686   7.129  0.00  0.00    +0.000 A 
ATOM     15  C   UNL     1       4.766   0.495   7.133  0.00  0.00    +0.000 A 
ATOM     16  C   UNL     1       4.143  -0.125   6.048  0.00  0.00    +0.000 A 
ENDBRANCH   6  11
TORSDOF 1
