REMARK  Name = *****
REMARK  2 active torsions:
REMARK  status: ('A' for Active; 'I' for Inactive)
REMARK    1  A    between atoms: C_4  and  C_7
REMARK    2  A    between atoms: N_8  and  C_9
REMARK                            x       y       z     vdW  Elec       q    Type
REMARK                         _______ _______ _______ _____ _____    ______ ____
ROOT
ATOM      1  C   UNL     1      -2.900   0.269  -0.180  0.00  0.00    +0.000 C 
ATOM      2  N   UNL     1      -3.643  -0.594  -0.798  0.00  0.00    +0.000 NA
ENDROOT
BRANCH   2   3
ATOM      3  C   UNL     1      -5.015  -0.316  -0.821  0.00  0.00    +0.000 A 
ATOM      4  C   UNL     1      -5.559   0.491  -1.825  0.00  0.00    +0.000 A 
ATOM      5  C   UNL     1      -6.931   0.754  -1.856  0.00  0.00    +0.000 A 
ATOM      6  C   UNL     1      -7.762   0.197  -0.885  0.00  0.00    +0.000 A 
ATOM      7  C   UNL     1      -7.234  -0.622   0.111  0.00  0.00    +0.000 A 
ATOM      8  C   UNL     1      -5.861  -0.881   0.138  0.00  0.00    +0.000 A 
ATOM      9 CL   UNL     1      -9.451   0.518  -0.921  0.00  0.00    +0.000 Cl
ENDBRANCH   2   3
BRANCH   1  13
ATOM     10  C   UNL     1       1.330  -0.153   0.148  0.00  0.00    +0.000 A 
ATOM     11  C   UNL     1       0.590  -1.129  -0.522  0.00  0.00    +0.000 A 
ATOM     12  C   UNL     1      -0.795  -0.999  -0.635  0.00  0.00    +0.000 A 
ATOM     13  C   UNL     1      -1.437   0.109  -0.075  0.00  0.00    +0.000 A 
ATOM     14  C   UNL     1      -0.697   1.087   0.597  0.00  0.00    +0.000 A 
ATOM     15  C   UNL     1       0.688   0.953   0.706  0.00  0.00    +0.000 A 
ENDBRANCH   1  13
TORSDOF 2
