REMARK  Name = *****
REMARK  5 active torsions:
REMARK  status: ('A' for Active; 'I' for Inactive)
REMARK    1  A    between atoms: C_1  and  C_2
REMARK    2  A    between atoms: C_7  and  C_8
REMARK    3  A    between atoms: C_8  and  O_10
REMARK    4  A    between atoms: O_10  and  C_11
REMARK    5  A    between atoms: C_11  and  C_12
REMARK                            x       y       z     vdW  Elec       q    Type
REMARK                         _______ _______ _______ _____ _____    ______ ____
ROOT
ATOM      1  C   UNL     1       4.054  -1.965  -0.736  0.00  0.00    +0.000 C 
ATOM      2  O   UNL     1       3.955  -3.040  -1.320  0.00  0.00    +0.000 OA
ENDROOT
BRANCH   1   9
ATOM      3  C   UNL     1       2.138  -0.221  -2.135  0.00  0.00    +0.000 C 
ATOM      4  C   UNL     1       2.308  -0.062  -0.618  0.00  0.00    +0.000 C 
ATOM      5  C   UNL     1       3.038   1.222  -0.305  0.00  0.00    +0.000 C 
ATOM      6  C   UNL     1       3.925   1.380   0.689  0.00  0.00    +0.000 C 
ATOM      7  C   UNL     1       4.367   0.362   1.693  0.00  0.00    +0.000 C 
ATOM      8  S   UNL     1       3.301  -1.097   1.803  0.00  0.00    +0.000 S 
ATOM      9  C   UNL     1       2.897  -1.332   0.030  0.00  0.00    +0.000 C 
ENDBRANCH   1   9
BRANCH   1  10
ATOM     10  O   UNL     1       5.171  -1.192  -0.734  0.00  0.00    +0.000 OA
BRANCH  10  11
ATOM     11  C   UNL     1       6.268  -1.668  -1.521  0.00  0.00    +0.000 C 
BRANCH  11  12
ATOM     12  C   UNL     1       6.220  -1.017  -2.878  0.00  0.00    +0.000 A 
ATOM     13  C   UNL     1       6.590   0.326  -3.034  0.00  0.00    +0.000 A 
ATOM     14  C   UNL     1       6.519   0.938  -4.286  0.00  0.00    +0.000 A 
ATOM     15  C   UNL     1       6.069   0.217  -5.390  0.00  0.00    +0.000 A 
ATOM     16  C   UNL     1       5.686  -1.115  -5.243  0.00  0.00    +0.000 A 
ATOM     17  C   UNL     1       5.757  -1.729  -3.992  0.00  0.00    +0.000 A 
ENDBRANCH  11  12
ENDBRANCH  10  11
ENDBRANCH   1  10
TORSDOF 4
