REMARK  Name = *****
REMARK  5 active torsions:
REMARK  status: ('A' for Active; 'I' for Inactive)
REMARK    1  A    between atoms: C_1  and  C_2
REMARK    2  A    between atoms: C_1  and  N_8
REMARK    3  A    between atoms: N_8  and  C_9
REMARK    4  A    between atoms: N_8  and  N_16
REMARK    5  A    between atoms: C_9  and  C_10
REMARK                            x       y       z     vdW  Elec       q    Type
REMARK                         _______ _______ _______ _____ _____    ______ ____
ROOT
ATOM      1  N   UNL     1       2.594   1.323   0.123  0.00  0.00    +0.000 NA
ENDROOT
BRANCH   1   2
ATOM      2  N   UNL     1       3.504   1.663   1.012  0.00  0.00    +0.000 NA
ATOM      3  O   UNL     1       4.629   1.273   0.680  0.00  0.00    +0.000 OA
ENDBRANCH   1   2
BRANCH   1   4
ATOM      4  C   UNL     1       2.444  -0.125  -0.139  0.00  0.00    +0.000 C 
BRANCH   4   5
ATOM      5  C   UNL     1       1.778  -0.943   0.954  0.00  0.00    +0.000 A 
ATOM      6  C   UNL     1       0.430  -1.318   0.845  0.00  0.00    +0.000 A 
ATOM      7  C   UNL     1      -0.182  -2.067   1.852  0.00  0.00    +0.000 A 
ATOM      8  C   UNL     1       0.546  -2.449   2.977  0.00  0.00    +0.000 A 
ATOM      9  C   UNL     1       1.885  -2.086   3.096  0.00  0.00    +0.000 A 
ATOM     10  C   UNL     1       2.499  -1.338   2.091  0.00  0.00    +0.000 A 
ENDBRANCH   4   5
ENDBRANCH   1   4
BRANCH   1  11
ATOM     11  C   UNL     1       1.291   1.975   0.334  0.00  0.00    +0.000 C 
BRANCH  11  12
ATOM     12  C   UNL     1       1.310   3.466   0.047  0.00  0.00    +0.000 A 
ATOM     13  C   UNL     1       1.363   3.934  -1.275  0.00  0.00    +0.000 A 
ATOM     14  C   UNL     1       1.382   5.304  -1.540  0.00  0.00    +0.000 A 
ATOM     15  C   UNL     1       1.353   6.219  -0.490  0.00  0.00    +0.000 A 
ATOM     16  C   UNL     1       1.309   5.766   0.828  0.00  0.00    +0.000 A 
ATOM     17  C   UNL     1       1.290   4.396   1.097  0.00  0.00    +0.000 A 
ENDBRANCH  11  12
ENDBRANCH   1  11
TORSDOF 5
