REMARK  Name = *****
REMARK  2 active torsions:
REMARK  status: ('A' for Active; 'I' for Inactive)
REMARK    1  A    between atoms: C_4  and  C_7
REMARK    2  A    between atoms: C_7  and  C_8
REMARK                            x       y       z     vdW  Elec       q    Type
REMARK                         _______ _______ _______ _____ _____    ______ ____
ROOT
ATOM      1  C   UNL     1      -1.288   1.479   2.831  0.00  0.00    +0.000 C 
ATOM      2  C   UNL     1      -2.531   0.989   2.657  0.00  0.00    +0.000 C 
ATOM      3  C   UNL     1      -3.744   1.560   3.323  0.00  0.00    +0.000 C 
ATOM      4  C   UNL     1      -3.581   3.055   3.586  0.00  0.00    +0.000 C 
ATOM      5  C   UNL     1      -2.228   3.361   4.181  0.00  0.00    +0.000 A 
ATOM      6  C   UNL     1      -2.089   4.443   5.064  0.00  0.00    +0.000 A 
ATOM      7  C   UNL     1      -0.847   4.748   5.610  0.00  0.00    +0.000 A 
ATOM      8  C   UNL     1       0.261   3.977   5.275  0.00  0.00    +0.000 A 
ATOM      9  C   UNL     1       0.133   2.908   4.382  0.00  0.00    +0.000 A 
ATOM     10  C   UNL     1      -1.105   2.590   3.805  0.00  0.00    +0.000 A 
ATOM     11  F   UNL     1      -2.712  -0.039   1.795  0.00  0.00    +0.000 F 
ENDROOT
BRANCH   1  12
ATOM     12  C   UNL     1      -0.124   0.888   2.057  0.00  0.00    +0.000 C 
BRANCH  12  16
ATOM     13  C   UNL     1       2.765   2.575   0.037  0.00  0.00    +0.000 C 
ATOM     14  C   UNL     1       1.719   3.383   0.790  0.00  0.00    +0.000 C 
ATOM     15  S   UNL     1       0.031   3.065   0.214  0.00  0.00    +0.000 S 
ATOM     16  C   UNL     1      -0.108   1.274   0.559  0.00  0.00    +0.000 C 
ATOM     17  S   UNL     1       1.153   0.338  -0.382  0.00  0.00    +0.000 S 
ATOM     18  C   UNL     1       2.676   1.075   0.274  0.00  0.00    +0.000 C 
ENDBRANCH  12  16
ENDBRANCH   1  12
TORSDOF 2
