REMARK  Name = *****
REMARK  3 active torsions:
REMARK  status: ('A' for Active; 'I' for Inactive)
REMARK    1  A    between atoms: C_1  and  C_2
REMARK    2  A    between atoms: C_2  and  C_10
REMARK    3  A    between atoms: N_3  and  C_4
REMARK                            x       y       z     vdW  Elec       q    Type
REMARK                         _______ _______ _______ _____ _____    ______ ____
ROOT
ATOM      1  C   UNL     1       1.735   0.903   0.974  0.00  0.00    +0.000 C 
ATOM      2  C   UNL     1       2.628  -0.011   0.159  0.00  0.00    +0.000 C 
ATOM      3  N   UNL     1       2.820  -1.274   0.402  0.00  0.00    +0.000 NA
ENDROOT
BRANCH   2   4
ATOM      4  C   UNL     1       3.289   0.574  -1.034  0.00  0.00    +0.000 A 
ATOM      5  C   UNL     1       3.020  -0.028  -2.272  0.00  0.00    +0.000 A 
ATOM      6  C   UNL     1       3.597   0.480  -3.437  0.00  0.00    +0.000 A 
ATOM      7  C   UNL     1       4.449   1.581  -3.368  0.00  0.00    +0.000 A 
ATOM      8  C   UNL     1       4.735   2.169  -2.134  0.00  0.00    +0.000 A 
ATOM      9  C   UNL     1       4.160   1.666  -0.962  0.00  0.00    +0.000 A 
ATOM     10 CL   UNL     1       4.616   2.403   0.532  0.00  0.00    +0.000 Cl
ENDBRANCH   2   4
BRANCH   3  11
ATOM     11  C   UNL     1       2.214  -1.864   1.519  0.00  0.00    +0.000 A 
ATOM     12  C   UNL     1       1.013  -2.564   1.378  0.00  0.00    +0.000 A 
ATOM     13  C   UNL     1       0.415  -3.172   2.484  0.00  0.00    +0.000 A 
ATOM     14  C   UNL     1       1.025  -3.093   3.736  0.00  0.00    +0.000 A 
ATOM     15  C   UNL     1       2.234  -2.414   3.880  0.00  0.00    +0.000 A 
ATOM     16  C   UNL     1       2.829  -1.808   2.772  0.00  0.00    +0.000 A 
ENDBRANCH   3  11
TORSDOF 2
