REMARK  Name = *****
REMARK  1 active torsions:
REMARK  status: ('A' for Active; 'I' for Inactive)
REMARK    1  A    between atoms: C_8  and  C_10
REMARK                            x       y       z     vdW  Elec       q    Type
REMARK                         _______ _______ _______ _____ _____    ______ ____
ROOT
ATOM      1  C   UNL     1       2.208   0.636  -0.049  0.00  0.00    +0.000 A 
ATOM      2  C   UNL     1       2.133  -0.763  -0.013  0.00  0.00    +0.000 A 
ATOM      3  C   UNL     1       0.901  -1.427   0.029  0.00  0.00    +0.000 A 
ATOM      4  C   UNL     1      -0.223  -0.609   0.033  0.00  0.00    +0.000 A 
ATOM      5  C   UNL     1      -0.193   0.775  -0.001  0.00  0.00    +0.000 A 
ATOM      6  C   UNL     1       1.047   1.425  -0.043  0.00  0.00    +0.000 A 
ATOM      7  N   UNL     1      -1.472   1.268   0.014  0.00  0.00    +0.000 NA
ATOM      8  C   UNL     1      -2.228   0.184   0.058  0.00  0.00    +0.000 A 
ATOM      9  O   UNL     1      -1.529  -0.998   0.071  0.00  0.00    +0.000 OA
ENDROOT
BRANCH   8  10
ATOM     10  C   UNL     1      -3.685   0.084   0.094  0.00  0.00    +0.000 A 
ATOM     11  C   UNL     1      -4.342  -1.152   0.143  0.00  0.00    +0.000 A 
ATOM     12  C   UNL     1      -5.732  -1.201   0.178  0.00  0.00    +0.000 A 
ATOM     13  C   UNL     1      -6.495  -0.040   0.165  0.00  0.00    +0.000 A 
ATOM     14  C   UNL     1      -5.858   1.197   0.116  0.00  0.00    +0.000 A 
ATOM     15  C   UNL     1      -4.461   1.256   0.080  0.00  0.00    +0.000 A 
ATOM     16  F   UNL     1      -6.347  -2.390   0.226  0.00  0.00    +0.000 F 
ENDBRANCH   8  10
TORSDOF 1
