REMARK  Name = *****
REMARK  2 active torsions:
REMARK  status: ('A' for Active; 'I' for Inactive)
REMARK    1  A    between atoms: C_4  and  C_7
REMARK    2  A    between atoms: N_9  and  C_10
REMARK                            x       y       z     vdW  Elec       q    Type
REMARK                         _______ _______ _______ _____ _____    ______ ____
ROOT
ATOM      1  C   UNL     1      -3.010   0.439  -0.557  0.00  0.00    +0.000 C 
ATOM      2  C   UNL     1      -4.412   0.365  -0.040  0.00  0.00    +0.000 C 
ATOM      3  N   UNL     1      -4.137   0.033  -1.429  0.00  0.00    +0.000 N 
ATOM      4  F   UNL     1      -4.720  -0.622   0.875  0.00  0.00    +0.000 F 
ENDROOT
BRANCH   1   8
ATOM      5  C   UNL     1      -1.151   4.280  -1.308  0.00  0.00    +0.000 A 
ATOM      6  C   UNL     1      -1.499   3.913  -0.012  0.00  0.00    +0.000 A 
ATOM      7  C   UNL     1      -2.101   2.674   0.226  0.00  0.00    +0.000 A 
ATOM      8  C   UNL     1      -2.375   1.779  -0.823  0.00  0.00    +0.000 A 
ATOM      9  C   UNL     1      -2.006   2.173  -2.120  0.00  0.00    +0.000 A 
ATOM     10  C   UNL     1      -1.404   3.410  -2.364  0.00  0.00    +0.000 A 
ENDBRANCH   1   8
BRANCH   3  11
ATOM     11  C   UNL     1      -4.216  -1.307  -1.883  0.00  0.00    +0.000 A 
ATOM     12  C   UNL     1      -3.873  -2.446  -1.141  0.00  0.00    +0.000 A 
ATOM     13  C   UNL     1      -3.981  -3.727  -1.695  0.00  0.00    +0.000 A 
ATOM     14  C   UNL     1      -4.433  -3.890  -3.002  0.00  0.00    +0.000 A 
ATOM     15  C   UNL     1      -4.780  -2.773  -3.756  0.00  0.00    +0.000 A 
ATOM     16  C   UNL     1      -4.671  -1.497  -3.199  0.00  0.00    +0.000 A 
ENDBRANCH   3  11
TORSDOF 2
