REMARK  Name = *****
REMARK  6 active torsions:
REMARK  status: ('A' for Active; 'I' for Inactive)
REMARK    1  A    between atoms: C_1  and  C_2
REMARK    2  A    between atoms: C_5  and  S_8
REMARK    3  A    between atoms: S_8  and  C_9
REMARK    4  A    between atoms: C_9  and  C_10
REMARK    5  A    between atoms: C_12  and  O_17
REMARK    6  A    between atoms: O_17  and  C_18
REMARK                            x       y       z     vdW  Elec       q    Type
REMARK                         _______ _______ _______ _____ _____    ______ ____
ROOT
ATOM      1  C   UNL     1      -4.146   1.649   0.246  0.00  0.00    +0.000 C 
ENDROOT
BRANCH   1   2
ATOM      2  C   UNL     1      -5.661   1.761  -0.020  0.00  0.00    +0.000 C 
ATOM      3  C   UNL     1      -6.155   0.813  -1.126  0.00  0.00    +0.000 C 
ATOM      4  C   UNL     1      -5.759   1.267  -2.537  0.00  0.00    +0.000 C 
ATOM      5  C   UNL     1      -6.278   2.683  -2.801  0.00  0.00    +0.000 C 
ATOM      6  C   UNL     1      -5.825   3.697  -1.756  0.00  0.00    +0.000 C 
ATOM      7  C   UNL     1      -6.096   3.211  -0.328  0.00  0.00    +0.000 C 
ATOM      8 CL   UNL     1      -4.100   4.111  -1.982  0.00  0.00    +0.000 Cl
BRANCH   4   9
ATOM      9  O   UNL     1      -6.362   0.420  -3.522  0.00  0.00    +0.000 OA
ATOM     10  C   UNL     1      -5.669  -0.807  -3.713  0.00  0.00    +0.000 C 
ENDBRANCH   4   9
ENDBRANCH   1   2
BRANCH   1  11
ATOM     11  S   UNL     1      -3.730   0.079   1.095  0.00  0.00    +0.000 S 
BRANCH  11  16
ATOM     12  C   UNL     1       2.362   0.106   0.786  0.00  0.00    +0.000 C 
ATOM     13  C   UNL     1       0.863   0.124   0.837  0.00  0.00    +0.000 A 
ATOM     14  C   UNL     1       0.184   1.222   1.377  0.00  0.00    +0.000 A 
ATOM     15  C   UNL     1      -1.212   1.224   1.457  0.00  0.00    +0.000 A 
ATOM     16  C   UNL     1      -1.949   0.128   1.000  0.00  0.00    +0.000 A 
ATOM     17  C   UNL     1      -1.270  -0.982   0.488  0.00  0.00    +0.000 A 
ATOM     18  C   UNL     1       0.126  -0.985   0.408  0.00  0.00    +0.000 A 
ENDBRANCH  11  16
ENDBRANCH   1  11
TORSDOF 4
