REMARK  Name = *****
REMARK  4 active torsions:
REMARK  status: ('A' for Active; 'I' for Inactive)
REMARK    1  A    between atoms: C_1  and  P_2
REMARK    2  A    between atoms: P_2  and  C_3
REMARK    3  A    between atoms: P_2  and  O_9
REMARK    4  A    between atoms: O_9  and  C_10
REMARK                            x       y       z     vdW  Elec       q    Type
REMARK                         _______ _______ _______ _____ _____    ______ ____
ROOT
ATOM      1  C   UNL     1       0.948  -0.119  -0.036  0.00  0.00    +0.000 C 
ATOM      2  P   UNL     1       2.736   0.239  -0.279  0.00  0.00    +0.000 P 
ENDROOT
BRANCH   2   3
ATOM      3  C   UNL     1       3.087   1.140   1.271  0.00  0.00    +0.000 A 
ATOM      4  C   UNL     1       3.160   0.501   2.518  0.00  0.00    +0.000 A 
ATOM      5  C   UNL     1       3.429   1.230   3.679  0.00  0.00    +0.000 A 
ATOM      6  C   UNL     1       3.626   2.607   3.610  0.00  0.00    +0.000 A 
ATOM      7  C   UNL     1       3.555   3.256   2.380  0.00  0.00    +0.000 A 
ATOM      8  C   UNL     1       3.287   2.527   1.218  0.00  0.00    +0.000 A 
ENDBRANCH   2   3
BRANCH   2   9
ATOM      9  O   UNL     1       3.316  -1.224   0.085  0.00  0.00    +0.000 OA
BRANCH   9  10
ATOM     10  C   UNL     1       4.601  -1.681  -0.077  0.00  0.00    +0.000 A 
ATOM     11  C   UNL     1       5.629  -0.937  -0.667  0.00  0.00    +0.000 A 
ATOM     12  C   UNL     1       6.912  -1.477  -0.795  0.00  0.00    +0.000 A 
ATOM     13  C   UNL     1       7.180  -2.765  -0.337  0.00  0.00    +0.000 A 
ATOM     14  C   UNL     1       6.165  -3.517   0.252  0.00  0.00    +0.000 A 
ATOM     15  C   UNL     1       4.882  -2.977   0.381  0.00  0.00    +0.000 A 
ATOM     16 BR   UNL     1       3.544  -4.051   1.201  0.00  0.00    +0.000 Br
ENDBRANCH   9  10
ENDBRANCH   2   9
TORSDOF 3
