REMARK  Name = *****
REMARK  5 active torsions:
REMARK  status: ('A' for Active; 'I' for Inactive)
REMARK    1  A    between atoms: C_1  and  C_2
REMARK    2  A    between atoms: C_4  and  C_17
REMARK    3  A    between atoms: C_6  and  S_8
REMARK    4  A    between atoms: S_8  and  C_10
REMARK    5  A    between atoms: C_10  and  C_11
REMARK                            x       y       z     vdW  Elec       q    Type
REMARK                         _______ _______ _______ _____ _____    ______ ____
ROOT
ATOM      1  S   UNL     1      -0.829  -2.793  -2.167  0.00  0.00    +0.000 S 
ATOM      2  O   UNL     1      -0.637  -1.943  -0.944  0.00  0.00    +0.000 OA
ENDROOT
BRANCH   1   8
ATOM      3  C   UNL     1       1.897  -3.510  -6.636  0.00  0.00    +0.000 C 
ATOM      4  C   UNL     1       1.888  -3.052  -5.207  0.00  0.00    +0.000 A 
ATOM      5  C   UNL     1       3.073  -2.624  -4.594  0.00  0.00    +0.000 A 
ATOM      6  C   UNL     1       3.080  -2.204  -3.258  0.00  0.00    +0.000 A 
ATOM      7  C   UNL     1       1.890  -2.250  -2.522  0.00  0.00    +0.000 A 
ATOM      8  C   UNL     1       0.706  -2.706  -3.111  0.00  0.00    +0.000 A 
ATOM      9  C   UNL     1       0.709  -3.101  -4.453  0.00  0.00    +0.000 A 
ATOM     10  C   UNL     1       4.359  -1.778  -2.600  0.00  0.00    +0.000 C 
ENDBRANCH   1   8
BRANCH   1  11
ATOM     11  C   UNL     1      -0.751  -4.552  -1.685  0.00  0.00    +0.000 C 
BRANCH  11  12
ATOM     12  C   UNL     1       0.439  -4.949  -0.849  0.00  0.00    +0.000 A 
ATOM     13  C   UNL     1       0.521  -4.571   0.500  0.00  0.00    +0.000 A 
ATOM     14  C   UNL     1       1.624  -4.933   1.274  0.00  0.00    +0.000 A 
ATOM     15  C   UNL     1       2.657  -5.678   0.711  0.00  0.00    +0.000 A 
ATOM     16  C   UNL     1       2.590  -6.059  -0.628  0.00  0.00    +0.000 A 
ATOM     17  C   UNL     1       1.487  -5.698  -1.404  0.00  0.00    +0.000 A 
ENDBRANCH  11  12
ENDBRANCH   1  11
TORSDOF 3
