REMARK  Name = *****
REMARK  3 active torsions:
REMARK  status: ('A' for Active; 'I' for Inactive)
REMARK    1  A    between atoms: N_6  and  C_7
REMARK    2  A    between atoms: C_7  and  C_8
REMARK    3  A    between atoms: C_8  and  C_9
REMARK                            x       y       z     vdW  Elec       q    Type
REMARK                         _______ _______ _______ _____ _____    ______ ____
ROOT
ATOM      1  C   UNL     1      -1.612   0.722   0.513  0.00  0.00    +0.000 C 
ATOM      2  C   UNL     1      -0.463   1.672   0.182  0.00  0.00    +0.000 C 
ATOM      3  C   UNL     1       0.907   1.164   0.630  0.00  0.00    +0.000 C 
ATOM      4  C   UNL     1       1.574   0.237  -0.378  0.00  0.00    +0.000 C 
ATOM      5  C   UNL     1       0.852  -1.065  -0.685  0.00  0.00    +0.000 C 
ATOM      6  N   UNL     1       1.201  -1.880  -1.624  0.00  0.00    +0.000 NA
ATOM      7  C   UNL     1      -0.349  -1.463   0.150  0.00  0.00    +0.000 C 
ATOM      8  C   UNL     1      -1.565  -0.620  -0.212  0.00  0.00    +0.000 C 
ENDROOT
BRANCH   6   9
ATOM      9  C   UNL     1       2.359  -1.559  -2.459  0.00  0.00    +0.000 C 
BRANCH   9  10
ATOM     10  C   UNL     1       2.614  -2.732  -3.409  0.00  0.00    +0.000 C 
BRANCH  10  11
ATOM     11  C   UNL     1       3.797  -2.477  -4.310  0.00  0.00    +0.000 A 
ATOM     12  C   UNL     1       5.083  -2.880  -3.926  0.00  0.00    +0.000 A 
ATOM     13  C   UNL     1       6.180  -2.625  -4.750  0.00  0.00    +0.000 A 
ATOM     14  C   UNL     1       6.002  -1.960  -5.963  0.00  0.00    +0.000 A 
ATOM     15  C   UNL     1       4.728  -1.551  -6.352  0.00  0.00    +0.000 A 
ATOM     16  C   UNL     1       3.630  -1.806  -5.529  0.00  0.00    +0.000 A 
ENDBRANCH  10  11
ENDBRANCH   9  10
ENDBRANCH   6   9
TORSDOF 3
