REMARK  Name = *****
REMARK  4 active torsions:
REMARK  status: ('A' for Active; 'I' for Inactive)
REMARK    1  A    between atoms: C_1  and  C_2
REMARK    2  A    between atoms: C_5  and  C_8
REMARK    3  A    between atoms: C_8  and  N_9
REMARK    4  A    between atoms: N_9  and  C_10
REMARK                            x       y       z     vdW  Elec       q    Type
REMARK                         _______ _______ _______ _____ _____    ______ ____
ROOT
ATOM      1  N   UNL     1      -4.034   1.278  -0.063  0.00  0.00    +0.000 N 
ATOM      2  O   UNL     1      -3.611   2.477  -0.121  0.00  0.00    +0.000 OA
ENDROOT
BRANCH   1   3
ATOM      3  C   UNL     1      -5.471   1.045  -0.036  0.00  0.00    +0.000 A 
ATOM      4  C   UNL     1      -6.072   0.176  -0.954  0.00  0.00    +0.000 A 
ATOM      5  C   UNL     1      -7.452  -0.008  -0.907  0.00  0.00    +0.000 A 
ATOM      6  C   UNL     1      -8.230   0.672   0.032  0.00  0.00    +0.000 A 
ATOM      7  C   UNL     1      -7.626   1.553   0.932  0.00  0.00    +0.000 A 
ATOM      8  C   UNL     1      -6.245   1.746   0.897  0.00  0.00    +0.000 A 
ATOM      9 CL   UNL     1      -8.206  -1.083  -2.019  0.00  0.00    +0.000 Cl
ENDBRANCH   1   3
BRANCH   1  10
ATOM     10  C   UNL     1      -3.252   0.223  -0.011  0.00  0.00    +0.000 C 
BRANCH  10  15
ATOM     11  C   UNL     1       2.523  -0.085  -0.093  0.00  0.00    +0.000 C 
ATOM     12  C   UNL     1       1.028   0.013  -0.038  0.00  0.00    +0.000 A 
ATOM     13  C   UNL     1       0.407   1.226   0.280  0.00  0.00    +0.000 A 
ATOM     14  C   UNL     1      -0.988   1.332   0.299  0.00  0.00    +0.000 A 
ATOM     15  C   UNL     1      -1.779   0.228  -0.020  0.00  0.00    +0.000 A 
ATOM     16  C   UNL     1      -1.162  -0.987  -0.341  0.00  0.00    +0.000 A 
ATOM     17  C   UNL     1       0.232  -1.091  -0.360  0.00  0.00    +0.000 A 
ENDBRANCH  10  15
ENDBRANCH   1  10
TORSDOF 3
