REMARK  Name = *****
REMARK  2 active torsions:
REMARK  status: ('A' for Active; 'I' for Inactive)
REMARK    1  A    between atoms: C_4  and  O_7
REMARK    2  A    between atoms: O_7  and  N_8
REMARK                            x       y       z     vdW  Elec       q    Type
REMARK                         _______ _______ _______ _____ _____    ______ ____
ROOT
ATOM      1  N   UNL     1      -4.050   0.627  -0.415  0.00  0.00    +0.000 N 
ATOM      2  C   UNL     1      -3.630   1.065  -1.641  0.00  0.00    +0.000 A 
ATOM      3  C   UNL     1      -4.712   1.023  -2.491  0.00  0.00    +0.000 A 
ATOM      4  C   UNL     1      -5.838   0.585  -1.736  0.00  0.00    +0.000 A 
ATOM      5  C   UNL     1      -7.196   0.369  -2.042  0.00  0.00    +0.000 A 
ATOM      6  C   UNL     1      -8.068  -0.058  -1.034  0.00  0.00    +0.000 A 
ATOM      7  C   UNL     1      -7.608  -0.268   0.264  0.00  0.00    +0.000 A 
ATOM      8  C   UNL     1      -6.266  -0.062   0.594  0.00  0.00    +0.000 A 
ATOM      9  C   UNL     1      -5.401   0.362  -0.427  0.00  0.00    +0.000 A 
ENDROOT
BRANCH   1  10
ATOM     10  O   UNL     1      -3.237   0.608   0.722  0.00  0.00    +0.000 OA
BRANCH  10  14
ATOM     11  C   UNL     1      -1.610  -3.055   1.890  0.00  0.00    +0.000 A 
ATOM     12  C   UNL     1      -2.156  -2.955   0.611  0.00  0.00    +0.000 A 
ATOM     13  C   UNL     1      -2.713  -1.749   0.175  0.00  0.00    +0.000 A 
ATOM     14  C   UNL     1      -2.730  -0.639   1.023  0.00  0.00    +0.000 A 
ATOM     15  C   UNL     1      -2.171  -0.744   2.301  0.00  0.00    +0.000 A 
ATOM     16  C   UNL     1      -1.616  -1.949   2.736  0.00  0.00    +0.000 A 
ENDBRANCH  10  14
ENDBRANCH   1  10
TORSDOF 2
