REMARK  Name = *****
REMARK  4 active torsions:
REMARK  status: ('A' for Active; 'I' for Inactive)
REMARK    1  A    between atoms: C_1  and  C_2
REMARK    2  A    between atoms: C_2  and  C_4
REMARK    3  A    between atoms: C_7  and  C_10
REMARK    4  A    between atoms: C_11  and  C_12
REMARK                            x       y       z     vdW  Elec       q    Type
REMARK                         _______ _______ _______ _____ _____    ______ ____
ROOT
ATOM      1  C   UNL     1       3.360  -1.033   0.381  0.00  0.00    +0.000 A 
ATOM      2  C   UNL     1       2.950  -2.365   0.273  0.00  0.00    +0.000 A 
ATOM      3  C   UNL     1       3.775  -3.394   0.744  0.00  0.00    +0.000 A 
ATOM      4  C   UNL     1       5.024  -3.119   1.322  0.00  0.00    +0.000 A 
ATOM      5  C   UNL     1       5.419  -1.779   1.439  0.00  0.00    +0.000 A 
ATOM      6  C   UNL     1       4.597  -0.747   0.969  0.00  0.00    +0.000 A 
ENDROOT
BRANCH   1   8
ATOM      7  C   UNL     1       1.188  -0.192  -0.740  0.00  0.00    +0.000 C 
ATOM      8  C   UNL     1       2.522   0.104  -0.105  0.00  0.00    +0.000 C 
ATOM      9  O   UNL     1       2.926   1.258   0.016  0.00  0.00    +0.000 OA
ENDBRANCH   1   8
BRANCH   4  10
ATOM     10  C   UNL     1       5.840  -4.246   1.812  0.00  0.00    +0.000 C 
ATOM     11  C   UNL     1       7.177  -4.226   1.939  0.00  0.00    +0.000 C 
ATOM     12  F   UNL     1       5.160  -5.376   2.124  0.00  0.00    +0.000 F 
BRANCH  11  13
ATOM     13  C   UNL     1       8.000  -5.348   2.417  0.00  0.00    +0.000 A 
ATOM     14  C   UNL     1       7.747  -6.676   2.052  0.00  0.00    +0.000 A 
ATOM     15  C   UNL     1       8.579  -7.708   2.497  0.00  0.00    +0.000 A 
ATOM     16  C   UNL     1       9.680  -7.420   3.300  0.00  0.00    +0.000 A 
ATOM     17  C   UNL     1       9.953  -6.101   3.656  0.00  0.00    +0.000 A 
ATOM     18  C   UNL     1       9.121  -5.070   3.212  0.00  0.00    +0.000 A 
ENDBRANCH  11  13
ENDBRANCH   4  10
TORSDOF 3
