REMARK  Name = *****
REMARK  3 active torsions:
REMARK  status: ('A' for Active; 'I' for Inactive)
REMARK    1  A    between atoms: C_4  and  C_7
REMARK    2  A    between atoms: C_8  and  C_9
REMARK    3  A    between atoms: C_12  and  C_14
REMARK                            x       y       z     vdW  Elec       q    Type
REMARK                         _______ _______ _______ _____ _____    ______ ____
ROOT
ATOM      1  C   UNL     1       0.644  -0.139   0.001  0.00  0.00    +0.000 C 
ATOM      2  C   UNL     1      -0.555  -0.207   0.000  0.00  0.00    +0.000 C 
ENDROOT
BRANCH   1   6
ATOM      3  C   UNL     1       4.860   0.102   0.009  0.00  0.00    +0.000 A 
ATOM      4  C   UNL     1       4.096   1.268   0.007  0.00  0.00    +0.000 A 
ATOM      5  C   UNL     1       2.702   1.190   0.004  0.00  0.00    +0.000 A 
ATOM      6  C   UNL     1       2.072  -0.057   0.003  0.00  0.00    +0.000 A 
ATOM      7  C   UNL     1       2.839  -1.224   0.004  0.00  0.00    +0.000 A 
ATOM      8  C   UNL     1       4.233  -1.144   0.008  0.00  0.00    +0.000 A 
ENDBRANCH   1   6
BRANCH   2   9
ATOM      9  C   UNL     1      -1.978  -0.290   0.002  0.00  0.00    +0.000 A 
ATOM     10  C   UNL     1      -2.700  -1.464  -0.000  0.00  0.00    +0.000 A 
ATOM     11  C   UNL     1      -4.107  -1.230   0.003  0.00  0.00    +0.000 A 
ATOM     12  C   UNL     1      -4.407   0.117   0.007  0.00  0.00    +0.000 A 
ATOM     13  S   UNL     1      -2.998   1.081   0.006  0.00  0.00    +0.000 S 
BRANCH  12  14
ATOM     14  C   UNL     1      -5.709   0.743   0.012  0.00  0.00    +0.000 C 
ATOM     15  O   UNL     1      -6.776   0.132   0.013  0.00  0.00    +0.000 OA
ENDBRANCH  12  14
ENDBRANCH   2   9
TORSDOF 3
