REMARK  Name = *****
REMARK  2 active torsions:
REMARK  status: ('A' for Active; 'I' for Inactive)
REMARK    1  A    between atoms: C_4  and  C_7
REMARK    2  A    between atoms: C_8  and  C_9
REMARK                            x       y       z     vdW  Elec       q    Type
REMARK                         _______ _______ _______ _____ _____    ______ ____
ROOT
ATOM      1  C   UNL     1       2.925   0.191  -0.322  0.00  0.00    +0.000 C 
ATOM      2  C   UNL     1       4.116   0.264  -0.458  0.00  0.00    +0.000 C 
ENDROOT
BRANCH   2   3
ATOM      3  C   UNL     1       5.534   0.351  -0.622  0.00  0.00    +0.000 A 
ATOM      4  C   UNL     1       6.155   1.603  -0.685  0.00  0.00    +0.000 A 
ATOM      5  C   UNL     1       7.540   1.687  -0.847  0.00  0.00    +0.000 A 
ATOM      6  C   UNL     1       8.290   0.520  -0.946  0.00  0.00    +0.000 A 
ATOM      7  C   UNL     1       7.684  -0.730  -0.885  0.00  0.00    +0.000 A 
ATOM      8  C   UNL     1       6.300  -0.816  -0.722  0.00  0.00    +0.000 A 
ATOM      9  F   UNL     1       9.618   0.602  -1.102  0.00  0.00    +0.000 F 
ENDBRANCH   2   3
BRANCH   1  13
ATOM     10  C   UNL     1      -1.265  -0.064   0.144  0.00  0.00    +0.000 A 
ATOM     11  C   UNL     1      -0.647   1.184   0.068  0.00  0.00    +0.000 A 
ATOM     12  C   UNL     1       0.738   1.269  -0.085  0.00  0.00    +0.000 A 
ATOM     13  C   UNL     1       1.506   0.104  -0.163  0.00  0.00    +0.000 A 
ATOM     14  C   UNL     1       0.885  -1.145  -0.086  0.00  0.00    +0.000 A 
ATOM     15  C   UNL     1      -0.500  -1.228   0.067  0.00  0.00    +0.000 A 
ENDBRANCH   1  13
TORSDOF 2
