REMARK  Name = *****
REMARK  5 active torsions:
REMARK  status: ('A' for Active; 'I' for Inactive)
REMARK    1  A    between atoms: C_1  and  C_2
REMARK    2  A    between atoms: C_2  and  C_4
REMARK    3  A    between atoms: C_9  and  S_10
REMARK    4  A    between atoms: S_10  and  C_11
REMARK    5  A    between atoms: C_11  and  C_13
REMARK                            x       y       z     vdW  Elec       q    Type
REMARK                         _______ _______ _______ _____ _____    ______ ____
ROOT
ATOM      1  C   UNL     1       3.450  -0.908  -1.176  0.00  0.00    +0.000 A 
ATOM      2  C   UNL     1       3.207  -0.303  -2.421  0.00  0.00    +0.000 A 
ATOM      3  C   UNL     1       4.097  -0.486  -3.478  0.00  0.00    +0.000 A 
ATOM      4  C   UNL     1       5.235  -1.267  -3.297  0.00  0.00    +0.000 A 
ATOM      5  C   UNL     1       5.483  -1.867  -2.061  0.00  0.00    +0.000 A 
ATOM      6  C   UNL     1       4.595  -1.704  -0.985  0.00  0.00    +0.000 A 
ENDROOT
BRANCH   1   8
ATOM      7  C   UNL     1       1.014  -0.832  -0.389  0.00  0.00    +0.000 C 
ATOM      8  C   UNL     1       2.478  -0.650  -0.084  0.00  0.00    +0.000 C 
ATOM      9  O   UNL     1       2.868  -0.280   1.020  0.00  0.00    +0.000 OA
ENDBRANCH   1   8
BRANCH   6  10
ATOM     10  S   UNL     1       5.030  -2.542   0.537  0.00  0.00    +0.000 S 
BRANCH  10  11
ATOM     11  C   UNL     1       3.553  -3.436   0.886  0.00  0.00    +0.000 C 
ATOM     12  O   UNL     1       2.831  -3.861  -0.009  0.00  0.00    +0.000 OA
BRANCH  11  13
ATOM     13  C   UNL     1       3.240  -3.719   2.312  0.00  0.00    +0.000 A 
ATOM     14  C   UNL     1       3.594  -2.850   3.352  0.00  0.00    +0.000 A 
ATOM     15  C   UNL     1       3.262  -3.165   4.672  0.00  0.00    +0.000 A 
ATOM     16  C   UNL     1       2.569  -4.341   4.959  0.00  0.00    +0.000 A 
ATOM     17  C   UNL     1       2.198  -5.202   3.927  0.00  0.00    +0.000 A 
ATOM     18  C   UNL     1       2.527  -4.890   2.607  0.00  0.00    +0.000 A 
ENDBRANCH  11  13
ENDBRANCH  10  11
ENDBRANCH   6  10
TORSDOF 4
