REMARK  Name = *****
REMARK  2 active torsions:
REMARK  status: ('A' for Active; 'I' for Inactive)
REMARK    1  A    between atoms: C_4  and  C_7
REMARK    2  A    between atoms: C_7  and  C_8
REMARK                            x       y       z     vdW  Elec       q    Type
REMARK                         _______ _______ _______ _____ _____    ______ ____
ROOT
ATOM      1  C   UNL     1      -3.687  -0.886  -0.244  0.00  0.00    +0.000 A 
ATOM      2  C   UNL     1      -4.089  -1.566   0.918  0.00  0.00    +0.000 A 
ATOM      3  C   UNL     1      -4.838  -2.766   0.840  0.00  0.00    +0.000 A 
ATOM      4  C   UNL     1      -5.164  -3.259  -0.426  0.00  0.00    +0.000 A 
ATOM      5  C   UNL     1      -4.764  -2.595  -1.600  0.00  0.00    +0.000 A 
ATOM      6  C   UNL     1      -4.025  -1.413  -1.491  0.00  0.00    +0.000 A 
ATOM      7  S   UNL     1      -6.073  -4.720  -0.316  0.00  0.00    +0.000 S 
ATOM      8  C   UNL     1      -6.035  -4.703   1.388  0.00  0.00    +0.000 A 
ATOM      9  C   UNL     1      -5.350  -3.616   1.877  0.00  0.00    +0.000 A 
ENDROOT
BRANCH   1  10
ATOM     10  C   UNL     1      -2.874   0.385  -0.141  0.00  0.00    +0.000 C 
BRANCH  10  14
ATOM     11  C   UNL     1       1.378  -0.330   0.082  0.00  0.00    +0.000 A 
ATOM     12  C   UNL     1       0.761  -0.173  -1.158  0.00  0.00    +0.000 A 
ATOM     13  C   UNL     1      -0.613   0.061  -1.231  0.00  0.00    +0.000 A 
ATOM     14  C   UNL     1      -1.384   0.146  -0.063  0.00  0.00    +0.000 A 
ATOM     15  C   UNL     1      -0.753  -0.019   1.179  0.00  0.00    +0.000 A 
ATOM     16  C   UNL     1       0.622  -0.254   1.250  0.00  0.00    +0.000 A 
ENDBRANCH  10  14
ENDBRANCH   1  10
TORSDOF 2
