REMARK  Name = *****
REMARK  4 active torsions:
REMARK  status: ('A' for Active; 'I' for Inactive)
REMARK    1  A    between atoms: C_4  and  C_7
REMARK    2  A    between atoms: C_7  and  O_8
REMARK    3  A    between atoms: O_8  and  C_9
REMARK    4  A    between atoms: C_12  and  C_15
REMARK                            x       y       z     vdW  Elec       q    Type
REMARK                         _______ _______ _______ _____ _____    ______ ____
ROOT
ATOM      1  C   UNL     1      -4.964  -0.494  -0.763  0.00  0.00    +0.000 A 
ATOM      2  C   UNL     1      -5.666  -1.671  -1.035  0.00  0.00    +0.000 A 
ATOM      3  C   UNL     1      -7.063  -1.685  -1.035  0.00  0.00    +0.000 A 
ATOM      4  C   UNL     1      -7.782  -0.517  -0.753  0.00  0.00    +0.000 A 
ATOM      5  C   UNL     1      -7.074   0.662  -0.484  0.00  0.00    +0.000 A 
ATOM      6  C   UNL     1      -5.674   0.673  -0.485  0.00  0.00    +0.000 A 
ENDROOT
BRANCH   4   7
ATOM      7  C   UNL     1      -9.289  -0.517  -0.787  0.00  0.00    +0.000 C 
ATOM      8  F   UNL     1      -9.832  -1.708  -0.409  0.00  0.00    +0.000 F 
ATOM      9  F   UNL     1      -9.842   0.419   0.035  0.00  0.00    +0.000 F 
ENDBRANCH   4   7
BRANCH   1  10
ATOM     10  O   UNL     1      -3.603  -0.623  -0.798  0.00  0.00    +0.000 OA
BRANCH  10  11
ATOM     11  C   UNL     1      -2.830   0.555  -0.565  0.00  0.00    +0.000 C 
BRANCH  11  15
ATOM     12  C   UNL     1       1.390  -0.258  -1.009  0.00  0.00    +0.000 A 
ATOM     13  C   UNL     1       0.474  -0.852  -1.874  0.00  0.00    +0.000 A 
ATOM     14  C   UNL     1      -0.891  -0.600  -1.728  0.00  0.00    +0.000 A 
ATOM     15  C   UNL     1      -1.358   0.240  -0.705  0.00  0.00    +0.000 A 
ATOM     16  C   UNL     1      -0.423   0.842   0.151  0.00  0.00    +0.000 A 
ATOM     17  C   UNL     1       0.942   0.590   0.002  0.00  0.00    +0.000 A 
ENDBRANCH  11  15
ENDBRANCH  10  11
ENDBRANCH   1  10
TORSDOF 4
