REMARK  Name = *****
REMARK  5 active torsions:
REMARK  status: ('A' for Active; 'I' for Inactive)
REMARK    1  A    between atoms: C_1  and  C_2
REMARK    2  A    between atoms: C_2  and  C_3
REMARK    3  A    between atoms: C_2  and  C_9
REMARK    4  A    between atoms: C_9  and  C_10
REMARK    5  A    between atoms: C_9  and  C_11
REMARK                            x       y       z     vdW  Elec       q    Type
REMARK                         _______ _______ _______ _____ _____    ______ ____
ROOT
ATOM      1  C   UNL     1       0.707   0.103  -0.170  0.00  0.00    +0.000 C 
ATOM      2  C   UNL     1       2.241   0.177  -0.118  0.00  0.00    +0.000 C 
ENDROOT
BRANCH   2   3
ATOM      3  C   UNL     1       2.876   0.366  -1.495  0.00  0.00    +0.000 A 
ATOM      4  C   UNL     1       2.295   1.156  -2.498  0.00  0.00    +0.000 A 
ATOM      5  C   UNL     1       2.920   1.312  -3.737  0.00  0.00    +0.000 A 
ATOM      6  C   UNL     1       4.137   0.684  -3.992  0.00  0.00    +0.000 A 
ATOM      7  C   UNL     1       4.731  -0.099  -3.006  0.00  0.00    +0.000 A 
ATOM      8  C   UNL     1       4.107  -0.255  -1.767  0.00  0.00    +0.000 A 
ENDBRANCH   2   3
BRANCH   2   9
ATOM      9  C   UNL     1       2.798   1.215   0.908  0.00  0.00    +0.000 C 
ATOM     10  C   UNL     1       2.306   2.653   0.681  0.00  0.00    +0.000 C 
BRANCH   9  11
ATOM     11  C   UNL     1       2.595   0.735   2.344  0.00  0.00    +0.000 A 
ATOM     12  C   UNL     1       3.554  -0.118   2.918  0.00  0.00    +0.000 A 
ATOM     13  C   UNL     1       3.403  -0.593   4.222  0.00  0.00    +0.000 A 
ATOM     14  C   UNL     1       2.290  -0.226   4.973  0.00  0.00    +0.000 A 
ATOM     15  C   UNL     1       1.327   0.613   4.418  0.00  0.00    +0.000 A 
ATOM     16  C   UNL     1       1.477   1.089   3.113  0.00  0.00    +0.000 A 
ENDBRANCH   9  11
ENDBRANCH   2   9
TORSDOF 3
