REMARK  Name = *****
REMARK  2 active torsions:
REMARK  status: ('A' for Active; 'I' for Inactive)
REMARK    1  A    between atoms: C_4  and  N_7
REMARK    2  A    between atoms: C_8  and  C_9
REMARK                            x       y       z     vdW  Elec       q    Type
REMARK                         _______ _______ _______ _____ _____    ______ ____
ROOT
ATOM      1  N   UNL     1      -2.761   0.314  -0.706  0.00  0.00    +0.000 NA
ATOM      2  C   UNL     1      -3.598  -0.150   0.163  0.00  0.00    +0.000 C 
ENDROOT
BRANCH   1   6
ATOM      3  C   UNL     1       1.305  -0.293   0.160  0.00  0.00    +0.000 A 
ATOM      4  C   UNL     1       0.584  -1.273  -0.521  0.00  0.00    +0.000 A 
ATOM      5  C   UNL     1      -0.767  -1.071  -0.810  0.00  0.00    +0.000 A 
ATOM      6  C   UNL     1      -1.407   0.105  -0.410  0.00  0.00    +0.000 A 
ATOM      7  C   UNL     1      -0.674   1.090   0.256  0.00  0.00    +0.000 A 
ATOM      8  C   UNL     1       0.677   0.891   0.546  0.00  0.00    +0.000 A 
ENDBRANCH   1   6
BRANCH   2   9
ATOM      9  C   UNL     1      -5.021   0.024  -0.066  0.00  0.00    +0.000 A 
ATOM     10  C   UNL     1      -5.980  -0.449   0.809  0.00  0.00    +0.000 A 
ATOM     11  S   UNL     1      -7.576  -0.106   0.293  0.00  0.00    +0.000 S 
ATOM     12  C   UNL     1      -7.009   0.684  -1.113  0.00  0.00    +0.000 A 
ATOM     13  C   UNL     1      -5.633   0.683  -1.183  0.00  0.00    +0.000 A 
ENDBRANCH   2   9
TORSDOF 2
