REMARK  Name = *****
REMARK  3 active torsions:
REMARK  status: ('A' for Active; 'I' for Inactive)
REMARK    1  A    between atoms: C_5  and  C_8
REMARK    2  A    between atoms: C_8  and  C_9
REMARK    3  A    between atoms: C_9  and  C_10
REMARK                            x       y       z     vdW  Elec       q    Type
REMARK                         _______ _______ _______ _____ _____    ______ ____
ROOT
ATOM      1  C   UNL     1      -1.542   0.775   0.090  0.00  0.00    +0.000 C 
ATOM      2  C   UNL     1      -0.327   1.582  -0.373  0.00  0.00    +0.000 C 
ATOM      3  C   UNL     1       0.930   1.268   0.444  0.00  0.00    +0.000 C 
ATOM      4  C   UNL     1       1.713   0.036  -0.014  0.00  0.00    +0.000 C 
ATOM      5  C   UNL     1       0.860  -1.152  -0.463  0.00  0.00    +0.000 C 
ATOM      6  O   UNL     1      -0.275  -1.302   0.388  0.00  0.00    +0.000 OA
ATOM      7  C   UNL     1      -1.460  -0.726  -0.153  0.00  0.00    +0.000 C 
ATOM      8 CL   UNL     1       2.039   2.686   0.396  0.00  0.00    +0.000 Cl
ENDROOT
BRANCH   5   9
ATOM      9  C   UNL     1       1.682  -2.449  -0.410  0.00  0.00    +0.000 C 
BRANCH   9  10
ATOM     10  C   UNL     1       0.890  -3.646  -0.946  0.00  0.00    +0.000 C 
BRANCH  10  11
ATOM     11  C   UNL     1       1.720  -4.907  -0.942  0.00  0.00    +0.000 A 
ATOM     12  C   UNL     1       1.776  -5.713   0.203  0.00  0.00    +0.000 A 
ATOM     13  C   UNL     1       2.557  -6.870   0.215  0.00  0.00    +0.000 A 
ATOM     14  C   UNL     1       3.292  -7.228  -0.914  0.00  0.00    +0.000 A 
ATOM     15  C   UNL     1       3.248  -6.429  -2.055  0.00  0.00    +0.000 A 
ATOM     16  C   UNL     1       2.467  -5.272  -2.069  0.00  0.00    +0.000 A 
ENDBRANCH  10  11
ENDBRANCH   9  10
ENDBRANCH   5   9
TORSDOF 3
