REMARK  Name = *****
REMARK  2 active torsions:
REMARK  status: ('A' for Active; 'I' for Inactive)
REMARK    1  A    between atoms: C_4  and  C_6
REMARK    2  A    between atoms: C_7  and  C_8
REMARK                            x       y       z     vdW  Elec       q    Type
REMARK                         _______ _______ _______ _____ _____    ______ ____
ROOT
ATOM      1  C   UNL     1       0.420  -5.087  -0.073  0.00  0.00    +0.000 A 
ATOM      2  C   UNL     1       1.358  -5.972  -0.628  0.00  0.00    +0.000 A 
ATOM      3  C   UNL     1       1.118  -7.343  -0.687  0.00  0.00    +0.000 A 
ATOM      4  C   UNL     1      -0.062  -7.862  -0.180  0.00  0.00    +0.000 A 
ATOM      5  C   UNL     1      -0.998  -7.013   0.390  0.00  0.00    +0.000 A 
ATOM      6  C   UNL     1      -0.758  -5.641   0.450  0.00  0.00    +0.000 A 
ATOM      7  F   UNL     1      -1.677  -4.860   1.036  0.00  0.00    +0.000 F 
ATOM      8  F   UNL     1      -2.135  -7.513   0.894  0.00  0.00    +0.000 F 
ATOM      9  F   UNL     1      -0.295  -9.181  -0.234  0.00  0.00    +0.000 F 
ATOM     10  F   UNL     1       2.032  -8.159  -1.230  0.00  0.00    +0.000 F 
ATOM     11  F   UNL     1       2.515  -5.498  -1.120  0.00  0.00    +0.000 F 
ENDROOT
BRANCH   1  13
ATOM     12  C   UNL     1      -0.154  -2.655  -0.071  0.00  0.00    +0.000 C 
ATOM     13  C   UNL     1       0.748  -3.650  -0.018  0.00  0.00    +0.000 C 
BRANCH  12  17
ATOM     14  C   UNL     1       1.387   0.762   0.052  0.00  0.00    +0.000 A 
ATOM     15  C   UNL     1       0.088   1.207   0.004  0.00  0.00    +0.000 A 
ATOM     16  S   UNL     1      -1.027  -0.083  -0.067  0.00  0.00    +0.000 S 
ATOM     17  C   UNL     1       0.222  -1.278  -0.032  0.00  0.00    +0.000 A 
ATOM     18  C   UNL     1       1.463  -0.662   0.031  0.00  0.00    +0.000 A 
ENDBRANCH  12  17
ENDBRANCH   1  13
TORSDOF 2
