REMARK  Name = *****
REMARK  3 active torsions:
REMARK  status: ('A' for Active; 'I' for Inactive)
REMARK    1  A    between atoms: C_1  and  C_2
REMARK    2  A    between atoms: C_5  and  N_8
REMARK    3  A    between atoms: C_9  and  C_10
REMARK                            x       y       z     vdW  Elec       q    Type
REMARK                         _______ _______ _______ _____ _____    ______ ____
ROOT
ATOM      1  N   UNL     1      -3.263   0.077   0.282  0.00  0.00    +0.000 NA
ATOM      2  C   UNL     1      -3.904   0.747  -0.623  0.00  0.00    +0.000 C 
ENDROOT
BRANCH   1   7
ATOM      3  C   UNL     1       2.438   0.062  -0.116  0.00  0.00    +0.000 C 
ATOM      4  C   UNL     1       0.940   0.084  -0.040  0.00  0.00    +0.000 A 
ATOM      5  C   UNL     1       0.281   1.098   0.667  0.00  0.00    +0.000 A 
ATOM      6  C   UNL     1      -1.113   1.097   0.769  0.00  0.00    +0.000 A 
ATOM      7  C   UNL     1      -1.866   0.085   0.169  0.00  0.00    +0.000 A 
ATOM      8  C   UNL     1      -1.209  -0.943  -0.509  0.00  0.00    +0.000 A 
ATOM      9  C   UNL     1       0.185  -0.946  -0.613  0.00  0.00    +0.000 A 
ENDBRANCH   1   7
BRANCH   2  10
ATOM     10  C   UNL     1      -5.377   0.828  -0.632  0.00  0.00    +0.000 A 
ATOM     11  C   UNL     1      -6.134   0.168   0.339  0.00  0.00    +0.000 A 
ATOM     12  C   UNL     1      -7.523   0.264   0.302  0.00  0.00    +0.000 A 
ATOM     13  C   UNL     1      -8.157   1.010  -0.692  0.00  0.00    +0.000 A 
ATOM     14  C   UNL     1      -7.396   1.668  -1.661  0.00  0.00    +0.000 A 
ATOM     15  C   UNL     1      -6.004   1.578  -1.633  0.00  0.00    +0.000 A 
ATOM     16 CL   UNL     1      -8.469  -0.544   1.491  0.00  0.00    +0.000 Cl
ENDBRANCH   2  10
TORSDOF 2
