REMARK  Name = *****
REMARK  5 active torsions:
REMARK  status: ('A' for Active; 'I' for Inactive)
REMARK    1  A    between atoms: C_1  and  C_2
REMARK    2  A    between atoms: C_5  and  S_8
REMARK    3  A    between atoms: S_8  and  C_9
REMARK    4  A    between atoms: C_9  and  C_10
REMARK    5  A    between atoms: C_12  and  C_16
REMARK                            x       y       z     vdW  Elec       q    Type
REMARK                         _______ _______ _______ _____ _____    ______ ____
ROOT
ATOM      1  C   UNL     1      -3.941   1.587  -0.309  0.00  0.00    +0.000 C 
ENDROOT
BRANCH   1   2
ATOM      2  C   UNL     1      -3.167   2.379  -1.337  0.00  0.00    +0.000 A 
ATOM      3  C   UNL     1      -3.223   2.047  -2.701  0.00  0.00    +0.000 A 
ATOM      4  C   UNL     1      -2.495   2.783  -3.644  0.00  0.00    +0.000 A 
ATOM      5  C   UNL     1      -1.720   3.870  -3.231  0.00  0.00    +0.000 A 
ATOM      6  C   UNL     1      -1.669   4.217  -1.882  0.00  0.00    +0.000 A 
ATOM      7  C   UNL     1      -2.388   3.476  -0.942  0.00  0.00    +0.000 A 
BRANCH   4   8
ATOM      8  C   UNL     1      -2.541   2.420  -5.030  0.00  0.00    +0.000 C 
ATOM      9  N   UNL     1      -2.576   2.129  -6.154  0.00  0.00    +0.000 NA
ENDBRANCH   4   8
ENDBRANCH   1   2
BRANCH   1  10
ATOM     10  S   UNL     1      -3.488  -0.179  -0.227  0.00  0.00    +0.000 S 
BRANCH  10  15
ATOM     11  C   UNL     1       2.503   0.070   0.877  0.00  0.00    +0.000 C 
ATOM     12  C   UNL     1       1.030   0.037   0.600  0.00  0.00    +0.000 A 
ATOM     13  C   UNL     1       0.132   0.677   1.463  0.00  0.00    +0.000 A 
ATOM     14  C   UNL     1      -1.244   0.620   1.225  0.00  0.00    +0.000 A 
ATOM     15  C   UNL     1      -1.741  -0.075   0.120  0.00  0.00    +0.000 A 
ATOM     16  C   UNL     1      -0.849  -0.742  -0.724  0.00  0.00    +0.000 A 
ATOM     17  C   UNL     1       0.527  -0.687  -0.486  0.00  0.00    +0.000 A 
ENDBRANCH  10  15
ENDBRANCH   1  10
TORSDOF 4
