REMARK  Name = *****
REMARK  4 active torsions:
REMARK  status: ('A' for Active; 'I' for Inactive)
REMARK    1  A    between atoms: C_1  and  C_2
REMARK    2  A    between atoms: C_4  and  C_18
REMARK    3  A    between atoms: C_5  and  C_8
REMARK    4  A    between atoms: C_14  and  C_17
REMARK                            x       y       z     vdW  Elec       q    Type
REMARK                         _______ _______ _______ _____ _____    ______ ____
ROOT
ATOM      1  C   UNL     1      -2.371  -2.035  -0.053  0.00  0.00    +0.000 A 
ATOM      2  N   UNL     1      -3.525  -1.767  -0.640  0.00  0.00    +0.000 NA
ATOM      3  C   UNL     1      -4.283  -2.886  -0.411  0.00  0.00    +0.000 A 
ATOM      4  C   UNL     1      -3.553  -3.806   0.320  0.00  0.00    +0.000 A 
ATOM      5  O   UNL     1      -2.321  -3.271   0.551  0.00  0.00    +0.000 OA
ATOM      6  C   UNL     1      -4.024  -5.048   0.729  0.00  0.00    +0.000 A 
ATOM      7  C   UNL     1      -5.345  -5.359   0.366  0.00  0.00    +0.000 A 
ATOM      8  C   UNL     1      -6.108  -4.452  -0.393  0.00  0.00    +0.000 A 
ATOM      9  C   UNL     1      -5.592  -3.206  -0.787  0.00  0.00    +0.000 A 
ATOM     10  C   UNL     1      -5.934  -6.689   0.743  0.00  0.00    +0.000 C 
ENDROOT
BRANCH   1  15
ATOM     11  C   UNL     1       2.517   1.072   0.337  0.00  0.00    +0.000 C 
ATOM     12  C   UNL     1       1.244   0.283   0.268  0.00  0.00    +0.000 A 
ATOM     13  C   UNL     1       0.039   0.907  -0.074  0.00  0.00    +0.000 A 
ATOM     14  C   UNL     1      -1.164   0.180  -0.175  0.00  0.00    +0.000 A 
ATOM     15  C   UNL     1      -1.156  -1.215   0.053  0.00  0.00    +0.000 A 
ATOM     16  C   UNL     1       0.067  -1.830   0.382  0.00  0.00    +0.000 A 
ATOM     17  C   UNL     1       1.251  -1.095   0.484  0.00  0.00    +0.000 A 
ATOM     18  C   UNL     1      -2.420   0.931  -0.534  0.00  0.00    +0.000 C 
ENDBRANCH   1  15
TORSDOF 1
