REMARK  Name = *****
REMARK  1 active torsions:
REMARK  status: ('A' for Active; 'I' for Inactive)
REMARK    1  A    between atoms: C_8  and  C_11
REMARK                            x       y       z     vdW  Elec       q    Type
REMARK                         _______ _______ _______ _____ _____    ______ ____
ROOT
ATOM      1  C   UNL     1      -2.510   0.532  -0.522  0.00  0.00    +0.000 C 
ATOM      2  C   UNL     1      -2.461  -0.684   0.392  0.00  0.00    +0.000 C 
ATOM      3  C   UNL     1      -1.174  -1.463   0.144  0.00  0.00    +0.000 C 
ATOM      4  C   UNL     1       0.050  -0.590   0.153  0.00  0.00    +0.000 A 
ATOM      5  C   UNL     1      -0.013   0.787  -0.056  0.00  0.00    +0.000 A 
ATOM      6  C   UNL     1      -1.345   1.479  -0.229  0.00  0.00    +0.000 C 
ATOM      7  C   UNL     1       1.199   1.498  -0.032  0.00  0.00    +0.000 A 
ATOM      8  C   UNL     1       2.399   0.810   0.171  0.00  0.00    +0.000 A 
ATOM      9  N   UNL     1       2.399  -0.534   0.331  0.00  0.00    +0.000 NA
ATOM     10  N   UNL     1       1.225  -1.232   0.324  0.00  0.00    +0.000 NA
ATOM     11 CL   UNL     1       1.190   3.217  -0.284  0.00  0.00    +0.000 Cl
ENDROOT
BRANCH   8  12
ATOM     12  C   UNL     1       3.736   1.421   0.223  0.00  0.00    +0.000 A 
ATOM     13  C   UNL     1       4.067   2.398   1.178  0.00  0.00    +0.000 A 
ATOM     14  C   UNL     1       5.346   2.961   1.220  0.00  0.00    +0.000 A 
ATOM     15  C   UNL     1       6.320   2.548   0.315  0.00  0.00    +0.000 A 
ATOM     16  C   UNL     1       6.020   1.570  -0.629  0.00  0.00    +0.000 A 
ATOM     17  C   UNL     1       4.741   1.009  -0.671  0.00  0.00    +0.000 A 
ENDBRANCH   8  12
TORSDOF 1
