REMARK  Name = *****
REMARK  6 active torsions:
REMARK  status: ('A' for Active; 'I' for Inactive)
REMARK    1  A    between atoms: C_1  and  C_2
REMARK    2  A    between atoms: C_5  and  S_8
REMARK    3  A    between atoms: S_8  and  C_9
REMARK    4  A    between atoms: C_9  and  C_11
REMARK    5  A    between atoms: C_16  and  S_17
REMARK    6  A    between atoms: S_17  and  C_18
REMARK                            x       y       z     vdW  Elec       q    Type
REMARK                         _______ _______ _______ _____ _____    ______ ____
ROOT
ATOM      1  C   UNL     1      -3.982   1.392   0.133  0.00  0.00    +0.000 C 
ATOM      2  O   UNL     1      -5.206   1.395   0.118  0.00  0.00    +0.000 OA
ENDROOT
BRANCH   1   3
ATOM      3  C   UNL     1      -3.244   2.635  -0.151  0.00  0.00    +0.000 A 
ATOM      4  C   UNL     1      -3.284   3.102  -1.474  0.00  0.00    +0.000 A 
ATOM      5  C   UNL     1      -2.603   4.266  -1.824  0.00  0.00    +0.000 A 
ATOM      6  C   UNL     1      -1.888   4.966  -0.855  0.00  0.00    +0.000 A 
ATOM      7  C   UNL     1      -1.866   4.513   0.468  0.00  0.00    +0.000 A 
ATOM      8  C   UNL     1      -2.556   3.350   0.841  0.00  0.00    +0.000 A 
BRANCH   8   9
ATOM      9  S   UNL     1      -2.504   2.888   2.568  0.00  0.00    +0.000 S 
ATOM     10  C   UNL     1      -4.168   3.416   3.060  0.00  0.00    +0.000 C 
ENDBRANCH   8   9
ENDBRANCH   1   3
BRANCH   1  11
ATOM     11  S   UNL     1      -2.983  -0.035   0.360  0.00  0.00    +0.000 S 
BRANCH  11  16
ATOM     12  C   UNL     1      -6.953  -4.649   0.713  0.00  0.00    +0.000 C 
ATOM     13  C   UNL     1      -5.968  -3.521   0.641  0.00  0.00    +0.000 A 
ATOM     14  C   UNL     1      -4.953  -3.516  -0.321  0.00  0.00    +0.000 A 
ATOM     15  C   UNL     1      -4.058  -2.444  -0.401  0.00  0.00    +0.000 A 
ATOM     16  C   UNL     1      -4.173  -1.355   0.468  0.00  0.00    +0.000 A 
ATOM     17  C   UNL     1      -5.184  -1.362   1.433  0.00  0.00    +0.000 A 
ATOM     18  C   UNL     1      -6.082  -2.431   1.512  0.00  0.00    +0.000 A 
ENDBRANCH  11  16
ENDBRANCH   1  11
TORSDOF 4
