REMARK  Name = *****
REMARK  1 active torsions:
REMARK  status: ('A' for Active; 'I' for Inactive)
REMARK    1  A    between atoms: C_4  and  C_7
REMARK                            x       y       z     vdW  Elec       q    Type
REMARK                         _______ _______ _______ _____ _____    ______ ____
ROOT
ATOM      1  C   UNL     1      -3.049   0.156  -0.548  0.00  0.00    +0.000 A 
ATOM      2  N   UNL     1      -3.840   0.914  -1.287  0.00  0.00    +0.000 NA
ATOM      3  C   UNL     1      -5.108   0.473  -0.985  0.00  0.00    +0.000 A 
ATOM      4  C   UNL     1      -5.028  -0.553  -0.055  0.00  0.00    +0.000 A 
ATOM      5  O   UNL     1      -3.712  -0.762   0.230  0.00  0.00    +0.000 OA
ATOM      6  C   UNL     1      -6.118  -1.235   0.476  0.00  0.00    +0.000 A 
ATOM      7  C   UNL     1      -7.374  -0.826   0.012  0.00  0.00    +0.000 A 
ATOM      8  C   UNL     1      -7.521   0.201  -0.924  0.00  0.00    +0.000 A 
ATOM      9  C   UNL     1      -6.387   0.847  -1.419  0.00  0.00    +0.000 A 
ATOM     10 CL   UNL     1      -6.472   2.109  -2.563  0.00  0.00    +0.000 Cl
ATOM     11 CL   UNL     1      -8.781  -1.617   0.615  0.00  0.00    +0.000 Cl
ENDROOT
BRANCH   1  15
ATOM     12  C   UNL     1       1.219   0.226  -0.331  0.00  0.00    +0.000 A 
ATOM     13  C   UNL     1       0.539   1.114  -1.161  0.00  0.00    +0.000 A 
ATOM     14  C   UNL     1      -0.856   1.083  -1.224  0.00  0.00    +0.000 A 
ATOM     15  C   UNL     1      -1.591   0.165  -0.457  0.00  0.00    +0.000 A 
ATOM     16  C   UNL     1      -0.891  -0.722   0.375  0.00  0.00    +0.000 A 
ATOM     17  C   UNL     1       0.505  -0.692   0.437  0.00  0.00    +0.000 A 
ENDBRANCH   1  15
TORSDOF 1
