REMARK  Name = *****
REMARK  5 active torsions:
REMARK  status: ('A' for Active; 'I' for Inactive)
REMARK    1  A    between atoms: C_4  and  C_7
REMARK    2  A    between atoms: C_7  and  C_8
REMARK    3  A    between atoms: C_8  and  C_9
REMARK    4  A    between atoms: C_8  and  C_11
REMARK    5  A    between atoms: C_9  and  S_10
REMARK                            x       y       z     vdW  Elec       q    Type
REMARK                         _______ _______ _______ _____ _____    ______ ____
ROOT
ATOM      1  C   UNL     1      -3.773  -0.799  -0.219  0.00  0.00    +0.000 C 
ENDROOT
BRANCH   1   2
ATOM      2  C   UNL     1      -5.234  -0.376  -0.339  0.00  0.00    +0.000 A 
ATOM      3  C   UNL     1      -6.059  -1.020  -1.276  0.00  0.00    +0.000 A 
ATOM      4  C   UNL     1      -7.402  -0.665  -1.413  0.00  0.00    +0.000 A 
ATOM      5  C   UNL     1      -7.944   0.336  -0.611  0.00  0.00    +0.000 A 
ATOM      6  C   UNL     1      -7.143   0.980   0.328  0.00  0.00    +0.000 A 
ATOM      7  C   UNL     1      -5.799   0.626   0.465  0.00  0.00    +0.000 A 
ENDBRANCH   1   2
BRANCH   1   8
ATOM      8  C   UNL     1      -3.576  -1.901   0.854  0.00  0.00    +0.000 C 
BRANCH   8  12
ATOM      9  C   UNL     1      -4.014  -0.694   4.977  0.00  0.00    +0.000 A 
ATOM     10  C   UNL     1      -5.119  -1.152   4.262  0.00  0.00    +0.000 A 
ATOM     11  C   UNL     1      -4.975  -1.547   2.931  0.00  0.00    +0.000 A 
ATOM     12  C   UNL     1      -3.726  -1.481   2.298  0.00  0.00    +0.000 A 
ATOM     13  C   UNL     1      -2.621  -1.027   3.031  0.00  0.00    +0.000 A 
ATOM     14  C   UNL     1      -2.765  -0.633   4.362  0.00  0.00    +0.000 A 
ENDBRANCH   8  12
ENDBRANCH   1   8
BRANCH   1  15
ATOM     15  C   UNL     1      -2.768   0.360  -0.049  0.00  0.00    +0.000 C 
BRANCH  15  16
ATOM     16  S   UNL     1      -2.680   1.443  -1.517  0.00  0.00    +0.000 S 
ATOM     17  H   UNL     1      -2.257   0.720  -2.589  0.00  0.00    +0.000 HD
ENDBRANCH  15  16
ENDBRANCH   1  15
TORSDOF 5
