REMARK  Name = *****
REMARK  4 active torsions:
REMARK  status: ('A' for Active; 'I' for Inactive)
REMARK    1  A    between atoms: C_4  and  C_7
REMARK    2  A    between atoms: C_7  and  O_9
REMARK    3  A    between atoms: O_9  and  C_10
REMARK    4  A    between atoms: C_10  and  C_11
REMARK                            x       y       z     vdW  Elec       q    Type
REMARK                         _______ _______ _______ _____ _____    ______ ____
ROOT
ATOM      1  O   UNL     1      -3.696  -0.503  -0.209  0.00  0.00    +0.000 OA
ENDROOT
BRANCH   1   2
ATOM      2  C   UNL     1      -2.913   0.565  -0.489  0.00  0.00    +0.000 C 
ATOM      3  O   UNL     1      -3.296   1.658  -0.876  0.00  0.00    +0.000 OA
BRANCH   2   7
ATOM      4  C   UNL     1       1.243  -0.291   0.136  0.00  0.00    +0.000 A 
ATOM      5  C   UNL     1       0.301  -1.296   0.351  0.00  0.00    +0.000 A 
ATOM      6  C   UNL     1      -1.057  -1.038   0.153  0.00  0.00    +0.000 A 
ATOM      7  C   UNL     1      -1.479   0.233  -0.262  0.00  0.00    +0.000 A 
ATOM      8  C   UNL     1      -0.525   1.238  -0.476  0.00  0.00    +0.000 A 
ATOM      9  C   UNL     1       0.832   0.975  -0.278  0.00  0.00    +0.000 A 
ENDBRANCH   2   7
ENDBRANCH   1   2
BRANCH   1  10
ATOM     10  C   UNL     1      -5.104  -0.321  -0.407  0.00  0.00    +0.000 C 
BRANCH  10  11
ATOM     11  C   UNL     1      -5.505  -0.903  -1.733  0.00  0.00    +0.000 A 
ATOM     12  C   UNL     1      -5.442  -0.133  -2.903  0.00  0.00    +0.000 A 
ATOM     13  C   UNL     1      -5.796  -0.688  -4.135  0.00  0.00    +0.000 A 
ATOM     14  C   UNL     1      -6.209  -2.018  -4.213  0.00  0.00    +0.000 A 
ATOM     15  C   UNL     1      -6.265  -2.795  -3.056  0.00  0.00    +0.000 A 
ATOM     16  C   UNL     1      -5.911  -2.235  -1.832  0.00  0.00    +0.000 A 
ATOM     17  F   UNL     1      -5.970  -3.001  -0.732  0.00  0.00    +0.000 F 
ENDBRANCH  10  11
ENDBRANCH   1  10
TORSDOF 4
