REMARK  Name = *****
REMARK  3 active torsions:
REMARK  status: ('A' for Active; 'I' for Inactive)
REMARK    1  A    between atoms: C_4  and  C_7
REMARK    2  A    between atoms: C_8  and  C_9
REMARK    3  A    between atoms: C_12  and  C_15
REMARK                            x       y       z     vdW  Elec       q    Type
REMARK                         _______ _______ _______ _____ _____    ______ ____
ROOT
ATOM      1  C   UNL     1      -0.785  -1.238   1.827  0.00  0.00    +0.000 C 
ATOM      2  C   UNL     1      -0.841  -1.295   3.026  0.00  0.00    +0.000 C 
ENDROOT
BRANCH   1   6
ATOM      3  C   UNL     1       0.756   1.313  -0.407  0.00  0.00    +0.000 C 
ATOM      4  C   UNL     1       1.497   0.099   0.143  0.00  0.00    +0.000 C 
ATOM      5  C   UNL     1       0.738  -1.200  -0.134  0.00  0.00    +0.000 C 
ATOM      6  C   UNL     1      -0.717  -1.160   0.354  0.00  0.00    +0.000 C 
ATOM      7  C   UNL     1      -1.442   0.089  -0.165  0.00  0.00    +0.000 C 
ATOM      8  C   UNL     1      -0.676   1.383   0.113  0.00  0.00    +0.000 C 
ENDBRANCH   1   6
BRANCH   2   9
ATOM      9  C   UNL     1      -0.905  -1.350   4.453  0.00  0.00    +0.000 A 
ATOM     10  C   UNL     1      -0.652  -2.552   5.119  0.00  0.00    +0.000 A 
ATOM     11  C   UNL     1      -0.715  -2.606   6.514  0.00  0.00    +0.000 A 
ATOM     12  C   UNL     1      -1.032  -1.453   7.239  0.00  0.00    +0.000 A 
ATOM     13  C   UNL     1      -1.287  -0.248   6.577  0.00  0.00    +0.000 A 
ATOM     14  C   UNL     1      -1.222  -0.200   5.182  0.00  0.00    +0.000 A 
BRANCH  12  15
ATOM     15  C   UNL     1      -1.102  -1.498   8.713  0.00  0.00    +0.000 C 
ATOM     16  O   UNL     1      -0.888  -2.525   9.345  0.00  0.00    +0.000 OA
ENDBRANCH  12  15
ENDBRANCH   2   9
TORSDOF 3
