REMARK  Name = *****
REMARK  2 active torsions:
REMARK  status: ('A' for Active; 'I' for Inactive)
REMARK    1  A    between atoms: C_5  and  C_7
REMARK    2  A    between atoms: P_10  and  C_12
REMARK                            x       y       z     vdW  Elec       q    Type
REMARK                         _______ _______ _______ _____ _____    ______ ____
ROOT
ATOM      1  C   UNL     1      -1.719  -1.736  -1.056  0.00  0.00    +0.000 C 
ATOM      2  C   UNL     1      -1.524  -1.400  -2.544  0.00  0.00    +0.000 C 
ATOM      3  C   UNL     1      -2.496  -2.292  -3.320  0.00  0.00    +0.000 C 
ATOM      4  P   UNL     1      -4.085  -2.219  -2.361  0.00  0.00    +0.000 P 
ATOM      5  C   UNL     1      -3.235  -1.662  -0.795  0.00  0.00    +0.000 C 
ENDROOT
BRANCH   1  10
ATOM      6  C   UNL     1      -0.180   1.438   0.690  0.00  0.00    +0.000 C 
ATOM      7  C   UNL     1       1.213   1.267   0.085  0.00  0.00    +0.000 C 
ATOM      8  C   UNL     1       1.531  -0.164  -0.230  0.00  0.00    +0.000 C 
ATOM      9  C   UNL     1       0.603  -1.131  -0.277  0.00  0.00    +0.000 C 
ATOM     10  C   UNL     1      -0.878  -0.888  -0.066  0.00  0.00    +0.000 C 
ATOM     11  C   UNL     1      -1.219   0.619  -0.074  0.00  0.00    +0.000 C 
ENDBRANCH   1  10
BRANCH   4  12
ATOM     12  C   UNL     1      -4.461  -3.966  -2.024  0.00  0.00    +0.000 A 
ATOM     13  C   UNL     1      -3.529  -4.906  -1.567  0.00  0.00    +0.000 A 
ATOM     14  C   UNL     1      -3.903  -6.232  -1.325  0.00  0.00    +0.000 A 
ATOM     15  C   UNL     1      -5.218  -6.638  -1.534  0.00  0.00    +0.000 A 
ATOM     16  C   UNL     1      -6.159  -5.719  -1.987  0.00  0.00    +0.000 A 
ATOM     17  C   UNL     1      -5.782  -4.395  -2.229  0.00  0.00    +0.000 A 
ENDBRANCH   4  12
TORSDOF 2
