REMARK  Name = *****
REMARK  5 active torsions:
REMARK  status: ('A' for Active; 'I' for Inactive)
REMARK    1  A    between atoms: C_1  and  C_2
REMARK    2  A    between atoms: C_7  and  S_8
REMARK    3  A    between atoms: S_8  and  C_9
REMARK    4  A    between atoms: C_9  and  C_10
REMARK    5  A    between atoms: C_9  and  C_11
REMARK                            x       y       z     vdW  Elec       q    Type
REMARK                         _______ _______ _______ _____ _____    ______ ____
ROOT
ATOM      1  S   UNL     1       3.670  -1.646  -1.732  0.00  0.00    +0.000 S 
ENDROOT
BRANCH   1   8
ATOM      2  C   UNL     1       1.201  -0.834  -3.557  0.00  0.00    +0.000 C 
ATOM      3  C   UNL     1       1.852  -2.168  -3.807  0.00  0.00    +0.000 A 
ATOM      4  C   UNL     1       1.348  -2.981  -4.837  0.00  0.00    +0.000 A 
ATOM      5  C   UNL     1       1.933  -4.213  -5.130  0.00  0.00    +0.000 A 
ATOM      6  C   UNL     1       3.038  -4.644  -4.405  0.00  0.00    +0.000 A 
ATOM      7  C   UNL     1       3.549  -3.849  -3.379  0.00  0.00    +0.000 A 
ATOM      8  C   UNL     1       2.951  -2.624  -3.051  0.00  0.00    +0.000 A 
ENDBRANCH   1   8
BRANCH   1   9
ATOM      9  C   UNL     1       3.064  -2.518  -0.218  0.00  0.00    +0.000 C 
ATOM     10  C   UNL     1       1.535  -2.502  -0.138  0.00  0.00    +0.000 C 
BRANCH   9  11
ATOM     11  C   UNL     1       3.730  -3.869  -0.009  0.00  0.00    +0.000 A 
ATOM     12  C   UNL     1       3.057  -5.088  -0.186  0.00  0.00    +0.000 A 
ATOM     13  C   UNL     1       3.712  -6.305   0.016  0.00  0.00    +0.000 A 
ATOM     14  C   UNL     1       5.051  -6.326   0.399  0.00  0.00    +0.000 A 
ATOM     15  C   UNL     1       5.737  -5.129   0.578  0.00  0.00    +0.000 A 
ATOM     16  C   UNL     1       5.083  -3.912   0.377  0.00  0.00    +0.000 A 
ENDBRANCH   9  11
ENDBRANCH   1   9
TORSDOF 3
