REMARK  Name = *****
REMARK  3 active torsions:
REMARK  status: ('A' for Active; 'I' for Inactive)
REMARK    1  A    between atoms: C_5  and  S_7
REMARK    2  A    between atoms: S_7  and  C_8
REMARK    3  A    between atoms: C_8  and  C_9
REMARK                            x       y       z     vdW  Elec       q    Type
REMARK                         _______ _______ _______ _____ _____    ______ ____
ROOT
ATOM      1  C   UNL     1      -3.817  -2.494  -0.063  0.00  0.00    +0.000 C 
ENDROOT
BRANCH   1   2
ATOM      2  C   UNL     1      -4.607  -3.777  -0.015  0.00  0.00    +0.000 A 
ATOM      3  C   UNL     1      -5.047  -4.385  -1.196  0.00  0.00    +0.000 A 
ATOM      4  C   UNL     1      -5.762  -5.578  -1.177  0.00  0.00    +0.000 A 
ATOM      5  C   UNL     1      -6.043  -6.181   0.044  0.00  0.00    +0.000 A 
ATOM      6  C   UNL     1      -5.611  -5.601   1.236  0.00  0.00    +0.000 A 
ATOM      7  C   UNL     1      -4.892  -4.403   1.208  0.00  0.00    +0.000 A 
ATOM      8 CL   UNL     1      -6.929  -7.655   0.085  0.00  0.00    +0.000 Cl
ATOM      9  F   UNL     1      -4.787  -3.810  -2.378  0.00  0.00    +0.000 F 
ENDBRANCH   1   2
BRANCH   1  10
ATOM     10  S   UNL     1      -2.024  -2.828  -0.048  0.00  0.00    +0.000 S 
BRANCH  10  15
ATOM     11  C   UNL     1      -1.309   1.236  -0.042  0.00  0.00    +0.000 A 
ATOM     12  C   UNL     1       0.082   1.263  -0.086  0.00  0.00    +0.000 A 
ATOM     13  C   UNL     1       0.782   0.066  -0.126  0.00  0.00    +0.000 A 
ATOM     14  C   UNL     1       0.117  -1.156  -0.120  0.00  0.00    +0.000 A 
ATOM     15  C   UNL     1      -1.282  -1.200  -0.072  0.00  0.00    +0.000 A 
ATOM     16  C   UNL     1      -1.987   0.010  -0.036  0.00  0.00    +0.000 A 
ATOM     17  F   UNL     1       2.121   0.088  -0.169  0.00  0.00    +0.000 F 
ENDBRANCH  10  15
ENDBRANCH   1  10
TORSDOF 3
