REMARK  Name = *****
REMARK  6 active torsions:
REMARK  status: ('A' for Active; 'I' for Inactive)
REMARK    1  A    between atoms: C_1  and  C_2
REMARK    2  A    between atoms: C_3  and  C_22
REMARK    3  A    between atoms: C_5  and  O_8
REMARK    4  A    between atoms: O_8  and  C_9
REMARK    5  A    between atoms: C_9  and  C_11
REMARK    6  A    between atoms: C_13  and  C_17
REMARK                            x       y       z     vdW  Elec       q    Type
REMARK                         _______ _______ _______ _____ _____    ______ ____
ROOT
ATOM      1  C   UNL     1      -4.233  -0.501  -0.331  0.00  0.00    +0.000 C 
ATOM      2  O   UNL     1      -4.156   0.129  -1.376  0.00  0.00    +0.000 OA
ENDROOT
BRANCH   1   3
ATOM      3  C   UNL     1      -5.489  -1.152   0.109  0.00  0.00    +0.000 A 
ATOM      4  C   UNL     1      -5.746  -1.483   1.442  0.00  0.00    +0.000 A 
ATOM      5  C   UNL     1      -6.946  -2.096   1.813  0.00  0.00    +0.000 A 
ATOM      6  C   UNL     1      -7.907  -2.370   0.826  0.00  0.00    +0.000 A 
ATOM      7  C   UNL     1      -7.667  -2.030  -0.505  0.00  0.00    +0.000 A 
ATOM      8  C   UNL     1      -6.464  -1.421  -0.863  0.00  0.00    +0.000 A 
ATOM      9  F   UNL     1      -4.858  -1.197   2.404  0.00  0.00    +0.000 F 
BRANCH   5  10
ATOM     10  C   UNL     1      -7.175  -2.435   3.257  0.00  0.00    +0.000 C 
ATOM     11  F   UNL     1      -6.225  -3.268   3.762  0.00  0.00    +0.000 F 
ATOM     12  F   UNL     1      -7.191  -1.337   4.060  0.00  0.00    +0.000 F 
ATOM     13  F   UNL     1      -8.365  -3.065   3.473  0.00  0.00    +0.000 F 
ENDBRANCH   5  10
ENDBRANCH   1   3
BRANCH   1  14
ATOM     14  O   UNL     1      -3.213  -0.791   0.554  0.00  0.00    +0.000 OA
BRANCH  14  19
ATOM     15  C   UNL     1       2.007   1.314  -0.346  0.00  0.00    +0.000 C 
ATOM     16  C   UNL     1       0.632   0.743  -0.126  0.00  0.00    +0.000 A 
ATOM     17  C   UNL     1       0.435  -0.638   0.087  0.00  0.00    +0.000 A 
ATOM     18  C   UNL     1      -0.867  -1.122   0.289  0.00  0.00    +0.000 A 
ATOM     19  C   UNL     1      -1.950  -0.245   0.280  0.00  0.00    +0.000 A 
ATOM     20  C   UNL     1      -1.762   1.122   0.107  0.00  0.00    +0.000 A 
ATOM     21  C   UNL     1      -0.473   1.610  -0.103  0.00  0.00    +0.000 A 
ATOM     22  C   UNL     1       1.587  -1.605   0.087  0.00  0.00    +0.000 C 
ENDBRANCH  14  19
ENDBRANCH   1  14
TORSDOF 4
