REMARK  Name = *****
REMARK  4 active torsions:
REMARK  status: ('A' for Active; 'I' for Inactive)
REMARK    1  A    between atoms: C_1  and  C_2
REMARK    2  A    between atoms: C_4  and  C_7
REMARK    3  A    between atoms: C_8  and  C_9
REMARK    4  A    between atoms: C_12  and  C_14
REMARK                            x       y       z     vdW  Elec       q    Type
REMARK                         _______ _______ _______ _____ _____    ______ ____
ROOT
ATOM      1  C   UNL     1       5.832   1.424   0.090  0.00  0.00    +0.000 C 
ATOM      2  C   UNL     1       6.811   2.120   0.099  0.00  0.00    +0.000 C 
ENDROOT
BRANCH   1   6
ATOM      3  C   UNL     1       0.917   0.132   0.058  0.00  0.00    +0.000 C 
ATOM      4  C   UNL     1       2.404   0.045   0.065  0.00  0.00    +0.000 A 
ATOM      5  C   UNL     1       3.326   1.073   0.075  0.00  0.00    +0.000 A 
ATOM      6  C   UNL     1       4.668   0.596   0.079  0.00  0.00    +0.000 A 
ATOM      7  C   UNL     1       4.727  -0.779   0.072  0.00  0.00    +0.000 A 
ATOM      8  S   UNL     1       3.169  -1.488   0.060  0.00  0.00    +0.000 S 
ENDBRANCH   1   6
BRANCH   2   9
ATOM      9  C   UNL     1       7.979   2.942   0.109  0.00  0.00    +0.000 A 
ATOM     10  C   UNL     1       7.930   4.317   0.096  0.00  0.00    +0.000 A 
ATOM     11  S   UNL     1       9.492   5.014   0.112  0.00  0.00    +0.000 S 
ATOM     12  C   UNL     1      10.247   3.478   0.138  0.00  0.00    +0.000 A 
ATOM     13  C   UNL     1       9.317   2.456   0.133  0.00  0.00    +0.000 A 
ATOM     14  C   UNL     1      11.733   3.363   0.160  0.00  0.00    +0.000 C 
ENDBRANCH   2   9
TORSDOF 2
