REMARK  Name = *****
REMARK  4 active torsions:
REMARK  status: ('A' for Active; 'I' for Inactive)
REMARK    1  A    between atoms: C_4  and  C_7
REMARK    2  A    between atoms: C_7  and  O_8
REMARK    3  A    between atoms: O_8  and  C_9
REMARK    4  A    between atoms: C_9  and  C_10
REMARK                            x       y       z     vdW  Elec       q    Type
REMARK                         _______ _______ _______ _____ _____    ______ ____
ROOT
ATOM      1  O   UNL     1      -3.528  -0.755  -0.276  0.00  0.00    +0.000 OA
ENDROOT
BRANCH   1   2
ATOM      2  C   UNL     1      -2.821   0.480  -0.184  0.00  0.00    +0.000 C 
BRANCH   2   6
ATOM      3  C   UNL     1       1.399  -0.156   0.476  0.00  0.00    +0.000 A 
ATOM      4  C   UNL     1       0.663  -1.092  -0.246  0.00  0.00    +0.000 A 
ATOM      5  C   UNL     1      -0.704  -0.897  -0.455  0.00  0.00    +0.000 A 
ATOM      6  C   UNL     1      -1.353   0.232   0.066  0.00  0.00    +0.000 A 
ATOM      7  C   UNL     1      -0.596   1.174   0.778  0.00  0.00    +0.000 A 
ATOM      8  C   UNL     1       0.771   0.978   0.986  0.00  0.00    +0.000 A 
ENDBRANCH   2   6
ENDBRANCH   1   2
BRANCH   1   9
ATOM      9  C   UNL     1      -4.925  -0.549  -0.470  0.00  0.00    +0.000 C 
BRANCH   9  10
ATOM     10  C   UNL     1      -5.634  -1.877  -0.585  0.00  0.00    +0.000 A 
ATOM     11  C   UNL     1      -5.204  -2.998   0.142  0.00  0.00    +0.000 A 
ATOM     12  C   UNL     1      -5.894  -4.206   0.049  0.00  0.00    +0.000 A 
ATOM     13  C   UNL     1      -7.027  -4.313  -0.755  0.00  0.00    +0.000 A 
ATOM     14  C   UNL     1      -7.474  -3.203  -1.470  0.00  0.00    +0.000 A 
ATOM     15  C   UNL     1      -6.785  -1.990  -1.382  0.00  0.00    +0.000 A 
ATOM     16 CL   UNL     1      -5.348  -5.574   0.939  0.00  0.00    +0.000 Cl
ENDBRANCH   9  10
ENDBRANCH   1   9
TORSDOF 4
