REMARK  Name = *****
REMARK  4 active torsions:
REMARK  status: ('A' for Active; 'I' for Inactive)
REMARK    1  A    between atoms: C_1  and  C_2
REMARK    2  A    between atoms: C_4  and  C_9
REMARK    3  A    between atoms: C_5  and  C_8
REMARK    4  A    between atoms: C_10  and  C_11
REMARK                            x       y       z     vdW  Elec       q    Type
REMARK                         _______ _______ _______ _____ _____    ______ ____
ROOT
ATOM      1  C   UNL     1       1.144   0.127   0.194  0.00  0.00    +0.000 C 
ATOM      2  C   UNL     1       2.636   0.146   0.040  0.00  0.00    +0.000 A 
ATOM      3  C   UNL     1       3.330   1.353  -0.109  0.00  0.00    +0.000 A 
ATOM      4  C   UNL     1       4.723   1.369  -0.277  0.00  0.00    +0.000 A 
ATOM      5  C   UNL     1       5.442   0.163  -0.298  0.00  0.00    +0.000 A 
ATOM      6  C   UNL     1       4.738  -1.045  -0.151  0.00  0.00    +0.000 A 
ATOM      7  C   UNL     1       3.352  -1.053   0.012  0.00  0.00    +0.000 A 
ATOM      8  C   UNL     1       6.934   0.090  -0.474  0.00  0.00    +0.000 C 
ENDROOT
BRANCH   4   9
ATOM      9  C   UNL     1       5.366   2.639  -0.442  0.00  0.00    +0.000 C 
ATOM     10  C   UNL     1       5.905   3.700  -0.608  0.00  0.00    +0.000 C 
BRANCH  10  11
ATOM     11  C   UNL     1       6.560   4.950  -0.841  0.00  0.00    +0.000 A 
ATOM     12  C   UNL     1       5.972   6.143  -0.417  0.00  0.00    +0.000 A 
ATOM     13  C   UNL     1       6.607   7.362  -0.665  0.00  0.00    +0.000 A 
ATOM     14  C   UNL     1       7.830   7.388  -1.337  0.00  0.00    +0.000 A 
ATOM     15  C   UNL     1       8.420   6.196  -1.758  0.00  0.00    +0.000 A 
ATOM     16  C   UNL     1       7.786   4.978  -1.510  0.00  0.00    +0.000 A 
ENDBRANCH  10  11
ENDBRANCH   4   9
TORSDOF 2
