REMARK  Name = *****
REMARK  3 active torsions:
REMARK  status: ('A' for Active; 'I' for Inactive)
REMARK    1  A    between atoms: C_4  and  C_14
REMARK    2  A    between atoms: C_5  and  C_7
REMARK    3  A    between atoms: C_8  and  C_9
REMARK                            x       y       z     vdW  Elec       q    Type
REMARK                         _______ _______ _______ _____ _____    ______ ____
ROOT
ATOM      1  C   UNL     1      -0.552  -1.191   0.032  0.00  0.00    +0.000 A 
ATOM      2  C   UNL     1      -1.322  -0.031   0.074  0.00  0.00    +0.000 A 
ATOM      3  C   UNL     1      -0.703   1.219   0.021  0.00  0.00    +0.000 A 
ATOM      4  C   UNL     1       0.693   1.316  -0.077  0.00  0.00    +0.000 A 
ATOM      5  C   UNL     1       1.467   0.147  -0.122  0.00  0.00    +0.000 A 
ATOM      6  C   UNL     1       0.838  -1.104  -0.066  0.00  0.00    +0.000 A 
ENDROOT
BRANCH   5   7
ATOM      7  C   UNL     1       2.896   0.188  -0.235  0.00  0.00    +0.000 C 
ATOM      8  C   UNL     1       4.091   0.216  -0.343  0.00  0.00    +0.000 C 
BRANCH   8   9
ATOM      9  C   UNL     1       5.509   0.247  -0.486  0.00  0.00    +0.000 A 
ATOM     10  C   UNL     1       6.268   1.394  -0.576  0.00  0.00    +0.000 A 
ATOM     11  C   UNL     1       7.658   1.109  -0.725  0.00  0.00    +0.000 A 
ATOM     12  C   UNL     1       7.907  -0.245  -0.740  0.00  0.00    +0.000 A 
ATOM     13  S   UNL     1       6.472  -1.162  -0.576  0.00  0.00    +0.000 S 
ENDBRANCH   8   9
ENDBRANCH   5   7
BRANCH   4  14
ATOM     14  C   UNL     1       1.296   2.617  -0.129  0.00  0.00    +0.000 C 
ATOM     15  N   UNL     1       1.765   3.679  -0.170  0.00  0.00    +0.000 NA
ENDBRANCH   4  14
TORSDOF 3
