REMARK  Name = *****
REMARK  5 active torsions:
REMARK  status: ('A' for Active; 'I' for Inactive)
REMARK    1  A    between atoms: C_1  and  O_2
REMARK    2  A    between atoms: O_2  and  C_3
REMARK    3  A    between atoms: C_6  and  C_9
REMARK    4  A    between atoms: C_10  and  C_11
REMARK    5  A    between atoms: C_16  and  N_17
REMARK                            x       y       z     vdW  Elec       q    Type
REMARK                         _______ _______ _______ _____ _____    ______ ____
ROOT
ATOM      1  C   UNL     1       4.641   1.242  -5.206  0.00  0.00    +0.000 C 
ATOM      2  C   UNL     1       5.031   1.420  -6.328  0.00  0.00    +0.000 C 
ENDROOT
BRANCH   1   6
ATOM      3  C   UNL     1       2.998   0.472  -1.383  0.00  0.00    +0.000 A 
ATOM      4  C   UNL     1       2.461   1.476  -2.189  0.00  0.00    +0.000 A 
ATOM      5  C   UNL     1       3.019   1.741  -3.445  0.00  0.00    +0.000 A 
ATOM      6  C   UNL     1       4.118   1.006  -3.896  0.00  0.00    +0.000 A 
ATOM      7  C   UNL     1       4.675   0.022  -3.081  0.00  0.00    +0.000 A 
ATOM      8  C   UNL     1       4.116  -0.238  -1.827  0.00  0.00    +0.000 A 
BRANCH   3  10
ATOM      9  C   UNL     1       1.245   0.578   0.216  0.00  0.00    +0.000 C 
ATOM     10  O   UNL     1       2.535   0.101  -0.152  0.00  0.00    +0.000 OA
ENDBRANCH   3  10
ENDBRANCH   1   6
BRANCH   2  11
ATOM     11  C   UNL     1       5.443   1.594  -7.685  0.00  0.00    +0.000 A 
ATOM     12  C   UNL     1       5.559   2.878  -8.219  0.00  0.00    +0.000 A 
ATOM     13  C   UNL     1       5.934   3.047  -9.555  0.00  0.00    +0.000 A 
ATOM     14  C   UNL     1       6.194   1.939 -10.366  0.00  0.00    +0.000 A 
ATOM     15  C   UNL     1       6.086   0.652  -9.844  0.00  0.00    +0.000 A 
ATOM     16  C   UNL     1       5.710   0.495  -8.505  0.00  0.00    +0.000 A 
BRANCH  16  17
ATOM     17  N   UNL     1       5.594  -0.783  -7.975  0.00  0.00    +0.000 NA
ATOM     18  N   UNL     1       5.514  -1.795  -7.582  0.00  0.00    +0.000 NA
ENDBRANCH  16  17
ENDBRANCH   2  11
TORSDOF 4
