REMARK  Name = *****
REMARK  3 active torsions:
REMARK  status: ('A' for Active; 'I' for Inactive)
REMARK    1  A    between atoms: C_8  and  O_9
REMARK    2  A    between atoms: O_9  and  C_10
REMARK    3  A    between atoms: C_10  and  C_12
REMARK                            x       y       z     vdW  Elec       q    Type
REMARK                         _______ _______ _______ _____ _____    ______ ____
ROOT
ATOM      1  O   UNL     1      -1.912   1.882   0.956  0.00  0.00    +0.000 OA
ENDROOT
BRANCH   1   9
ATOM      2  C   UNL     1       1.330  -0.812  -0.653  0.00  0.00    +0.000 C 
ATOM      3  C   UNL     1       1.324   0.728  -0.645  0.00  0.00    +0.000 C 
ATOM      4  C   UNL     1       0.328   1.138   0.460  0.00  0.00    +0.000 C 
ATOM      5  C   UNL     1       0.366  -0.080   1.393  0.00  0.00    +0.000 C 
ATOM      6  C   UNL     1       0.256  -1.213   0.366  0.00  0.00    +0.000 C 
ATOM      7  C   UNL     1      -1.102  -1.175  -0.298  0.00  0.00    +0.000 C 
ATOM      8  C   UNL     1      -1.732  -0.005  -0.499  0.00  0.00    +0.000 C 
ATOM      9  C   UNL     1      -1.111   1.316  -0.099  0.00  0.00    +0.000 C 
ENDBRANCH   1   9
BRANCH   1  10
ATOM     10  C   UNL     1      -2.931   2.686   0.571  0.00  0.00    +0.000 C 
ATOM     11  O   UNL     1      -3.226   2.976  -0.577  0.00  0.00    +0.000 OA
BRANCH  10  12
ATOM     12  C   UNL     1      -3.672   3.189   1.760  0.00  0.00    +0.000 A 
ATOM     13  C   UNL     1      -4.755   4.053   1.548  0.00  0.00    +0.000 A 
ATOM     14  C   UNL     1      -5.482   4.552   2.631  0.00  0.00    +0.000 A 
ATOM     15  C   UNL     1      -5.131   4.191   3.931  0.00  0.00    +0.000 A 
ATOM     16  C   UNL     1      -4.055   3.332   4.152  0.00  0.00    +0.000 A 
ATOM     17  C   UNL     1      -3.325   2.830   3.071  0.00  0.00    +0.000 A 
ENDBRANCH  10  12
ENDBRANCH   1  10
TORSDOF 3
