REMARK  Name = *****
REMARK  1 active torsions:
REMARK  status: ('A' for Active; 'I' for Inactive)
REMARK    1  A    between atoms: C_5  and  C_6
REMARK                            x       y       z     vdW  Elec       q    Type
REMARK                         _______ _______ _______ _____ _____    ______ ____
ROOT
ATOM      1  C   UNL     1       0.514  -1.724  -0.340  0.00  0.00    +0.000 C 
ATOM      2  C   UNL     1      -0.812  -1.591  -0.421  0.00  0.00    +0.000 C 
ATOM      3  S   UNL     1      -1.483   0.001  -0.343  0.00  0.00    +0.000 S 
ATOM      4  C   UNL     1       0.078   0.766  -0.172  0.00  0.00    +0.000 C 
ATOM      5  C   UNL     1       0.261   2.094  -0.049  0.00  0.00    +0.000 C 
ATOM      6  S   UNL     1       1.473  -0.297  -0.162  0.00  0.00    +0.000 S 
ENDROOT
BRANCH   5   7
ATOM      7  C   UNL     1      -0.763   3.130  -0.035  0.00  0.00    +0.000 C 
ATOM      8  C   UNL     1      -0.582   4.458   0.097  0.00  0.00    +0.000 C 
ATOM      9  S   UNL     1       0.977   5.223   0.286  0.00  0.00    +0.000 S 
ATOM     10  C   UNL     1       0.304   6.812   0.383  0.00  0.00    +0.000 C 
ATOM     11  C   UNL     1      -1.022   6.945   0.293  0.00  0.00    +0.000 C 
ATOM     12  S   UNL     1      -1.978   5.520   0.086  0.00  0.00    +0.000 S 
ENDBRANCH   5   7
TORSDOF 1
