REMARK  Name = *****
REMARK  2 active torsions:
REMARK  status: ('A' for Active; 'I' for Inactive)
REMARK    1  A    between atoms: C_3  and  C_8
REMARK    2  A    between atoms: N_9  and  C_10
REMARK                            x       y       z     vdW  Elec       q    Type
REMARK                         _______ _______ _______ _____ _____    ______ ____
ROOT
ATOM      1  C   UNL     1       2.316   2.627   0.142  0.00  0.00    +0.000 C 
ATOM      2  N   UNL     1       1.796   3.691  -0.381  0.00  0.00    +0.000 NA
ENDROOT
BRANCH   1   5
ATOM      3  C   UNL     1       1.627  -1.036   0.630  0.00  0.00    +0.000 A 
ATOM      4  C   UNL     1       2.256   0.210   0.668  0.00  0.00    +0.000 A 
ATOM      5  C   UNL     1       1.632   1.320   0.089  0.00  0.00    +0.000 A 
ATOM      6  C   UNL     1       0.384   1.192  -0.527  0.00  0.00    +0.000 A 
ATOM      7  C   UNL     1      -0.235  -0.055  -0.559  0.00  0.00    +0.000 A 
ATOM      8  C   UNL     1       0.380  -1.168   0.016  0.00  0.00    +0.000 A 
ATOM      9 CL   UNL     1      -1.772  -0.228  -1.314  0.00  0.00    +0.000 Cl
ENDBRANCH   1   5
BRANCH   2  10
ATOM     10  C   UNL     1       2.550   4.865  -0.260  0.00  0.00    +0.000 A 
ATOM     11  C   UNL     1       3.503   5.196  -1.227  0.00  0.00    +0.000 A 
ATOM     12  C   UNL     1       4.244   6.375  -1.115  0.00  0.00    +0.000 A 
ATOM     13  C   UNL     1       4.021   7.230  -0.037  0.00  0.00    +0.000 A 
ATOM     14  C   UNL     1       3.062   6.919   0.924  0.00  0.00    +0.000 A 
ATOM     15  C   UNL     1       2.324   5.738   0.807  0.00  0.00    +0.000 A 
ATOM     16 CL   UNL     1       4.933   8.682   0.104  0.00  0.00    +0.000 Cl
ENDBRANCH   2  10
TORSDOF 2
