REMARK  Name = *****
REMARK  4 active torsions:
REMARK  status: ('A' for Active; 'I' for Inactive)
REMARK    1  A    between atoms: C_1  and  C_2
REMARK    2  A    between atoms: C_5  and  C_8
REMARK    3  A    between atoms: C_8  and  O_10
REMARK    4  A    between atoms: O_10  and  C_11
REMARK                            x       y       z     vdW  Elec       q    Type
REMARK                         _______ _______ _______ _____ _____    ______ ____
ROOT
ATOM      1  C   UNL     1      -2.260  -0.281  -1.484  0.00  0.00    +0.000 C 
ATOM      2  O   UNL     1      -1.896   0.413  -2.423  0.00  0.00    +0.000 OA
ENDROOT
BRANCH   1   7
ATOM      3  C   UNL     1       2.573   0.045  -0.394  0.00  0.00    +0.000 C 
ATOM      4  C   UNL     1       1.163   0.035   0.191  0.00  0.00    +0.000 C 
ATOM      5  C   UNL     1       0.354   1.231  -0.324  0.00  0.00    +0.000 C 
ATOM      6  C   UNL     1      -1.084   1.219   0.195  0.00  0.00    +0.000 C 
ATOM      7  C   UNL     1      -1.811  -0.113  -0.035  0.00  0.00    +0.000 C 
ATOM      8  C   UNL     1      -0.969  -1.305   0.429  0.00  0.00    +0.000 C 
ATOM      9  C   UNL     1       0.450  -1.282  -0.135  0.00  0.00    +0.000 C 
ENDBRANCH   1   7
BRANCH   1  10
ATOM     10  O   UNL     1      -3.164  -1.342  -1.548  0.00  0.00    +0.000 OA
BRANCH  10  11
ATOM     11  C   UNL     1      -3.658  -1.608  -2.828  0.00  0.00    +0.000 A 
ATOM     12  C   UNL     1      -4.562  -0.737  -3.436  0.00  0.00    +0.000 A 
ATOM     13  C   UNL     1      -5.077  -1.059  -4.693  0.00  0.00    +0.000 A 
ATOM     14  C   UNL     1      -4.697  -2.249  -5.314  0.00  0.00    +0.000 A 
ATOM     15  C   UNL     1      -3.807  -3.126  -4.689  0.00  0.00    +0.000 A 
ATOM     16  C   UNL     1      -3.288  -2.808  -3.434  0.00  0.00    +0.000 A 
ATOM     17 CL   UNL     1      -5.337  -2.645  -6.862  0.00  0.00    +0.000 Cl
ENDBRANCH  10  11
ENDBRANCH   1  10
TORSDOF 3
