REMARK  Name = *****
REMARK  3 active torsions:
REMARK  status: ('A' for Active; 'I' for Inactive)
REMARK    1  A    between atoms: C_4  and  C_6
REMARK    2  A    between atoms: C_7  and  C_8
REMARK    3  A    between atoms: C_11  and  C_13
REMARK                            x       y       z     vdW  Elec       q    Type
REMARK                         _______ _______ _______ _____ _____    ______ ____
ROOT
ATOM      1  C   UNL     1      -0.136  -2.696  -0.103  0.00  0.00    +0.000 C 
ATOM      2  C   UNL     1       0.763  -3.692  -0.050  0.00  0.00    +0.000 C 
ENDROOT
BRANCH   1   6
ATOM      3  C   UNL     1       1.403   0.718   0.109  0.00  0.00    +0.000 A 
ATOM      4  C   UNL     1       0.107   1.165   0.017  0.00  0.00    +0.000 A 
ATOM      5  S   UNL     1      -1.006  -0.122  -0.105  0.00  0.00    +0.000 S 
ATOM      6  C   UNL     1       0.241  -1.319  -0.036  0.00  0.00    +0.000 A 
ATOM      7  C   UNL     1       1.479  -0.706   0.079  0.00  0.00    +0.000 A 
ENDBRANCH   1   6
BRANCH   2   8
ATOM      8  C   UNL     1       0.388  -5.069  -0.119  0.00  0.00    +0.000 A 
ATOM      9  C   UNL     1      -0.852  -5.677  -0.242  0.00  0.00    +0.000 A 
ATOM     10  C   UNL     1      -0.782  -7.101  -0.277  0.00  0.00    +0.000 A 
ATOM     11  C   UNL     1       0.513  -7.556  -0.180  0.00  0.00    +0.000 A 
ATOM     12  S   UNL     1       1.626  -6.274  -0.047  0.00  0.00    +0.000 S 
BRANCH  11  13
ATOM     13  C   UNL     1       0.982  -8.922  -0.179  0.00  0.00    +0.000 C 
ATOM     14  O   UNL     1       0.256  -9.910  -0.271  0.00  0.00    +0.000 OA
ENDBRANCH  11  13
ENDBRANCH   2   8
TORSDOF 3
