REMARK  Name = *****
REMARK  4 active torsions:
REMARK  status: ('A' for Active; 'I' for Inactive)
REMARK    1  A    between atoms: C_1  and  C_2
REMARK    2  A    between atoms: C_5  and  S_7
REMARK    3  A    between atoms: S_7  and  C_8
REMARK    4  A    between atoms: C_8  and  C_9
REMARK                            x       y       z     vdW  Elec       q    Type
REMARK                         _______ _______ _______ _____ _____    ______ ____
ROOT
ATOM      1  S   UNL     1       1.442   2.787   0.158  0.00  0.00    +0.000 S 
ENDROOT
BRANCH   1   6
ATOM      2  C   UNL     1       1.488  -2.331  -0.450  0.00  0.00    +0.000 C 
ATOM      3  C   UNL     1       0.802  -1.033  -0.227  0.00  0.00    +0.000 A 
ATOM      4  C   UNL     1      -0.556  -0.830  -0.067  0.00  0.00    +0.000 A 
ATOM      5  S   UNL     1      -0.878   0.837   0.162  0.00  0.00    +0.000 S 
ATOM      6  C   UNL     1       0.800   1.165   0.033  0.00  0.00    +0.000 A 
ATOM      7  N   UNL     1       1.570   0.119  -0.167  0.00  0.00    +0.000 NA
ENDBRANCH   1   6
BRANCH   1   8
ATOM      8  C   UNL     1       3.213   2.453  -0.055  0.00  0.00    +0.000 C 
BRANCH   8   9
ATOM      9  C   UNL     1       4.024   3.726  -0.006  0.00  0.00    +0.000 A 
ATOM     10  C   UNL     1       4.513   4.213   1.215  0.00  0.00    +0.000 A 
ATOM     11  C   UNL     1       5.253   5.396   1.260  0.00  0.00    +0.000 A 
ATOM     12  C   UNL     1       5.506   6.106   0.088  0.00  0.00    +0.000 A 
ATOM     13  C   UNL     1       5.017   5.637  -1.130  0.00  0.00    +0.000 A 
ATOM     14  C   UNL     1       4.278   4.454  -1.177  0.00  0.00    +0.000 A 
ENDBRANCH   8   9
ENDBRANCH   1   8
TORSDOF 3
