REMARK  Name = *****
REMARK  3 active torsions:
REMARK  status: ('A' for Active; 'I' for Inactive)
REMARK    1  A    between atoms: C_2  and  N_3
REMARK    2  A    between atoms: C_7  and  C_8
REMARK    3  A    between atoms: C_10  and  C_11
REMARK                            x       y       z     vdW  Elec       q    Type
REMARK                         _______ _______ _______ _____ _____    ______ ____
ROOT
ATOM      1  C   UNL     1       4.506  -1.369   1.077  0.00  0.00    +0.000 C 
ATOM      2  C   UNL     1       3.556  -1.639   2.222  0.00  0.00    +0.000 C 
ATOM      3  C   UNL     1       4.134  -0.266   2.063  0.00  0.00    +0.000 C 
ENDROOT
BRANCH   3   4
ATOM      4  C   UNL     1       3.262   0.920   1.726  0.00  0.00    +0.000 A 
ATOM      5  C   UNL     1       1.946   1.043   2.210  0.00  0.00    +0.000 A 
ATOM      6  C   UNL     1       1.144   2.139   1.882  0.00  0.00    +0.000 A 
ATOM      7  C   UNL     1       1.653   3.158   1.083  0.00  0.00    +0.000 A 
ATOM      8  C   UNL     1       2.962   3.080   0.617  0.00  0.00    +0.000 A 
ATOM      9  C   UNL     1       3.755   1.973   0.937  0.00  0.00    +0.000 A 
ENDBRANCH   3   4
BRANCH   1  14
ATOM     10  N   UNL     1       4.527  -2.239  -1.385  0.00  0.00    +0.000 N 
ATOM     11  C   UNL     1       3.701  -2.100  -2.489  0.00  0.00    +0.000 A 
ATOM     12  C   UNL     1       2.590  -1.367  -2.150  0.00  0.00    +0.000 A 
ATOM     13  C   UNL     1       2.724  -1.026  -0.792  0.00  0.00    +0.000 A 
ATOM     14  C   UNL     1       3.932  -1.524  -0.343  0.00  0.00    +0.000 A 
BRANCH  10  16
ATOM     15  C   UNL     1       6.253  -3.725  -2.307  0.00  0.00    +0.000 C 
ATOM     16  C   UNL     1       5.710  -2.990  -1.326  0.00  0.00    +0.000 C 
ENDBRANCH  10  16
ENDBRANCH   1  14
TORSDOF 3
