REMARK  Name = *****
REMARK  3 active torsions:
REMARK  status: ('A' for Active; 'I' for Inactive)
REMARK    1  A    between atoms: C_7  and  O_8
REMARK    2  A    between atoms: O_8  and  C_9
REMARK    3  A    between atoms: C_9  and  C_11
REMARK                            x       y       z     vdW  Elec       q    Type
REMARK                         _______ _______ _______ _____ _____    ______ ____
ROOT
ATOM      1  O   UNL     1       2.194   1.693   0.173  0.00  0.00    +0.000 OA
ENDROOT
BRANCH   1   8
ATOM      2  C   UNL     1      -1.140  -0.936   0.306  0.00  0.00    +0.000 C 
ATOM      3  C   UNL     1      -1.383   0.578   0.403  0.00  0.00    +0.000 C 
ATOM      4  C   UNL     1      -0.127   1.170  -0.257  0.00  0.00    +0.000 C 
ATOM      5  C   UNL     1       0.137   0.160  -1.377  0.00  0.00    +0.000 C 
ATOM      6  C   UNL     1       0.215  -1.024  -0.416  0.00  0.00    +0.000 C 
ATOM      7  C   UNL     1       1.329  -0.573   0.547  0.00  0.00    +0.000 C 
ATOM      8  C   UNL     1       1.080   0.943   0.679  0.00  0.00    +0.000 C 
ENDBRANCH   1   8
BRANCH   1   9
ATOM      9  C   UNL     1       3.253   1.795   1.015  0.00  0.00    +0.000 C 
ATOM     10  O   UNL     1       3.327   1.308   2.132  0.00  0.00    +0.000 OA
BRANCH   9  11
ATOM     11  C   UNL     1       4.342   2.593   0.391  0.00  0.00    +0.000 A 
ATOM     12  C   UNL     1       5.509   2.815   1.135  0.00  0.00    +0.000 A 
ATOM     13  C   UNL     1       6.560   3.559   0.594  0.00  0.00    +0.000 A 
ATOM     14  C   UNL     1       6.451   4.084  -0.693  0.00  0.00    +0.000 A 
ATOM     15  C   UNL     1       5.294   3.867  -1.441  0.00  0.00    +0.000 A 
ATOM     16  C   UNL     1       4.241   3.124  -0.903  0.00  0.00    +0.000 A 
ENDBRANCH   9  11
ENDBRANCH   1   9
TORSDOF 3
