REMARK  Name = *****
REMARK  4 active torsions:
REMARK  status: ('A' for Active; 'I' for Inactive)
REMARK    1  A    between atoms: C_1  and  C_2
REMARK    2  A    between atoms: C_7  and  O_8
REMARK    3  A    between atoms: O_8  and  C_9
REMARK    4  A    between atoms: C_9  and  C_10
REMARK                            x       y       z     vdW  Elec       q    Type
REMARK                         _______ _______ _______ _____ _____    ______ ____
ROOT
ATOM      1  C   UNL     1       4.849   1.762   1.564  0.00  0.00    +0.000 C 
ATOM      2  C   UNL     1       4.111   0.725   0.773  0.00  0.00    +0.000 A 
ATOM      3  C   UNL     1       4.635  -0.562   0.606  0.00  0.00    +0.000 A 
ATOM      4  C   UNL     1       3.924  -1.502  -0.133  0.00  0.00    +0.000 A 
ATOM      5  C   UNL     1       2.710  -1.125  -0.684  0.00  0.00    +0.000 A 
ATOM      6  N   UNL     1       2.171   0.109  -0.544  0.00  0.00    +0.000 NA
ATOM      7  C   UNL     1       2.879   1.006   0.179  0.00  0.00    +0.000 A 
ATOM      8  I   UNL     1       4.663  -3.414  -0.404  0.00  0.00    +0.000 I 
ENDROOT
BRANCH   7   9
ATOM      9  O   UNL     1       2.376   2.278   0.354  0.00  0.00    +0.000 OA
BRANCH   9  10
ATOM     10  C   UNL     1       1.121   2.485  -0.295  0.00  0.00    +0.000 C 
BRANCH  10  11
ATOM     11  C   UNL     1       0.686   3.914  -0.059  0.00  0.00    +0.000 A 
ATOM     12  C   UNL     1       1.530   4.981  -0.405  0.00  0.00    +0.000 A 
ATOM     13  C   UNL     1       1.123   6.301  -0.208  0.00  0.00    +0.000 A 
ATOM     14  C   UNL     1      -0.133   6.570   0.331  0.00  0.00    +0.000 A 
ATOM     15  C   UNL     1      -0.983   5.520   0.674  0.00  0.00    +0.000 A 
ATOM     16  C   UNL     1      -0.577   4.198   0.478  0.00  0.00    +0.000 A 
ENDBRANCH  10  11
ENDBRANCH   9  10
ENDBRANCH   7   9
TORSDOF 3
