REMARK  Name = *****
REMARK  4 active torsions:
REMARK  status: ('A' for Active; 'I' for Inactive)
REMARK    1  A    between atoms: C_4  and  C_7
REMARK    2  A    between atoms: C_7  and  O_9
REMARK    3  A    between atoms: O_9  and  N_10
REMARK    4  A    between atoms: N_10  and  C_11
REMARK                            x       y       z     vdW  Elec       q    Type
REMARK                         _______ _______ _______ _____ _____    ______ ____
ROOT
ATOM      1  O   UNL     1      -3.672  -0.761  -0.580  0.00  0.00    +0.000 OA
ENDROOT
BRANCH   1   2
ATOM      2  C   UNL     1      -3.108   0.428  -0.948  0.00  0.00    +0.000 C 
ATOM      3  O   UNL     1      -3.705   1.495  -1.007  0.00  0.00    +0.000 OA
BRANCH   2   7
ATOM      4  C   UNL     1       1.048   0.041  -1.920  0.00  0.00    +0.000 A 
ATOM      5  C   UNL     1       0.410   1.277  -2.002  0.00  0.00    +0.000 A 
ATOM      6  C   UNL     1      -0.945   1.385  -1.681  0.00  0.00    +0.000 A 
ATOM      7  C   UNL     1      -1.668   0.255  -1.277  0.00  0.00    +0.000 A 
ATOM      8  C   UNL     1      -1.020  -0.986  -1.196  0.00  0.00    +0.000 A 
ATOM      9  C   UNL     1       0.336  -1.089  -1.518  0.00  0.00    +0.000 A 
ENDBRANCH   2   7
ENDBRANCH   1   2
BRANCH   1  10
ATOM     10  N   UNL     1      -5.031  -0.619  -0.245  0.00  0.00    +0.000 N 
ATOM     11  H   UNL     1      -5.337   0.152   0.286  0.00  0.00    +0.000 HD
BRANCH  10  12
ATOM     12  C   UNL     1      -5.949  -1.596  -0.682  0.00  0.00    +0.000 A 
ATOM     13  C   UNL     1      -5.539  -2.894  -1.012  0.00  0.00    +0.000 A 
ATOM     14  C   UNL     1      -6.472  -3.868  -1.375  0.00  0.00    +0.000 A 
ATOM     15  C   UNL     1      -7.831  -3.562  -1.388  0.00  0.00    +0.000 A 
ATOM     16  C   UNL     1      -8.256  -2.286  -1.026  0.00  0.00    +0.000 A 
ATOM     17  C   UNL     1      -7.321  -1.314  -0.664  0.00  0.00    +0.000 A 
ENDBRANCH  10  12
ENDBRANCH   1  10
TORSDOF 4
