REMARK  Name = *****
REMARK  3 active torsions:
REMARK  status: ('A' for Active; 'I' for Inactive)
REMARK    1  A    between atoms: C_4  and  C_6
REMARK    2  A    between atoms: C_7  and  C_8
REMARK    3  A    between atoms: C_11  and  C_13
REMARK                            x       y       z     vdW  Elec       q    Type
REMARK                         _______ _______ _______ _____ _____    ______ ____
ROOT
ATOM      1  C   UNL     1      -0.121  -2.716  -0.086  0.00  0.00    +0.000 C 
ATOM      2  C   UNL     1       0.790  -3.702  -0.035  0.00  0.00    +0.000 C 
ENDROOT
BRANCH   1   6
ATOM      3  C   UNL     1       1.385   0.716   0.084  0.00  0.00    +0.000 A 
ATOM      4  C   UNL     1       0.084   1.149  -0.003  0.00  0.00    +0.000 A 
ATOM      5  S   UNL     1      -1.017  -0.151  -0.104  0.00  0.00    +0.000 S 
ATOM      6  C   UNL     1       0.243  -1.335  -0.034  0.00  0.00    +0.000 A 
ATOM      7  C   UNL     1       1.475  -0.708   0.066  0.00  0.00    +0.000 A 
ENDBRANCH   1   6
BRANCH   2   8
ATOM      8  C   UNL     1       0.429  -5.084  -0.089  0.00  0.00    +0.000 A 
ATOM      9  C   UNL     1      -0.806  -5.706  -0.190  0.00  0.00    +0.000 A 
ATOM     10  C   UNL     1      -0.720  -7.131  -0.216  0.00  0.00    +0.000 A 
ATOM     11  C   UNL     1       0.582  -7.572  -0.135  0.00  0.00    +0.000 A 
ATOM     12  S   UNL     1       1.680  -6.274  -0.027  0.00  0.00    +0.000 S 
BRANCH  11  13
ATOM     13  C   UNL     1       0.985  -8.942  -0.139  0.00  0.00    +0.000 C 
ATOM     14  N   UNL     1       1.296 -10.060  -0.143  0.00  0.00    +0.000 NA
ENDBRANCH  11  13
ENDBRANCH   2   8
TORSDOF 3
