REMARK  Name = *****
REMARK  3 active torsions:
REMARK  status: ('A' for Active; 'I' for Inactive)
REMARK    1  A    between atoms: C_6  and  C_7
REMARK    2  A    between atoms: C_7  and  S_9
REMARK    3  A    between atoms: S_9  and  C_10
REMARK                            x       y       z     vdW  Elec       q    Type
REMARK                         _______ _______ _______ _____ _____    ______ ____
ROOT
ATOM      1  C   UNL     1      -3.450   0.203   0.381  0.00  0.00    +0.000 C 
ATOM      2  O   UNL     1      -4.093  -0.835   0.487  0.00  0.00    +0.000 OA
ENDROOT
BRANCH   1   8
ATOM      3  C   UNL     1      -1.176   1.268  -0.122  0.00  0.00    +0.000 A 
ATOM      4  C   UNL     1       0.206   1.132  -0.295  0.00  0.00    +0.000 A 
ATOM      5  C   UNL     1       0.797  -0.119  -0.172  0.00  0.00    +0.000 A 
ATOM      6  C   UNL     1       0.035  -1.242   0.120  0.00  0.00    +0.000 A 
ATOM      7  C   UNL     1      -1.346  -1.110   0.293  0.00  0.00    +0.000 A 
ATOM      8  C   UNL     1      -1.968   0.147   0.178  0.00  0.00    +0.000 A 
ATOM      9  F   UNL     1       2.120  -0.243  -0.337  0.00  0.00    +0.000 F 
ENDBRANCH   1   8
BRANCH   1  10
ATOM     10  S   UNL     1      -4.216   1.788   0.477  0.00  0.00    +0.000 S 
BRANCH  10  11
ATOM     11  C   UNL     1      -5.869   1.391   1.011  0.00  0.00    +0.000 A 
ATOM     12  C   UNL     1      -6.107   0.798   2.258  0.00  0.00    +0.000 A 
ATOM     13  C   UNL     1      -7.413   0.525   2.671  0.00  0.00    +0.000 A 
ATOM     14  C   UNL     1      -8.477   0.857   1.841  0.00  0.00    +0.000 A 
ATOM     15  C   UNL     1      -8.261   1.458   0.607  0.00  0.00    +0.000 A 
ATOM     16  C   UNL     1      -6.955   1.728   0.192  0.00  0.00    +0.000 A 
ATOM     17  F   UNL     1      -9.730   0.599   2.238  0.00  0.00    +0.000 F 
ENDBRANCH  10  11
ENDBRANCH   1  10
TORSDOF 3
