REMARK  Name = *****
REMARK  3 active torsions:
REMARK  status: ('A' for Active; 'I' for Inactive)
REMARK    1  A    between atoms: C_4  and  C_7
REMARK    2  A    between atoms: C_8  and  C_9
REMARK    3  A    between atoms: C_9  and  C_10
REMARK                            x       y       z     vdW  Elec       q    Type
REMARK                         _______ _______ _______ _____ _____    ______ ____
ROOT
ATOM      1  C   UNL     1      -2.837   0.354  -0.218  0.00  0.00    +0.000 C 
ATOM      2  C   UNL     1      -3.698  -0.661  -0.397  0.00  0.00    +0.000 C 
ENDROOT
BRANCH   1   6
ATOM      3  C   UNL     1       1.409  -0.006   0.176  0.00  0.00    +0.000 A 
ATOM      4  C   UNL     1       0.724  -0.866  -0.680  0.00  0.00    +0.000 A 
ATOM      5  C   UNL     1      -0.663  -0.765  -0.812  0.00  0.00    +0.000 A 
ATOM      6  C   UNL     1      -1.382   0.191  -0.083  0.00  0.00    +0.000 A 
ATOM      7  C   UNL     1      -0.680   1.061   0.762  0.00  0.00    +0.000 A 
ATOM      8  C   UNL     1       0.708   0.960   0.895  0.00  0.00    +0.000 A 
ENDBRANCH   1   6
BRANCH   2   9
ATOM      9  C   UNL     1      -5.188  -0.487  -0.527  0.00  0.00    +0.000 C 
BRANCH   9  10
ATOM     10  C   UNL     1      -5.980  -1.189   0.540  0.00  0.00    +0.000 A 
ATOM     11  C   UNL     1      -6.203  -0.785   1.842  0.00  0.00    +0.000 A 
ATOM     12  C   UNL     1      -7.005  -1.711   2.568  0.00  0.00    +0.000 A 
ATOM     13  C   UNL     1      -7.368  -2.792   1.797  0.00  0.00    +0.000 A 
ATOM     14  S   UNL     1      -6.743  -2.688   0.210  0.00  0.00    +0.000 S 
ENDBRANCH   9  10
ENDBRANCH   2   9
TORSDOF 3
