REMARK  Name = *****
REMARK  4 active torsions:
REMARK  status: ('A' for Active; 'I' for Inactive)
REMARK    1  A    between atoms: C_1  and  C_2
REMARK    2  A    between atoms: C_4  and  C_8
REMARK    3  A    between atoms: C_8  and  O_9
REMARK    4  A    between atoms: O_9  and  C_10
REMARK                            x       y       z     vdW  Elec       q    Type
REMARK                         _______ _______ _______ _____ _____    ______ ____
ROOT
ATOM      1  C   UNL     1      -1.856   2.536   0.003  0.00  0.00    +0.000 C 
ENDROOT
BRANCH   1   5
ATOM      2  C   UNL     1      -0.818  -1.930  -2.131  0.00  0.00    +0.000 C 
ATOM      3  C   UNL     1      -0.577  -0.909  -1.059  0.00  0.00    +0.000 A 
ATOM      4  C   UNL     1      -1.294   0.295  -1.035  0.00  0.00    +0.000 A 
ATOM      5  C   UNL     1      -1.064   1.250  -0.033  0.00  0.00    +0.000 A 
ATOM      6  C   UNL     1      -0.106   0.981   0.955  0.00  0.00    +0.000 A 
ATOM      7  C   UNL     1       0.611  -0.214   0.938  0.00  0.00    +0.000 A 
ATOM      8  C   UNL     1       0.376  -1.156  -0.064  0.00  0.00    +0.000 A 
ENDBRANCH   1   5
BRANCH   1   9
ATOM      9  O   UNL     1      -0.948   3.638  -0.026  0.00  0.00    +0.000 OA
BRANCH   9  10
ATOM     10  C   UNL     1      -1.489   4.893   0.028  0.00  0.00    +0.000 A 
ATOM     11  C   UNL     1      -2.846   5.200   0.102  0.00  0.00    +0.000 A 
ATOM     12  C   UNL     1      -3.245   6.534   0.151  0.00  0.00    +0.000 A 
ATOM     13  C   UNL     1      -2.317   7.570   0.129  0.00  0.00    +0.000 A 
ATOM     14  C   UNL     1      -0.961   7.267   0.055  0.00  0.00    +0.000 A 
ATOM     15  C   UNL     1      -0.552   5.932   0.005  0.00  0.00    +0.000 A 
ATOM     16  F   UNL     1      -4.551   6.825   0.221  0.00  0.00    +0.000 F 
ENDBRANCH   9  10
ENDBRANCH   1   9
TORSDOF 3
