REMARK  Name = *****
REMARK  4 active torsions:
REMARK  status: ('A' for Active; 'I' for Inactive)
REMARK    1  A    between atoms: C_6  and  C_7
REMARK    2  A    between atoms: C_7  and  S_17
REMARK    3  A    between atoms: C_8  and  C_9
REMARK    4  A    between atoms: C_8  and  S_16
REMARK                            x       y       z     vdW  Elec       q    Type
REMARK                         _______ _______ _______ _____ _____    ______ ____
ROOT
ATOM      1  C   UNL     1      -3.424  -0.046   0.062  0.00  0.00    +0.000 C 
ATOM      2  C   UNL     1      -4.167  -1.157  -0.157  0.00  0.00    +0.000 C 
ENDROOT
BRANCH   1   8
ATOM      3  C   UNL     1      -1.183  -0.268   1.142  0.00  0.00    +0.000 A 
ATOM      4  C   UNL     1       0.211  -0.257   1.070  0.00  0.00    +0.000 A 
ATOM      5  C   UNL     1       0.834  -0.002  -0.147  0.00  0.00    +0.000 A 
ATOM      6  C   UNL     1       0.090   0.242  -1.296  0.00  0.00    +0.000 A 
ATOM      7  C   UNL     1      -1.304   0.232  -1.229  0.00  0.00    +0.000 A 
ATOM      8  C   UNL     1      -1.950  -0.022  -0.008  0.00  0.00    +0.000 A 
ATOM      9  F   UNL     1       2.171   0.007  -0.214  0.00  0.00    +0.000 F 
ENDBRANCH   1   8
BRANCH   2  10
ATOM     10  C   UNL     1      -5.644  -1.164  -0.087  0.00  0.00    +0.000 A 
ATOM     11  C   UNL     1      -6.408  -0.862  -1.227  0.00  0.00    +0.000 A 
ATOM     12  C   UNL     1      -7.802  -0.858  -1.157  0.00  0.00    +0.000 A 
ATOM     13  C   UNL     1      -8.429  -1.154   0.048  0.00  0.00    +0.000 A 
ATOM     14  C   UNL     1      -7.691  -1.453   1.187  0.00  0.00    +0.000 A 
ATOM     15  C   UNL     1      -6.296  -1.458   1.121  0.00  0.00    +0.000 A 
ATOM     16  F   UNL     1      -9.767  -1.149   0.113  0.00  0.00    +0.000 F 
ENDBRANCH   2  10
BRANCH   2  17
ATOM     17  S   UNL     1      -3.520  -2.733  -0.550  0.00  0.00    +0.000 S 
ATOM     18  H   UNL     1      -2.162  -2.666  -0.600  0.00  0.00    +0.000 HD
ENDBRANCH   2  17
BRANCH   1  19
ATOM     19  S   UNL     1      -4.117   1.512   0.457  0.00  0.00    +0.000 S 
ATOM     20  H   UNL     1      -3.120   2.423   0.617  0.00  0.00    +0.000 HD
ENDBRANCH   1  19
TORSDOF 4
