REMARK  Name = *****
REMARK  4 active torsions:
REMARK  status: ('A' for Active; 'I' for Inactive)
REMARK    1  A    between atoms: C_1  and  C_2
REMARK    2  A    between atoms: C_2  and  C_4
REMARK    3  A    between atoms: C_8  and  C_10
REMARK    4  A    between atoms: C_11  and  C_12
REMARK                            x       y       z     vdW  Elec       q    Type
REMARK                         _______ _______ _______ _____ _____    ______ ____
ROOT
ATOM      1  C   UNL     1       3.260   0.971   0.906  0.00  0.00    +0.000 A 
ATOM      2  C   UNL     1       2.907   0.949   2.262  0.00  0.00    +0.000 A 
ATOM      3  C   UNL     1       3.561   1.784   3.171  0.00  0.00    +0.000 A 
ATOM      4  C   UNL     1       4.568   2.644   2.732  0.00  0.00    +0.000 A 
ATOM      5  C   UNL     1       4.926   2.672   1.383  0.00  0.00    +0.000 A 
ATOM      6  C   UNL     1       4.276   1.836   0.472  0.00  0.00    +0.000 A 
ENDROOT
BRANCH   1   8
ATOM      7  C   UNL     1       1.434  -0.765   0.332  0.00  0.00    +0.000 C 
ATOM      8  C   UNL     1       2.589   0.100  -0.103  0.00  0.00    +0.000 C 
ATOM      9  O   UNL     1       2.980   0.097  -1.269  0.00  0.00    +0.000 OA
ENDBRANCH   1   8
BRANCH   5  10
ATOM     10  C   UNL     1       5.948   3.566   0.936  0.00  0.00    +0.000 C 
ATOM     11  C   UNL     1       6.797   4.334   0.573  0.00  0.00    +0.000 C 
BRANCH  11  12
ATOM     12  C   UNL     1       7.797   5.261   0.150  0.00  0.00    +0.000 C 
ATOM     13  C   UNL     1       7.595   6.575   0.351  0.00  0.00    +0.000 C 
ATOM     14  C   UNL     1       8.567   7.640  -0.062  0.00  0.00    +0.000 C 
ATOM     15  C   UNL     1       9.664   7.130  -0.997  0.00  0.00    +0.000 C 
ATOM     16  C   UNL     1      10.186   5.771  -0.544  0.00  0.00    +0.000 C 
ATOM     17  C   UNL     1       9.058   4.736  -0.493  0.00  0.00    +0.000 C 
ENDBRANCH  11  12
ENDBRANCH   5  10
TORSDOF 3
