REMARK  Name = *****
REMARK  5 active torsions:
REMARK  status: ('A' for Active; 'I' for Inactive)
REMARK    1  A    between atoms: C_1  and  C_2
REMARK    2  A    between atoms: C_2  and  O_3
REMARK    3  A    between atoms: O_3  and  C_4
REMARK    4  A    between atoms: C_4  and  C_12
REMARK    5  A    between atoms: C_12  and  C_13
REMARK                            x       y       z     vdW  Elec       q    Type
REMARK                         _______ _______ _______ _____ _____    ______ ____
ROOT
ATOM      1  C   UNL     1       4.426   0.570   1.667  0.00  0.00    +0.000 C 
ATOM      2  C   UNL     1       5.169   0.117   0.668  0.00  0.00    +0.000 C 
ATOM      3  C   UNL     1       6.481   0.052   0.147  0.00  0.00    +0.000 C 
ATOM      4  C   UNL     1       5.237  -0.571  -0.561  0.00  0.00    +0.000 C 
ATOM      5  C   UNL     1       5.256  -2.063  -0.661  0.00  0.00    +0.000 C 
ATOM      6  C   UNL     1       6.615  -2.536  -1.184  0.00  0.00    +0.000 C 
ATOM      7  C   UNL     1       7.829  -1.960  -0.429  0.00  0.00    +0.000 C 
ATOM      8  C   UNL     1       7.488  -0.931   0.653  0.00  0.00    +0.000 C 
ENDROOT
BRANCH   1   9
ATOM      9  O   UNL     1       3.058   0.428   1.789  0.00  0.00    +0.000 OA
BRANCH   9  11
ATOM     10  C   UNL     1       0.918  -0.449   1.225  0.00  0.00    +0.000 C 
ATOM     11  C   UNL     1       2.386  -0.403   0.845  0.00  0.00    +0.000 C 
ENDBRANCH   9  11
ENDBRANCH   1   9
BRANCH   1  12
ATOM     12  C   UNL     1       5.046   1.372   2.788  0.00  0.00    +0.000 C 
BRANCH  12  13
ATOM     13  C   UNL     1       5.150   0.606   4.089  0.00  0.00    +0.000 A 
ATOM     14  C   UNL     1       6.340  -0.046   4.441  0.00  0.00    +0.000 A 
ATOM     15  C   UNL     1       6.431  -0.756   5.639  0.00  0.00    +0.000 A 
ATOM     16  C   UNL     1       5.333  -0.826   6.495  0.00  0.00    +0.000 A 
ATOM     17  C   UNL     1       4.142  -0.189   6.152  0.00  0.00    +0.000 A 
ATOM     18  C   UNL     1       4.050   0.522   4.955  0.00  0.00    +0.000 A 
ENDBRANCH  12  13
ENDBRANCH   1  12
TORSDOF 4
