REMARK  Name = *****
REMARK  4 active torsions:
REMARK  status: ('A' for Active; 'I' for Inactive)
REMARK    1  A    between atoms: C_5  and  C_7
REMARK    2  A    between atoms: C_7  and  C_8
REMARK    3  A    between atoms: C_8  and  C_9
REMARK    4  A    between atoms: C_9  and  C_10
REMARK                            x       y       z     vdW  Elec       q    Type
REMARK                         _______ _______ _______ _____ _____    ______ ____
ROOT
ATOM      1  C   UNL     1       3.164  -1.965  -0.100  0.00  0.00    +0.000 C 
ENDROOT
BRANCH   1   2
ATOM      2  C   UNL     1       1.680  -2.339  -0.145  0.00  0.00    +0.000 C 
BRANCH   2   7
ATOM      3  C   UNL     1      -0.905   0.234   1.265  0.00  0.00    +0.000 C 
ATOM      4  C   UNL     1      -0.983   1.133   0.066  0.00  0.00    +0.000 C 
ATOM      5  C   UNL     1      -0.266   0.930  -1.050  0.00  0.00    +0.000 C 
ATOM      6  C   UNL     1       0.694  -0.215  -1.219  0.00  0.00    +0.000 C 
ATOM      7  C   UNL     1       0.770  -1.138  -0.020  0.00  0.00    +0.000 C 
ATOM      8  C   UNL     1       0.038  -0.923   1.091  0.00  0.00    +0.000 C 
ENDBRANCH   2   7
ENDBRANCH   1   2
BRANCH   1   9
ATOM      9  C   UNL     1       4.046  -3.215  -0.154  0.00  0.00    +0.000 C 
BRANCH   9  10
ATOM     10  C   UNL     1       5.513  -2.864  -0.144  0.00  0.00    +0.000 A 
ATOM     11  C   UNL     1       6.190  -2.676   1.068  0.00  0.00    +0.000 A 
ATOM     12  C   UNL     1       7.543  -2.335   1.077  0.00  0.00    +0.000 A 
ATOM     13  C   UNL     1       8.231  -2.174  -0.125  0.00  0.00    +0.000 A 
ATOM     14  C   UNL     1       7.565  -2.352  -1.336  0.00  0.00    +0.000 A 
ATOM     15  C   UNL     1       6.211  -2.693  -1.347  0.00  0.00    +0.000 A 
ENDBRANCH   9  10
ENDBRANCH   1   9
TORSDOF 4
