REMARK  Name = *****
REMARK  5 active torsions:
REMARK  status: ('A' for Active; 'I' for Inactive)
REMARK    1  A    between atoms: C_1  and  C_2
REMARK    2  A    between atoms: C_2  and  C_3
REMARK    3  A    between atoms: C_3  and  C_4
REMARK    4  A    between atoms: C_3  and  C_10
REMARK    5  A    between atoms: C_10  and  C_12
REMARK                            x       y       z     vdW  Elec       q    Type
REMARK                         _______ _______ _______ _____ _____    ______ ____
ROOT
ATOM      1  C   UNL     1       2.980   1.482  -0.148  0.00  0.00    +0.000 C 
ENDROOT
BRANCH   1   2
ATOM      2  C   UNL     1       2.234   0.179   0.109  0.00  0.00    +0.000 A 
ATOM      3  C   UNL     1       2.525  -0.622   1.224  0.00  0.00    +0.000 A 
ATOM      4  C   UNL     1       1.823  -1.807   1.451  0.00  0.00    +0.000 A 
ATOM      5  C   UNL     1       0.816  -2.201   0.574  0.00  0.00    +0.000 A 
ATOM      6  C   UNL     1       0.504  -1.408  -0.528  0.00  0.00    +0.000 A 
ATOM      7  C   UNL     1       1.205  -0.222  -0.757  0.00  0.00    +0.000 A 
ENDBRANCH   1   2
BRANCH   1   9
ATOM      8  C   UNL     1       2.922   3.972   0.406  0.00  0.00    +0.000 C 
ATOM      9  C   UNL     1       2.449   2.578   0.801  0.00  0.00    +0.000 C 
ENDBRANCH   1   9
BRANCH   1  10
ATOM     10  C   UNL     1       4.500   1.305  -0.012  0.00  0.00    +0.000 C 
ATOM     11  O   UNL     1       5.097   1.588   1.029  0.00  0.00    +0.000 OA
BRANCH  10  12
ATOM     12  C   UNL     1       5.294   0.770  -1.165  0.00  0.00    +0.000 A 
ATOM     13  C   UNL     1       4.705   0.233  -2.316  0.00  0.00    +0.000 A 
ATOM     14  C   UNL     1       5.504  -0.243  -3.360  0.00  0.00    +0.000 A 
ATOM     15  C   UNL     1       6.893  -0.189  -3.263  0.00  0.00    +0.000 A 
ATOM     16  C   UNL     1       7.490   0.338  -2.121  0.00  0.00    +0.000 A 
ATOM     17  C   UNL     1       6.694   0.814  -1.076  0.00  0.00    +0.000 A 
ENDBRANCH  10  12
ENDBRANCH   1  10
TORSDOF 4
