REMARK  Name = *****
REMARK  2 active torsions:
REMARK  status: ('A' for Active; 'I' for Inactive)
REMARK    1  A    between atoms: C_5  and  C_7
REMARK    2  A    between atoms: C_8  and  C_9
REMARK                            x       y       z     vdW  Elec       q    Type
REMARK                         _______ _______ _______ _____ _____    ______ ____
ROOT
ATOM      1  C   UNL     1       1.531  -1.584  -1.366  0.00  0.00    +0.000 C 
ATOM      2  C   UNL     1       1.935  -1.953  -2.436  0.00  0.00    +0.000 C 
ENDROOT
BRANCH   2   3
ATOM      3  C   UNL     1       2.415  -2.393  -3.709  0.00  0.00    +0.000 A 
ATOM      4  C   UNL     1       2.526  -1.484  -4.764  0.00  0.00    +0.000 A 
ATOM      5  C   UNL     1       2.996  -1.910  -6.010  0.00  0.00    +0.000 A 
ATOM      6  C   UNL     1       3.355  -3.245  -6.206  0.00  0.00    +0.000 A 
ATOM      7  C   UNL     1       3.245  -4.155  -5.155  0.00  0.00    +0.000 A 
ATOM      8  C   UNL     1       2.776  -3.725  -3.915  0.00  0.00    +0.000 A 
ATOM      9  F   UNL     1       2.680  -4.621  -2.920  0.00  0.00    +0.000 F 
ENDBRANCH   2   3
BRANCH   1  14
ATOM     10  C   UNL     1       0.457   1.302  -0.451  0.00  0.00    +0.000 C 
ATOM     11  C   UNL     1      -0.989   1.064  -0.007  0.00  0.00    +0.000 C 
ATOM     12  C   UNL     1      -1.354  -0.390   0.060  0.00  0.00    +0.000 C 
ATOM     13  C   UNL     1      -0.445  -1.377   0.023  0.00  0.00    +0.000 C 
ATOM     14  C   UNL     1       1.043  -1.144  -0.046  0.00  0.00    +0.000 C 
ATOM     15  C   UNL     1       1.419   0.324   0.226  0.00  0.00    +0.000 C 
ENDBRANCH   1  14
TORSDOF 2
