REMARK  Name = *****
REMARK  4 active torsions:
REMARK  status: ('A' for Active; 'I' for Inactive)
REMARK    1  A    between atoms: C_5  and  C_6
REMARK    2  A    between atoms: C_6  and  C_7
REMARK    3  A    between atoms: C_7  and  C_8
REMARK    4  A    between atoms: C_8  and  C_9
REMARK                            x       y       z     vdW  Elec       q    Type
REMARK                         _______ _______ _______ _____ _____    ______ ____
ROOT
ATOM      1  C   UNL     1       1.683  -2.603   1.657  0.00  0.00    +0.000 C 
ENDROOT
BRANCH   1   2
ATOM      2  C   UNL     1       0.415  -1.764   1.467  0.00  0.00    +0.000 C 
BRANCH   2   7
ATOM      3  C   UNL     1      -1.115  -0.565  -0.169  0.00  0.00    +0.000 C 
ATOM      4  C   UNL     1      -0.817   0.895  -0.075  0.00  0.00    +0.000 C 
ATOM      5  C   UNL     1       0.494   1.137  -0.153  0.00  0.00    +0.000 C 
ATOM      6  C   UNL     1       1.284  -0.121  -0.307  0.00  0.00    +0.000 C 
ATOM      7  C   UNL     1       0.264  -1.226   0.029  0.00  0.00    +0.000 C 
ENDBRANCH   2   7
ENDBRANCH   1   2
BRANCH   1   8
ATOM      8  C   UNL     1       1.761  -3.169   3.078  0.00  0.00    +0.000 C 
BRANCH   8   9
ATOM      9  C   UNL     1       3.017  -3.978   3.286  0.00  0.00    +0.000 A 
ATOM     10  C   UNL     1       4.183  -3.367   3.767  0.00  0.00    +0.000 A 
ATOM     11  C   UNL     1       5.351  -4.112   3.942  0.00  0.00    +0.000 A 
ATOM     12  C   UNL     1       5.365  -5.471   3.634  0.00  0.00    +0.000 A 
ATOM     13  C   UNL     1       4.213  -6.086   3.148  0.00  0.00    +0.000 A 
ATOM     14  C   UNL     1       3.044  -5.343   2.972  0.00  0.00    +0.000 A 
ENDBRANCH   8   9
ENDBRANCH   1   8
TORSDOF 4
