REMARK  Name = *****
REMARK  5 active torsions:
REMARK  status: ('A' for Active; 'I' for Inactive)
REMARK    1  A    between atoms: C_1  and  O_2
REMARK    2  A    between atoms: O_2  and  C_3
REMARK    3  A    between atoms: C_3  and  C_5
REMARK    4  A    between atoms: C_10  and  C_11
REMARK    5  A    between atoms: C_12  and  C_13
REMARK                            x       y       z     vdW  Elec       q    Type
REMARK                         _______ _______ _______ _____ _____    ______ ____
ROOT
ATOM      1  C   UNL     1       4.525   0.904   0.825  0.00  0.00    +0.000 A 
ATOM      2  C   UNL     1       5.192   0.907  -0.414  0.00  0.00    +0.000 A 
ATOM      3  C   UNL     1       6.586   0.864  -0.470  0.00  0.00    +0.000 A 
ATOM      4  C   UNL     1       7.326   0.823   0.709  0.00  0.00    +0.000 A 
ATOM      5  C   UNL     1       6.674   0.822   1.943  0.00  0.00    +0.000 A 
ATOM      6  C   UNL     1       5.273   0.864   2.012  0.00  0.00    +0.000 A 
ENDROOT
BRANCH   1   7
ATOM      7  C   UNL     1       3.040   0.972   0.847  0.00  0.00    +0.000 C 
ATOM      8  O   UNL     1       2.374   1.584   1.665  0.00  0.00    +0.000 OA
BRANCH   7  10
ATOM      9  C   UNL     1       1.121   0.222  -0.254  0.00  0.00    +0.000 C 
ATOM     10  O   UNL     1       2.547   0.236  -0.184  0.00  0.00    +0.000 OA
ENDBRANCH   7  10
ENDBRANCH   1   7
BRANCH   6  11
ATOM     11  C   UNL     1       4.669   0.834   3.311  0.00  0.00    +0.000 C 
ATOM     12  C   UNL     1       4.157   0.811   4.397  0.00  0.00    +0.000 C 
BRANCH  12  13
ATOM     13  C   UNL     1       3.521   0.787   5.677  0.00  0.00    +0.000 A 
ATOM     14  C   UNL     1       4.287   0.747   6.844  0.00  0.00    +0.000 A 
ATOM     15  C   UNL     1       3.659   0.723   8.091  0.00  0.00    +0.000 A 
ATOM     16  C   UNL     1       2.266   0.739   8.172  0.00  0.00    +0.000 A 
ATOM     17  C   UNL     1       1.500   0.781   7.007  0.00  0.00    +0.000 A 
ATOM     18  C   UNL     1       2.126   0.806   5.759  0.00  0.00    +0.000 A 
ENDBRANCH  12  13
ENDBRANCH   6  11
TORSDOF 4
