REMARK  Name = *****
REMARK  2 active torsions:
REMARK  status: ('A' for Active; 'I' for Inactive)
REMARK    1  A    between atoms: C_4  and  C_6
REMARK    2  A    between atoms: C_9  and  C_12
REMARK                            x       y       z     vdW  Elec       q    Type
REMARK                         _______ _______ _______ _____ _____    ______ ____
ROOT
ATOM      1  C   UNL     1      -1.405   1.774   1.711  0.00  0.00    +0.000 C 
ATOM      2  C   UNL     1      -2.837   1.343   1.920  0.00  0.00    +0.000 C 
ATOM      3  C   UNL     1      -3.141   0.328   2.745  0.00  0.00    +0.000 C 
ATOM      4  C   UNL     1      -2.054  -0.472   3.426  0.00  0.00    +0.000 C 
ATOM      5  O   UNL     1      -0.804  -0.231   2.756  0.00  0.00    +0.000 OA
ATOM      6  O   UNL     1      -0.591   1.222   2.766  0.00  0.00    +0.000 OA
ENDROOT
BRANCH   1  10
ATOM      7  C   UNL     1      -0.564   2.017  -1.995  0.00  0.00    +0.000 C 
ATOM      8  C   UNL     1       0.802   1.727  -1.373  0.00  0.00    +0.000 C 
ATOM      9  C   UNL     1       0.602   1.846   0.131  0.00  0.00    +0.000 C 
ATOM     10  C   UNL     1      -0.845   1.398   0.333  0.00  0.00    +0.000 C 
ATOM     11  C   UNL     1      -1.563   2.067  -0.840  0.00  0.00    +0.000 C 
ENDBRANCH   1  10
BRANCH   4  12
ATOM     12  C   UNL     1      -2.358  -1.978   3.404  0.00  0.00    +0.000 C 
ATOM     13  C   UNL     1      -1.289  -2.824   4.100  0.00  0.00    +0.000 C 
ATOM     14  C   UNL     1      -1.592  -4.246   3.642  0.00  0.00    +0.000 C 
ATOM     15  C   UNL     1      -2.266  -4.112   2.277  0.00  0.00    +0.000 C 
ATOM     16  C   UNL     1      -2.399  -2.615   2.012  0.00  0.00    +0.000 C 
ENDBRANCH   4  12
TORSDOF 2
