REMARK  Name = *****
REMARK  3 active torsions:
REMARK  status: ('A' for Active; 'I' for Inactive)
REMARK    1  A    between atoms: C_4  and  C_7
REMARK    2  A    between atoms: N_8  and  C_9
REMARK    3  A    between atoms: C_14  and  C_15
REMARK                            x       y       z     vdW  Elec       q    Type
REMARK                         _______ _______ _______ _____ _____    ______ ____
ROOT
ATOM      1  C   UNL     1      -5.094  -0.265  -0.308  0.00  0.00    +0.000 A 
ATOM      2  C   UNL     1      -5.783   0.605   0.547  0.00  0.00    +0.000 A 
ATOM      3  C   UNL     1      -7.127   0.909   0.328  0.00  0.00    +0.000 A 
ATOM      4  C   UNL     1      -7.800   0.334  -0.744  0.00  0.00    +0.000 A 
ATOM      5  C   UNL     1      -7.129  -0.549  -1.591  0.00  0.00    +0.000 A 
ATOM      6  C   UNL     1      -5.773  -0.862  -1.379  0.00  0.00    +0.000 A 
ENDROOT
BRANCH   6   7
ATOM      7  C   UNL     1      -5.060  -1.823  -2.291  0.00  0.00    +0.000 C 
ATOM      8  F   UNL     1      -4.608  -2.946  -1.665  0.00  0.00    +0.000 F 
ATOM      9  F   UNL     1      -5.860  -2.281  -3.303  0.00  0.00    +0.000 F 
ATOM     10  F   UNL     1      -3.984  -1.270  -2.921  0.00  0.00    +0.000 F 
ENDBRANCH   6   7
BRANCH   1  12
ATOM     11  C   UNL     1      -2.876   0.307  -0.446  0.00  0.00    +0.000 C 
ATOM     12  N   UNL     1      -3.750  -0.562  -0.042  0.00  0.00    +0.000 NA
BRANCH  11  16
ATOM     13  C   UNL     1       1.314  -0.203   0.147  0.00  0.00    +0.000 A 
ATOM     14  C   UNL     1       0.432  -1.193   0.580  0.00  0.00    +0.000 A 
ATOM     15  C   UNL     1      -0.942  -1.035   0.391  0.00  0.00    +0.000 A 
ATOM     16  C   UNL     1      -1.429   0.116  -0.233  0.00  0.00    +0.000 A 
ATOM     17  C   UNL     1      -0.546   1.109  -0.669  0.00  0.00    +0.000 A 
ATOM     18  C   UNL     1       0.827   0.947  -0.476  0.00  0.00    +0.000 A 
ENDBRANCH  11  16
ENDBRANCH   1  12
TORSDOF 3
