REMARK  Name = *****
REMARK  1 active torsions:
REMARK  status: ('A' for Active; 'I' for Inactive)
REMARK    1  A    between atoms: C_8  and  C_10
REMARK                            x       y       z     vdW  Elec       q    Type
REMARK                         _______ _______ _______ _____ _____    ______ ____
ROOT
ATOM      1  C   UNL     1      -2.615  -0.342   0.055  0.00  0.00    +0.000 A 
ATOM      2  C   UNL     1      -2.296   1.002  -0.076  0.00  0.00    +0.000 A 
ATOM      3  C   UNL     1      -0.963   1.413  -0.146  0.00  0.00    +0.000 A 
ATOM      4  C   UNL     1       0.054   0.440  -0.079  0.00  0.00    +0.000 A 
ATOM      5  C   UNL     1      -0.241  -0.916   0.059  0.00  0.00    +0.000 A 
ATOM      6  C   UNL     1      -1.601  -1.303   0.123  0.00  0.00    +0.000 A 
ATOM      7  C   UNL     1       0.957  -1.704   0.110  0.00  0.00    +0.000 A 
ATOM      8  C   UNL     1       2.116  -0.957   0.023  0.00  0.00    +0.000 A 
ATOM      9  S   UNL     1       1.751   0.706  -0.157  0.00  0.00    +0.000 S 
ENDROOT
BRANCH   8  10
ATOM     10  C   UNL     1       3.510  -1.424   0.020  0.00  0.00    +0.000 A 
ATOM     11  C   UNL     1       3.884  -2.538  -0.743  0.00  0.00    +0.000 A 
ATOM     12  C   UNL     1       5.198  -3.011  -0.763  0.00  0.00    +0.000 A 
ATOM     13  C   UNL     1       6.177  -2.373  -0.007  0.00  0.00    +0.000 A 
ATOM     14  C   UNL     1       5.831  -1.270   0.769  0.00  0.00    +0.000 A 
ATOM     15  C   UNL     1       4.512  -0.809   0.781  0.00  0.00    +0.000 A 
ATOM     16  F   UNL     1       4.230   0.237   1.574  0.00  0.00    +0.000 F 
ATOM     17  F   UNL     1       2.977  -3.187  -1.491  0.00  0.00    +0.000 F 
ENDBRANCH   8  10
TORSDOF 1
