REMARK  Name = *****
REMARK  6 active torsions:
REMARK  status: ('A' for Active; 'I' for Inactive)
REMARK    1  A    between atoms: C_1  and  C_2
REMARK    2  A    between atoms: C_4  and  C_18
REMARK    3  A    between atoms: C_5  and  C_9
REMARK    4  A    between atoms: C_6  and  C_8
REMARK    5  A    between atoms: C_9  and  S_11
REMARK    6  A    between atoms: S_11  and  C_12
REMARK                            x       y       z     vdW  Elec       q    Type
REMARK                         _______ _______ _______ _____ _____    ______ ____
ROOT
ATOM      1  C   UNL     1       2.318   1.639   0.626  0.00  0.00    +0.000 C 
ATOM      2  C   UNL     1       1.081   0.856   0.293  0.00  0.00    +0.000 A 
ATOM      3  C   UNL     1       1.168  -0.507  -0.014  0.00  0.00    +0.000 A 
ATOM      4  C   UNL     1       0.019  -1.262  -0.292  0.00  0.00    +0.000 A 
ATOM      5  C   UNL     1      -1.234  -0.616  -0.273  0.00  0.00    +0.000 A 
ATOM      6  C   UNL     1      -1.347   0.745   0.075  0.00  0.00    +0.000 A 
ATOM      7  C   UNL     1      -0.177   1.468   0.353  0.00  0.00    +0.000 A 
ATOM      8  C   UNL     1      -2.679   1.439   0.143  0.00  0.00    +0.000 C 
ATOM      9  C   UNL     1       0.160  -2.722  -0.624  0.00  0.00    +0.000 C 
ENDROOT
BRANCH   5  10
ATOM     10  C   UNL     1      -2.456  -1.384  -0.591  0.00  0.00    +0.000 C 
ATOM     11  O   UNL     1      -3.137  -1.879   0.297  0.00  0.00    +0.000 OA
BRANCH  10  12
ATOM     12  S   UNL     1      -2.853  -1.455  -2.303  0.00  0.00    +0.000 S 
BRANCH  12  13
ATOM     13  C   UNL     1      -3.630  -3.052  -2.431  0.00  0.00    +0.000 A 
ATOM     14  C   UNL     1      -4.873  -3.306  -1.843  0.00  0.00    +0.000 A 
ATOM     15  C   UNL     1      -5.478  -4.557  -1.980  0.00  0.00    +0.000 A 
ATOM     16  C   UNL     1      -4.847  -5.560  -2.714  0.00  0.00    +0.000 A 
ATOM     17  C   UNL     1      -3.613  -5.312  -3.313  0.00  0.00    +0.000 A 
ATOM     18  C   UNL     1      -3.008  -4.061  -3.175  0.00  0.00    +0.000 A 
ENDBRANCH  12  13
ENDBRANCH  10  12
ENDBRANCH   5  10
TORSDOF 3
