REMARK  Name = *****
REMARK  3 active torsions:
REMARK  status: ('A' for Active; 'I' for Inactive)
REMARK    1  A    between atoms: C_4  and  C_7
REMARK    2  A    between atoms: C_7  and  S_8
REMARK    3  A    between atoms: S_8  and  C_9
REMARK                            x       y       z     vdW  Elec       q    Type
REMARK                         _______ _______ _______ _____ _____    ______ ____
ROOT
ATOM      1  C   UNL     1      -2.932   0.283  -0.168  0.00  0.00    +0.000 C 
ENDROOT
BRANCH   1   5
ATOM      2  C   UNL     1       1.344  -0.182   0.160  0.00  0.00    +0.000 A 
ATOM      3  C   UNL     1       0.744  -0.115  -1.096  0.00  0.00    +0.000 A 
ATOM      4  C   UNL     1      -0.639   0.036  -1.203  0.00  0.00    +0.000 A 
ATOM      5  C   UNL     1      -1.437   0.128  -0.053  0.00  0.00    +0.000 A 
ATOM      6  C   UNL     1      -0.822   0.050   1.206  0.00  0.00    +0.000 A 
ATOM      7  C   UNL     1       0.561  -0.102   1.311  0.00  0.00    +0.000 A 
ENDBRANCH   1   5
BRANCH   1   8
ATOM      8  S   UNL     1      -3.774  -1.334  -0.145  0.00  0.00    +0.000 S 
BRANCH   8   9
ATOM      9  C   UNL     1      -5.437  -0.816  -0.527  0.00  0.00    +0.000 A 
ATOM     10  C   UNL     1      -6.078  -1.360  -1.645  0.00  0.00    +0.000 A 
ATOM     11  C   UNL     1      -7.383  -0.980  -1.966  0.00  0.00    +0.000 A 
ATOM     12  C   UNL     1      -8.058  -0.060  -1.166  0.00  0.00    +0.000 A 
ATOM     13  C   UNL     1      -7.431   0.475  -0.041  0.00  0.00    +0.000 A 
ATOM     14  C   UNL     1      -6.126   0.095   0.280  0.00  0.00    +0.000 A 
ENDBRANCH   8   9
ENDBRANCH   1   8
TORSDOF 3
