REMARK  Name = *****
REMARK  5 active torsions:
REMARK  status: ('A' for Active; 'I' for Inactive)
REMARK    1  A    between atoms: C_1  and  C_2
REMARK    2  A    between atoms: C_3  and  C_9
REMARK    3  A    between atoms: C_4  and  C_8
REMARK    4  A    between atoms: C_9  and  C_10
REMARK    5  A    between atoms: C_10  and  C_12
REMARK                            x       y       z     vdW  Elec       q    Type
REMARK                         _______ _______ _______ _____ _____    ______ ____
ROOT
ATOM      1  C   UNL     1       0.301   2.669   0.398  0.00  0.00    +0.000 C 
ENDROOT
BRANCH   1   4
ATOM      2  C   UNL     1       2.638   0.890   0.994  0.00  0.00    +0.000 C 
ATOM      3  C   UNL     1       1.403   0.371   0.304  0.00  0.00    +0.000 A 
ATOM      4  C   UNL     1       0.272   1.190   0.041  0.00  0.00    +0.000 A 
ATOM      5  C   UNL     1      -0.895   0.585  -0.494  0.00  0.00    +0.000 A 
ATOM      6  C   UNL     1      -0.869  -0.768  -0.869  0.00  0.00    +0.000 A 
ATOM      7  C   UNL     1       0.267  -1.544  -0.671  0.00  0.00    +0.000 A 
ATOM      8  C   UNL     1       1.389  -0.982  -0.075  0.00  0.00    +0.000 A 
ATOM      9  C   UNL     1      -2.187   1.333  -0.703  0.00  0.00    +0.000 C 
ENDBRANCH   1   4
BRANCH   1  10
ATOM     10  C   UNL     1      -0.183   3.633  -0.672  0.00  0.00    +0.000 C 
ATOM     11  O   UNL     1      -1.078   4.445  -0.424  0.00  0.00    +0.000 OA
BRANCH  10  12
ATOM     12  C   UNL     1       0.436   3.648  -2.033  0.00  0.00    +0.000 A 
ATOM     13  C   UNL     1       1.676   3.064  -2.308  0.00  0.00    +0.000 A 
ATOM     14  C   UNL     1       2.205   3.111  -3.601  0.00  0.00    +0.000 A 
ATOM     15  C   UNL     1       1.503   3.747  -4.624  0.00  0.00    +0.000 A 
ATOM     16  C   UNL     1       0.273   4.342  -4.357  0.00  0.00    +0.000 A 
ATOM     17  C   UNL     1      -0.258   4.295  -3.066  0.00  0.00    +0.000 A 
ENDBRANCH  10  12
ENDBRANCH   1  10
TORSDOF 3
