REMARK  Name = *****
REMARK  2 active torsions:
REMARK  status: ('A' for Active; 'I' for Inactive)
REMARK    1  A    between atoms: C_3  and  C_8
REMARK    2  A    between atoms: N_9  and  C_10
REMARK                            x       y       z     vdW  Elec       q    Type
REMARK                         _______ _______ _______ _____ _____    ______ ____
ROOT
ATOM      1  C   UNL     1      -2.020   2.355  -0.026  0.00  0.00    +0.000 C 
ATOM      2  N   UNL     1      -3.298   2.438   0.187  0.00  0.00    +0.000 NA
ATOM      3 CL   UNL     1      -1.204   3.889  -0.048  0.00  0.00    +0.000 Cl
ENDROOT
BRANCH   1   6
ATOM      4  C   UNL     1      -0.794  -0.924  -1.468  0.00  0.00    +0.000 A 
ATOM      5  C   UNL     1      -1.557   0.228  -1.271  0.00  0.00    +0.000 A 
ATOM      6  C   UNL     1      -1.226   1.118  -0.241  0.00  0.00    +0.000 A 
ATOM      7  C   UNL     1      -0.120   0.871   0.575  0.00  0.00    +0.000 A 
ATOM      8  C   UNL     1       0.630  -0.280   0.365  0.00  0.00    +0.000 A 
ATOM      9  C   UNL     1       0.302  -1.179  -0.645  0.00  0.00    +0.000 A 
ATOM     10  F   UNL     1       1.686  -0.528   1.149  0.00  0.00    +0.000 F 
ENDBRANCH   1   6
BRANCH   2  11
ATOM     11  C   UNL     1      -4.101   1.299   0.304  0.00  0.00    +0.000 A 
ATOM     12  C   UNL     1      -4.013   0.453   1.417  0.00  0.00    +0.000 A 
ATOM     13  C   UNL     1      -4.844  -0.664   1.521  0.00  0.00    +0.000 A 
ATOM     14  C   UNL     1      -5.776  -0.919   0.522  0.00  0.00    +0.000 A 
ATOM     15  C   UNL     1      -5.899  -0.074  -0.574  0.00  0.00    +0.000 A 
ATOM     16  C   UNL     1      -5.065   1.041  -0.677  0.00  0.00    +0.000 A 
ATOM     17  F   UNL     1      -6.575  -1.989   0.622  0.00  0.00    +0.000 F 
ENDBRANCH   2  11
TORSDOF 2
