REMARK  Name = *****
REMARK  4 active torsions:
REMARK  status: ('A' for Active; 'I' for Inactive)
REMARK    1  A    between atoms: C_1  and  C_2
REMARK    2  A    between atoms: C_3  and  C_4
REMARK    3  A    between atoms: C_9  and  C_10
REMARK    4  A    between atoms: C_11  and  C_12
REMARK                            x       y       z     vdW  Elec       q    Type
REMARK                         _______ _______ _______ _____ _____    ______ ____
ROOT
ATOM      1  C   UNL     1       0.084   0.062   0.087  0.00  0.00    +0.000 A 
ATOM      2  C   UNL     1      -0.632   1.265   0.032  0.00  0.00    +0.000 A 
ATOM      3  C   UNL     1      -2.022   1.258  -0.090  0.00  0.00    +0.000 A 
ATOM      4  C   UNL     1      -2.707   0.048  -0.157  0.00  0.00    +0.000 A 
ATOM      5  C   UNL     1      -2.002  -1.157  -0.103  0.00  0.00    +0.000 A 
ATOM      6  C   UNL     1      -0.604  -1.165   0.014  0.00  0.00    +0.000 A 
ENDROOT
BRANCH   1   9
ATOM      7  C   UNL     1       4.158   0.225   0.499  0.00  0.00    +0.000 C 
ATOM      8  C   UNL     1       2.704   0.179   0.353  0.00  0.00    +0.000 C 
ATOM      9  C   UNL     1       1.510   0.128   0.233  0.00  0.00    +0.000 C 
ENDBRANCH   1   9
BRANCH   6  10
ATOM     10  C   UNL     1       0.063  -2.474   0.069  0.00  0.00    +0.000 C 
ATOM     11  C   UNL     1       0.871  -2.905  -0.912  0.00  0.00    +0.000 C 
BRANCH  11  12
ATOM     12  C   UNL     1       1.566  -4.198  -0.888  0.00  0.00    +0.000 A 
ATOM     13  C   UNL     1       0.945  -5.372  -0.442  0.00  0.00    +0.000 A 
ATOM     14  C   UNL     1       1.630  -6.589  -0.462  0.00  0.00    +0.000 A 
ATOM     15  C   UNL     1       2.939  -6.646  -0.936  0.00  0.00    +0.000 A 
ATOM     16  C   UNL     1       3.562  -5.488  -1.396  0.00  0.00    +0.000 A 
ATOM     17  C   UNL     1       2.876  -4.271  -1.377  0.00  0.00    +0.000 A 
ENDBRANCH  11  12
ENDBRANCH   6  10
TORSDOF 3
