REMARK  Name = *****
REMARK  3 active torsions:
REMARK  status: ('A' for Active; 'I' for Inactive)
REMARK    1  A    between atoms: C_4  and  C_7
REMARK    2  A    between atoms: C_7  and  C_8
REMARK    3  A    between atoms: C_8  and  C_10
REMARK                            x       y       z     vdW  Elec       q    Type
REMARK                         _______ _______ _______ _____ _____    ______ ____
ROOT
ATOM      1  C   UNL     1      -3.774  -0.727  -0.286  0.00  0.00    +0.000 C 
ATOM      2  O   UNL     1      -4.171  -1.212  -1.346  0.00  0.00    +0.000 OA
ENDROOT
BRANCH   1   3
ATOM      3  C   UNL     1      -4.226  -1.334   1.005  0.00  0.00    +0.000 A 
ATOM      4  C   UNL     1      -3.690  -0.967   2.244  0.00  0.00    +0.000 A 
ATOM      5  C   UNL     1      -4.162  -1.574   3.410  0.00  0.00    +0.000 A 
ATOM      6  C   UNL     1      -5.162  -2.543   3.359  0.00  0.00    +0.000 A 
ATOM      7  C   UNL     1      -5.696  -2.915   2.128  0.00  0.00    +0.000 A 
ATOM      8  C   UNL     1      -5.229  -2.315   0.956  0.00  0.00    +0.000 A 
ATOM      9 BR   UNL     1      -3.431  -1.074   5.082  0.00  0.00    +0.000 Br
ENDBRANCH   1   3
BRANCH   1  10
ATOM     10  C   UNL     1      -2.851   0.478  -0.278  0.00  0.00    +0.000 C 
BRANCH  10  14
ATOM     11  C   UNL     1       1.334  -0.430   0.261  0.00  0.00    +0.000 A 
ATOM     12  C   UNL     1       0.571  -1.178  -0.632  0.00  0.00    +0.000 A 
ATOM     13  C   UNL     1      -0.783  -0.891  -0.807  0.00  0.00    +0.000 A 
ATOM     14  C   UNL     1      -1.393   0.142  -0.080  0.00  0.00    +0.000 A 
ATOM     15  C   UNL     1      -0.609   0.902   0.800  0.00  0.00    +0.000 A 
ATOM     16  C   UNL     1       0.746   0.612   0.974  0.00  0.00    +0.000 A 
ENDBRANCH  10  14
ENDBRANCH   1  10
TORSDOF 3
