REMARK  Name = *****
REMARK  4 active torsions:
REMARK  status: ('A' for Active; 'I' for Inactive)
REMARK    1  A    between atoms: C_1  and  C_2
REMARK    2  A    between atoms: C_2  and  O_7
REMARK    3  A    between atoms: O_7  and  C_8
REMARK    4  A    between atoms: C_8  and  C_10
REMARK                            x       y       z     vdW  Elec       q    Type
REMARK                         _______ _______ _______ _____ _____    ______ ____
ROOT
ATOM      1  C   UNL     1       6.701  -4.952   0.702  0.00  0.00    +0.000 C 
ATOM      2  O   UNL     1       7.406  -3.975   0.500  0.00  0.00    +0.000 OA
ENDROOT
BRANCH   1   3
ATOM      3  C   UNL     1       5.201  -4.911   0.902  0.00  0.00    +0.000 C 
ATOM      4  C   UNL     1       4.440  -5.829  -0.105  0.00  0.00    +0.000 C 
ATOM      5  C   UNL     1       3.491  -4.843  -0.820  0.00  0.00    +0.000 C 
ATOM      6  C   UNL     1       4.382  -3.605  -0.930  0.00  0.00    +0.000 C 
ATOM      7  C   UNL     1       4.612  -3.513   0.584  0.00  0.00    +0.000 C 
ATOM      8  C   UNL     1       3.166  -3.523   1.035  0.00  0.00    +0.000 C 
ATOM      9  C   UNL     1       2.497  -4.329   0.196  0.00  0.00    +0.000 C 
ENDBRANCH   1   3
BRANCH   1  10
ATOM     10  O   UNL     1       7.145  -6.234   0.831  0.00  0.00    +0.000 OA
BRANCH  10  12
ATOM     11  C   UNL     1       8.997  -6.300  -0.768  0.00  0.00    +0.000 C 
ATOM     12  C   UNL     1       8.552  -6.513   0.684  0.00  0.00    +0.000 C 
ATOM     13  C   UNL     1       9.423  -5.780   1.710  0.00  0.00    +0.000 C 
ATOM     14  C   UNL     1      10.658  -6.658   1.888  0.00  0.00    +0.000 C 
ATOM     15  C   UNL     1      10.231  -8.073   1.505  0.00  0.00    +0.000 C 
ATOM     16  C   UNL     1       8.763  -7.975   1.107  0.00  0.00    +0.000 C 
ENDBRANCH  10  12
ENDBRANCH   1  10
TORSDOF 3
