REMARK  Name = *****
REMARK  2 active torsions:
REMARK  status: ('A' for Active; 'I' for Inactive)
REMARK    1  A    between atoms: C_5  and  C_6
REMARK    2  A    between atoms: C_6  and  C_7
REMARK                            x       y       z     vdW  Elec       q    Type
REMARK                         _______ _______ _______ _____ _____    ______ ____
ROOT
ATOM      1  C   UNL     1      -2.381  -2.463   0.156  0.00  0.00    +0.000 A 
ATOM      2  C   UNL     1      -3.121  -3.134  -0.830  0.00  0.00    +0.000 A 
ATOM      3  C   UNL     1      -3.175  -4.538  -0.872  0.00  0.00    +0.000 A 
ATOM      4  C   UNL     1      -3.914  -5.213  -1.857  0.00  0.00    +0.000 A 
ATOM      5  C   UNL     1      -3.958  -6.608  -1.885  0.00  0.00    +0.000 A 
ATOM      6  C   UNL     1      -3.265  -7.345  -0.929  0.00  0.00    +0.000 A 
ATOM      7  C   UNL     1      -2.527  -6.689   0.057  0.00  0.00    +0.000 A 
ATOM      8  C   UNL     1      -2.473  -5.286   0.099  0.00  0.00    +0.000 A 
ATOM      9  C   UNL     1      -1.737  -4.611   1.085  0.00  0.00    +0.000 A 
ATOM     10  C   UNL     1      -1.692  -3.215   1.114  0.00  0.00    +0.000 A 
ENDROOT
BRANCH   1  11
ATOM     11  C   UNL     1      -2.345  -0.953   0.190  0.00  0.00    +0.000 C 
BRANCH  11  16
ATOM     12  C   UNL     1      -4.178  -0.591   2.038  0.00  0.00    +0.000 C 
ATOM     13  C   UNL     1      -5.420   0.254   2.024  0.00  0.00    +0.000 C 
ATOM     14  C   UNL     1      -5.540   0.867   0.837  0.00  0.00    +0.000 C 
ATOM     15  C   UNL     1      -4.428   0.502  -0.004  0.00  0.00    +0.000 C 
ATOM     16  C   UNL     1      -3.622  -0.341   0.661  0.00  0.00    +0.000 C 
ENDBRANCH  11  16
ENDBRANCH   1  11
TORSDOF 2
