REMARK  Name = *****
REMARK  6 active torsions:
REMARK  status: ('A' for Active; 'I' for Inactive)
REMARK    1  A    between atoms: C_1  and  C_2
REMARK    2  A    between atoms: C_5  and  S_8
REMARK    3  A    between atoms: S_8  and  C_9
REMARK    4  A    between atoms: C_9  and  C_10
REMARK    5  A    between atoms: C_12  and  O_17
REMARK    6  A    between atoms: O_17  and  C_18
REMARK                            x       y       z     vdW  Elec       q    Type
REMARK                         _______ _______ _______ _____ _____    ______ ____
ROOT
ATOM      1  C   UNL     1      -4.083   2.120   0.304  0.00  0.00    +0.000 C 
ENDROOT
BRANCH   1   2
ATOM      2  C   UNL     1      -5.606   1.982   0.098  0.00  0.00    +0.000 C 
ATOM      3  C   UNL     1      -5.945   0.846  -0.892  0.00  0.00    +0.000 C 
ATOM      4  C   UNL     1      -5.660   1.186  -2.361  0.00  0.00    +0.000 C 
ATOM      5  C   UNL     1      -6.346   2.496  -2.757  0.00  0.00    +0.000 C 
ATOM      6  C   UNL     1      -5.976   3.640  -1.814  0.00  0.00    +0.000 C 
ATOM      7  C   UNL     1      -6.286   3.288  -0.357  0.00  0.00    +0.000 C 
ATOM      8 CL   UNL     1      -6.888   5.111  -2.278  0.00  0.00    +0.000 Cl
BRANCH   4   9
ATOM      9  O   UNL     1      -4.258   1.341  -2.598  0.00  0.00    +0.000 OA
ATOM     10  C   UNL     1      -3.580   0.108  -2.807  0.00  0.00    +0.000 C 
ENDBRANCH   4   9
ENDBRANCH   1   2
BRANCH   1  11
ATOM     11  S   UNL     1      -3.692   3.122   1.786  0.00  0.00    +0.000 S 
BRANCH  11  16
ATOM     12  C   UNL     1       2.299   2.159   2.422  0.00  0.00    +0.000 C 
ATOM     13  C   UNL     1       0.824   2.366   2.246  0.00  0.00    +0.000 A 
ATOM     14  C   UNL     1       0.306   2.743   1.002  0.00  0.00    +0.000 A 
ATOM     15  C   UNL     1      -1.065   2.972   0.844  0.00  0.00    +0.000 A 
ATOM     16  C   UNL     1      -1.937   2.828   1.927  0.00  0.00    +0.000 A 
ATOM     17  C   UNL     1      -1.414   2.482   3.176  0.00  0.00    +0.000 A 
ATOM     18  C   UNL     1      -0.044   2.253   3.336  0.00  0.00    +0.000 A 
ENDBRANCH  11  16
ENDBRANCH   1  11
TORSDOF 4
