REMARK  Name = *****
REMARK  3 active torsions:
REMARK  status: ('A' for Active; 'I' for Inactive)
REMARK    1  A    between atoms: C_4  and  C_7
REMARK    2  A    between atoms: C_7  and  C_8
REMARK    3  A    between atoms: C_8  and  C_9
REMARK                            x       y       z     vdW  Elec       q    Type
REMARK                         _______ _______ _______ _____ _____    ______ ____
ROOT
ATOM      1  C   UNL     1      -2.930   0.441  -0.229  0.00  0.00    +0.000 C 
ATOM      2  F   UNL     1      -3.701  -0.688  -0.316  0.00  0.00    +0.000 F 
ENDROOT
BRANCH   1   6
ATOM      3  C   UNL     1       1.021  -0.427   1.287  0.00  0.00    +0.000 A 
ATOM      4  C   UNL     1       0.527   0.875   1.337  0.00  0.00    +0.000 A 
ATOM      5  C   UNL     1      -0.752   1.157   0.852  0.00  0.00    +0.000 A 
ATOM      6  C   UNL     1      -1.549   0.136   0.311  0.00  0.00    +0.000 A 
ATOM      7  C   UNL     1      -1.040  -1.170   0.268  0.00  0.00    +0.000 A 
ATOM      8  C   UNL     1       0.238  -1.449   0.754  0.00  0.00    +0.000 A 
ENDBRANCH   1   6
BRANCH   1   9
ATOM      9  C   UNL     1      -2.853   1.071  -1.627  0.00  0.00    +0.000 C 
BRANCH   9  10
ATOM     10  C   UNL     1      -4.176   1.657  -2.068  0.00  0.00    +0.000 A 
ATOM     11  C   UNL     1      -4.411   3.038  -1.971  0.00  0.00    +0.000 A 
ATOM     12  C   UNL     1      -5.638   3.572  -2.367  0.00  0.00    +0.000 A 
ATOM     13  C   UNL     1      -6.628   2.729  -2.856  0.00  0.00    +0.000 A 
ATOM     14  C   UNL     1      -6.417   1.359  -2.955  0.00  0.00    +0.000 A 
ATOM     15  C   UNL     1      -5.191   0.823  -2.560  0.00  0.00    +0.000 A 
ATOM     16  F   UNL     1      -7.805   3.244  -3.235  0.00  0.00    +0.000 F 
ENDBRANCH   9  10
ENDBRANCH   1   9
TORSDOF 3
