REMARK  Name = *****
REMARK  2 active torsions:
REMARK  status: ('A' for Active; 'I' for Inactive)
REMARK    1  A    between atoms: C_6  and  C_7
REMARK    2  A    between atoms: C_8  and  C_9
REMARK                            x       y       z     vdW  Elec       q    Type
REMARK                         _______ _______ _______ _____ _____    ______ ____
ROOT
ATOM      1  C   UNL     1      -3.417   0.055  -0.052  0.00  0.00    +0.000 C 
ATOM      2  C   UNL     1      -4.181   1.153   0.063  0.00  0.00    +0.000 C 
ENDROOT
BRANCH   2   3
ATOM      3  C   UNL     1      -5.650   1.137   0.026  0.00  0.00    +0.000 A 
ATOM      4  C   UNL     1      -6.405   0.115   0.618  0.00  0.00    +0.000 A 
ATOM      5  C   UNL     1      -7.797   0.163   0.581  0.00  0.00    +0.000 A 
ATOM      6  C   UNL     1      -8.466   1.216  -0.025  0.00  0.00    +0.000 A 
ATOM      7  C   UNL     1      -7.718   2.234  -0.596  0.00  0.00    +0.000 A 
ATOM      8  C   UNL     1      -6.325   2.209  -0.571  0.00  0.00    +0.000 A 
ATOM      9  F   UNL     1      -8.346   3.264  -1.179  0.00  0.00    +0.000 F 
ATOM     10  F   UNL     1      -8.502  -0.825   1.149  0.00  0.00    +0.000 F 
ENDBRANCH   2   3
BRANCH   1  16
ATOM     11  C   UNL     1      -1.196   1.081  -0.639  0.00  0.00    +0.000 A 
ATOM     12  C   UNL     1       0.200   1.048  -0.605  0.00  0.00    +0.000 A 
ATOM     13  C   UNL     1       0.846   0.004   0.046  0.00  0.00    +0.000 A 
ATOM     14  C   UNL     1       0.122  -1.011   0.659  0.00  0.00    +0.000 A 
ATOM     15  C   UNL     1      -1.274  -0.978   0.624  0.00  0.00    +0.000 A 
ATOM     16  C   UNL     1      -1.947   0.075  -0.013  0.00  0.00    +0.000 A 
ATOM     17  F   UNL     1       2.184  -0.028   0.077  0.00  0.00    +0.000 F 
ENDBRANCH   1  16
TORSDOF 2
