REMARK  Name = *****
REMARK  4 active torsions:
REMARK  status: ('A' for Active; 'I' for Inactive)
REMARK    1  A    between atoms: C_1  and  C_2
REMARK    2  A    between atoms: C_4  and  C_8
REMARK    3  A    between atoms: C_9  and  C_10
REMARK    4  A    between atoms: C_15  and  C_16
REMARK                            x       y       z     vdW  Elec       q    Type
REMARK                         _______ _______ _______ _____ _____    ______ ____
ROOT
ATOM      1  C   UNL     1       5.230   2.670  -0.506  0.00  0.00    +0.000 C 
ATOM      2  C   UNL     1       5.803   3.709  -0.692  0.00  0.00    +0.000 C 
ENDROOT
BRANCH   1   6
ATOM      3  C   UNL     1       0.988   0.133   0.049  0.00  0.00    +0.000 C 
ATOM      4  C   UNL     1       2.484   0.177  -0.059  0.00  0.00    +0.000 A 
ATOM      5  C   UNL     1       3.159   1.396  -0.206  0.00  0.00    +0.000 A 
ATOM      6  C   UNL     1       4.551   1.423  -0.330  0.00  0.00    +0.000 A 
ATOM      7  C   UNL     1       5.277   0.231  -0.308  0.00  0.00    +0.000 A 
ATOM      8  C   UNL     1       4.611  -0.987  -0.168  0.00  0.00    +0.000 A 
ATOM      9  C   UNL     1       3.221  -1.014  -0.048  0.00  0.00    +0.000 A 
ENDBRANCH   1   6
BRANCH   2  10
ATOM     10  C   UNL     1       6.485   4.942  -0.955  0.00  0.00    +0.000 A 
ATOM     11  C   UNL     1       5.894   6.134  -0.516  0.00  0.00    +0.000 A 
ATOM     12  C   UNL     1       6.505   7.364  -0.769  0.00  0.00    +0.000 A 
ATOM     13  C   UNL     1       7.712   7.414  -1.463  0.00  0.00    +0.000 A 
ATOM     14  C   UNL     1       8.312   6.234  -1.901  0.00  0.00    +0.000 A 
ATOM     15  C   UNL     1       7.704   4.996  -1.648  0.00  0.00    +0.000 A 
BRANCH  15  16
ATOM     16  C   UNL     1       8.378   3.768  -2.130  0.00  0.00    +0.000 C 
ATOM     17  O   UNL     1       9.441   3.809  -2.740  0.00  0.00    +0.000 OA
ENDBRANCH  15  16
ENDBRANCH   2  10
TORSDOF 3
