REMARK  Name = *****
REMARK  7 active torsions:
REMARK  status: ('A' for Active; 'I' for Inactive)
REMARK    1  A    between atoms: C_1  and  C_2
REMARK    2  A    between atoms: C_5  and  N_8
REMARK    3  A    between atoms: N_8  and  C_9
REMARK    4  A    between atoms: N_8  and  C_10
REMARK    5  A    between atoms: C_10  and  N_11
REMARK    6  A    between atoms: C_10  and  C_18
REMARK    7  A    between atoms: N_11  and  C_12
REMARK                            x       y       z     vdW  Elec       q    Type
REMARK                         _______ _______ _______ _____ _____    ______ ____
ROOT
ATOM      1  C   UNL     1      -3.715   1.232  -0.039  0.00  0.00    +0.000 C 
ATOM      2  C   UNL     1      -5.122   1.338   0.535  0.00  0.00    +0.000 C 
ENDROOT
BRANCH   1   3
ATOM      3  N   UNL     1      -3.145  -0.044  -0.138  0.00  0.00    +0.000 N 
ATOM      4  C   UNL     1      -3.996  -1.233  -0.219  0.00  0.00    +0.000 C 
BRANCH   3   9
ATOM      5  C   UNL     1       1.843  -1.217   2.497  0.00  0.00    +0.000 C 
ATOM      6  C   UNL     1       0.529  -0.935   1.833  0.00  0.00    +0.000 A 
ATOM      7  C   UNL     1       0.179  -1.585   0.647  0.00  0.00    +0.000 A 
ATOM      8  C   UNL     1      -1.029  -1.291   0.006  0.00  0.00    +0.000 A 
ATOM      9  C   UNL     1      -1.915  -0.335   0.526  0.00  0.00    +0.000 A 
ATOM     10  C   UNL     1      -1.539   0.330   1.704  0.00  0.00    +0.000 A 
ATOM     11  C   UNL     1      -0.333   0.037   2.349  0.00  0.00    +0.000 A 
ENDBRANCH   3   9
ENDBRANCH   1   3
BRANCH   1  12
ATOM     12  N   UNL     1      -3.211   2.375  -0.409  0.00  0.00    +0.000 N 
ATOM     13  H   UNL     1      -3.709   3.207  -0.237  0.00  0.00    +0.000 HD
BRANCH  12  14
ATOM     14  C   UNL     1      -1.966   2.428  -1.051  0.00  0.00    +0.000 A 
ATOM     15  C   UNL     1      -1.784   1.913  -2.339  0.00  0.00    +0.000 A 
ATOM     16  C   UNL     1      -0.543   2.006  -2.973  0.00  0.00    +0.000 A 
ATOM     17  C   UNL     1       0.523   2.632  -2.329  0.00  0.00    +0.000 A 
ATOM     18  C   UNL     1       0.345   3.172  -1.056  0.00  0.00    +0.000 A 
ATOM     19  C   UNL     1      -0.898   3.078  -0.426  0.00  0.00    +0.000 A 
ENDBRANCH  12  14
ENDBRANCH   1  12
TORSDOF 4
