REMARK  Name = *****
REMARK  3 active torsions:
REMARK  status: ('A' for Active; 'I' for Inactive)
REMARK    1  A    between atoms: C_4  and  C_7
REMARK    2  A    between atoms: C_8  and  C_9
REMARK    3  A    between atoms: C_11  and  C_15
REMARK                            x       y       z     vdW  Elec       q    Type
REMARK                         _______ _______ _______ _____ _____    ______ ____
ROOT
ATOM      1  C   UNL     1      -2.810   0.454  -0.306  0.00  0.00    +0.000 C 
ATOM      2  C   UNL     1      -3.730  -0.513  -0.458  0.00  0.00    +0.000 C 
ENDROOT
BRANCH   1   6
ATOM      3  C   UNL     1       1.383  -0.192   0.248  0.00  0.00    +0.000 A 
ATOM      4  C   UNL     1       0.671  -1.015  -0.623  0.00  0.00    +0.000 A 
ATOM      5  C   UNL     1      -0.700  -0.819  -0.808  0.00  0.00    +0.000 A 
ATOM      6  C   UNL     1      -1.376   0.194  -0.116  0.00  0.00    +0.000 A 
ATOM      7  C   UNL     1      -0.646   1.025   0.744  0.00  0.00    +0.000 A 
ATOM      8  C   UNL     1       0.725   0.829   0.930  0.00  0.00    +0.000 A 
ENDBRANCH   1   6
BRANCH   2   9
ATOM      9  C   UNL     1      -5.167  -0.258  -0.630  0.00  0.00    +0.000 A 
ATOM     10  C   UNL     1      -5.650   0.806  -1.403  0.00  0.00    +0.000 A 
ATOM     11  C   UNL     1      -7.027   0.999  -1.568  0.00  0.00    +0.000 A 
ATOM     12  C   UNL     1      -7.931   0.118  -0.967  0.00  0.00    +0.000 A 
ATOM     13  C   UNL     1      -7.459  -0.954  -0.210  0.00  0.00    +0.000 A 
ATOM     14  C   UNL     1      -6.085  -1.142  -0.048  0.00  0.00    +0.000 A 
BRANCH  11  15
ATOM     15  C   UNL     1      -7.509   2.095  -2.356  0.00  0.00    +0.000 C 
ATOM     16  N   UNL     1      -7.901   2.983  -2.992  0.00  0.00    +0.000 NA
ENDBRANCH  11  15
ENDBRANCH   2   9
TORSDOF 3
