REMARK  Name = *****
REMARK  1 active torsions:
REMARK  status: ('A' for Active; 'I' for Inactive)
REMARK    1  A    between atoms: C_5  and  C_6
REMARK                            x       y       z     vdW  Elec       q    Type
REMARK                         _______ _______ _______ _____ _____    ______ ____
ROOT
ATOM      1  C   UNL     1       2.540  -0.931  -0.029  0.00  0.00    +0.000 C 
ATOM      2  C   UNL     1       1.143  -1.550  -0.042  0.00  0.00    +0.000 C 
ATOM      3  C   UNL     1       0.042  -0.604  -0.573  0.00  0.00    +0.000 C 
ATOM      4  C   UNL     1      -1.365  -1.245  -0.578  0.00  0.00    +0.000 C 
ATOM      5  C   UNL     1      -1.611  -2.558  -0.384  0.00  0.00    +0.000 C 
ATOM      6  C   UNL     1      -2.465  -0.226  -0.803  0.00  0.00    +0.000 C 
ATOM      7  C   UNL     1      -2.452   0.816   0.315  0.00  0.00    +0.000 C 
ATOM      8  C   UNL     1      -1.078   1.364   0.565  0.00  0.00    +0.000 C 
ATOM      9  C   UNL     1       0.047   0.748   0.153  0.00  0.00    +0.000 C 
ATOM     10  S   UNL     1       1.552   1.609   0.352  0.00  0.00    +0.000 S 
ATOM     11  C   UNL     1       2.630   0.266   0.902  0.00  0.00    +0.000 C 
ENDROOT
BRANCH   5  12
ATOM     12  C   UNL     1      -2.942  -3.169  -0.361  0.00  0.00    +0.000 A 
ATOM     13  C   UNL     1      -3.506  -3.673  -1.538  0.00  0.00    +0.000 A 
ATOM     14  C   UNL     1      -4.777  -4.250  -1.514  0.00  0.00    +0.000 A 
ATOM     15  C   UNL     1      -5.487  -4.325  -0.316  0.00  0.00    +0.000 A 
ATOM     16  C   UNL     1      -4.929  -3.823   0.859  0.00  0.00    +0.000 A 
ATOM     17  C   UNL     1      -3.659  -3.246   0.838  0.00  0.00    +0.000 A 
ENDBRANCH   5  12
TORSDOF 1
