REMARK  Name = *****
REMARK  5 active torsions:
REMARK  status: ('A' for Active; 'I' for Inactive)
REMARK    1  A    between atoms: C_1  and  O_2
REMARK    2  A    between atoms: O_2  and  C_3
REMARK    3  A    between atoms: C_8  and  C_9
REMARK    4  A    between atoms: C_10  and  C_11
REMARK    5  A    between atoms: C_11  and  C_12
REMARK                            x       y       z     vdW  Elec       q    Type
REMARK                         _______ _______ _______ _____ _____    ______ ____
ROOT
ATOM      1  C   UNL     1       4.782   1.557   0.483  0.00  0.00    +0.000 C 
ATOM      2  C   UNL     1       4.041   2.452  -0.190  0.00  0.00    +0.000 C 
ENDROOT
BRANCH   1   8
ATOM      3  C   UNL     1       3.323  -0.377   1.191  0.00  0.00    +0.000 A 
ATOM      4  C   UNL     1       2.811  -1.173   2.223  0.00  0.00    +0.000 A 
ATOM      5  C   UNL     1       3.161  -0.921   3.553  0.00  0.00    +0.000 A 
ATOM      6  C   UNL     1       4.027   0.122   3.864  0.00  0.00    +0.000 A 
ATOM      7  C   UNL     1       4.548   0.919   2.845  0.00  0.00    +0.000 A 
ATOM      8  C   UNL     1       4.201   0.679   1.508  0.00  0.00    +0.000 A 
BRANCH   3  10
ATOM      9  C   UNL     1       1.982  -1.445  -0.468  0.00  0.00    +0.000 C 
ATOM     10  O   UNL     1       3.054  -0.572  -0.140  0.00  0.00    +0.000 OA
ENDBRANCH   3  10
ENDBRANCH   1   8
BRANCH   2  11
ATOM     11  C   UNL     1       4.583   3.346  -1.268  0.00  0.00    +0.000 C 
BRANCH  11  12
ATOM     12  C   UNL     1       3.880   3.150  -2.591  0.00  0.00    +0.000 A 
ATOM     13  C   UNL     1       3.082   4.166  -3.136  0.00  0.00    +0.000 A 
ATOM     14  C   UNL     1       2.439   3.982  -4.361  0.00  0.00    +0.000 A 
ATOM     15  C   UNL     1       2.584   2.781  -5.053  0.00  0.00    +0.000 A 
ATOM     16  C   UNL     1       3.372   1.762  -4.521  0.00  0.00    +0.000 A 
ATOM     17  C   UNL     1       4.016   1.945  -3.297  0.00  0.00    +0.000 A 
ENDBRANCH  11  12
ENDBRANCH   2  11
TORSDOF 4
