REMARK  Name = *****
REMARK  6 active torsions:
REMARK  status: ('A' for Active; 'I' for Inactive)
REMARK    1  A    between atoms: C_1  and  C_2
REMARK    2  A    between atoms: C_2  and  O_3
REMARK    3  A    between atoms: O_3  and  C_4
REMARK    4  A    between atoms: C_7  and  S_10
REMARK    5  A    between atoms: S_10  and  C_11
REMARK    6  A    between atoms: C_11  and  C_12
REMARK                            x       y       z     vdW  Elec       q    Type
REMARK                         _______ _______ _______ _____ _____    ______ ____
ROOT
ATOM      1  C   UNL     1       4.373  -1.540  -0.929  0.00  0.00    +0.000 A 
ATOM      2  N   UNL     1       4.846  -1.565  -2.192  0.00  0.00    +0.000 NA
ATOM      3  N   UNL     1       6.201  -1.605  -2.406  0.00  0.00    +0.000 NA
ATOM      4  C   UNL     1       7.055  -1.620  -1.360  0.00  0.00    +0.000 A 
ATOM      5  C   UNL     1       6.587  -1.593  -0.055  0.00  0.00    +0.000 A 
ATOM      6  C   UNL     1       5.213  -1.550   0.166  0.00  0.00    +0.000 A 
ENDROOT
BRANCH   1   7
ATOM      7  O   UNL     1       3.018  -1.503  -0.678  0.00  0.00    +0.000 OA
BRANCH   7   9
ATOM      8  C   UNL     1       0.764  -1.519  -1.455  0.00  0.00    +0.000 C 
ATOM      9  C   UNL     1       2.225  -1.543  -1.867  0.00  0.00    +0.000 C 
ENDBRANCH   7   9
ENDBRANCH   1   7
BRANCH   4  10
ATOM     10  S   UNL     1       8.807  -1.693  -1.661  0.00  0.00    +0.000 S 
BRANCH  10  11
ATOM     11  C   UNL     1       8.836  -1.468  -3.470  0.00  0.00    +0.000 C 
BRANCH  11  12
ATOM     12  C   UNL     1      10.250  -1.490  -3.997  0.00  0.00    +0.000 A 
ATOM     13  C   UNL     1      11.037  -0.329  -3.977  0.00  0.00    +0.000 A 
ATOM     14  C   UNL     1      12.344  -0.367  -4.452  0.00  0.00    +0.000 A 
ATOM     15  C   UNL     1      12.893  -1.543  -4.949  0.00  0.00    +0.000 A 
ATOM     16  C   UNL     1      12.124  -2.705  -4.968  0.00  0.00    +0.000 A 
ATOM     17  C   UNL     1      10.810  -2.680  -4.491  0.00  0.00    +0.000 A 
ATOM     18  F   UNL     1      13.086   0.748  -4.428  0.00  0.00    +0.000 F 
ENDBRANCH  11  12
ENDBRANCH  10  11
ENDBRANCH   4  10
TORSDOF 5
