REMARK  Name = *****
REMARK  3 active torsions:
REMARK  status: ('A' for Active; 'I' for Inactive)
REMARK    1  A    between atoms: C_1  and  C_2
REMARK    2  A    between atoms: C_5  and  C_8
REMARK    3  A    between atoms: C_9  and  C_10
REMARK                            x       y       z     vdW  Elec       q    Type
REMARK                         _______ _______ _______ _____ _____    ______ ____
ROOT
ATOM      1  C   UNL     1      -3.283   0.051  -0.063  0.00  0.00    +0.000 C 
ATOM      2  C   UNL     1      -4.052   1.153  -0.077  0.00  0.00    +0.000 C 
ENDROOT
BRANCH   2   3
ATOM      3  C   UNL     1      -5.521   1.126  -0.094  0.00  0.00    +0.000 A 
ATOM      4  C   UNL     1      -6.261   0.178   0.628  0.00  0.00    +0.000 A 
ATOM      5  C   UNL     1      -7.655   0.212   0.604  0.00  0.00    +0.000 A 
ATOM      6  C   UNL     1      -8.328   1.185  -0.119  0.00  0.00    +0.000 A 
ATOM      7  C   UNL     1      -7.602   2.135  -0.821  0.00  0.00    +0.000 A 
ATOM      8  C   UNL     1      -6.207   2.117  -0.810  0.00  0.00    +0.000 A 
ATOM      9  F   UNL     1      -8.236   3.087  -1.520  0.00  0.00    +0.000 F 
ATOM     10  F   UNL     1      -9.668   1.211  -0.135  0.00  0.00    +0.000 F 
ATOM     11  F   UNL     1      -8.342  -0.706   1.297  0.00  0.00    +0.000 F 
ENDBRANCH   2   3
BRANCH   1  16
ATOM     12  C   UNL     1       2.507   0.011  -0.053  0.00  0.00    +0.000 C 
ATOM     13  C   UNL     1       1.008   0.053  -0.074  0.00  0.00    +0.000 A 
ATOM     14  C   UNL     1       0.312   0.993   0.692  0.00  0.00    +0.000 A 
ATOM     15  C   UNL     1      -1.087   1.010   0.696  0.00  0.00    +0.000 A 
ATOM     16  C   UNL     1      -1.813   0.087  -0.066  0.00  0.00    +0.000 A 
ATOM     17  C   UNL     1      -1.113  -0.873  -0.806  0.00  0.00    +0.000 A 
ATOM     18  C   UNL     1       0.285  -0.890  -0.811  0.00  0.00    +0.000 A 
ENDBRANCH   1  16
TORSDOF 2
