REMARK  Name = *****
REMARK  3 active torsions:
REMARK  status: ('A' for Active; 'I' for Inactive)
REMARK    1  A    between atoms: C_5  and  O_7
REMARK    2  A    between atoms: O_7  and  C_8
REMARK    3  A    between atoms: C_8  and  C_10
REMARK                            x       y       z     vdW  Elec       q    Type
REMARK                         _______ _______ _______ _____ _____    ______ ____
ROOT
ATOM      1  C   UNL     1      -3.699  -0.800  -0.634  0.00  0.00    +0.000 C 
ATOM      2  O   UNL     1      -3.401  -1.433  -1.631  0.00  0.00    +0.000 OA
ENDROOT
BRANCH   1   3
ATOM      3  C   UNL     1      -5.044  -0.753  -0.030  0.00  0.00    +0.000 A 
ATOM      4  C   UNL     1      -5.769  -1.924   0.225  0.00  0.00    +0.000 A 
ATOM      5  C   UNL     1      -7.053  -1.841   0.773  0.00  0.00    +0.000 A 
ATOM      6  C   UNL     1      -7.607  -0.595   1.063  0.00  0.00    +0.000 A 
ATOM      7  C   UNL     1      -6.891   0.575   0.815  0.00  0.00    +0.000 A 
ATOM      8  C   UNL     1      -5.609   0.498   0.268  0.00  0.00    +0.000 A 
ATOM      9 CL   UNL     1      -9.186  -0.499   1.737  0.00  0.00    +0.000 Cl
ATOM     10 CL   UNL     1      -5.128  -3.502  -0.059  0.00  0.00    +0.000 Cl
ENDBRANCH   1   3
BRANCH   1  11
ATOM     11  O   UNL     1      -2.866  -0.032   0.111  0.00  0.00    +0.000 OA
BRANCH  11  16
ATOM     12  C   UNL     1       0.680   1.241  -0.027  0.00  0.00    +0.000 C 
ATOM     13  C   UNL     1       1.406  -0.048   0.351  0.00  0.00    +0.000 C 
ATOM     14  C   UNL     1       0.721  -1.283  -0.238  0.00  0.00    +0.000 C 
ATOM     15  C   UNL     1      -0.772  -1.354   0.096  0.00  0.00    +0.000 C 
ATOM     16  C   UNL     1      -1.483  -0.041  -0.296  0.00  0.00    +0.000 C 
ATOM     17  C   UNL     1      -0.804   1.186   0.322  0.00  0.00    +0.000 C 
ATOM     18 CL   UNL     1      -0.990  -1.722   1.846  0.00  0.00    +0.000 Cl
ENDBRANCH  11  16
ENDBRANCH   1  11
TORSDOF 3
