REMARK  Name = *****
REMARK  2 active torsions:
REMARK  status: ('A' for Active; 'I' for Inactive)
REMARK    1  A    between atoms: C_6  and  C_7
REMARK    2  A    between atoms: C_7  and  C_9
REMARK                            x       y       z     vdW  Elec       q    Type
REMARK                         _______ _______ _______ _____ _____    ______ ____
ROOT
ATOM      1  C   UNL     1      -1.604   0.725   0.188  0.00  0.00    +0.000 C 
ATOM      2  C   UNL     1      -0.424   1.615  -0.198  0.00  0.00    +0.000 C 
ATOM      3  C   UNL     1       0.867   1.253   0.534  0.00  0.00    +0.000 C 
ATOM      4  C   UNL     1       1.696   0.163  -0.152  0.00  0.00    +0.000 C 
ATOM      5  C   UNL     1       0.983  -1.119  -0.522  0.00  0.00    +0.000 C 
ATOM      6  C   UNL     1       1.420  -1.954  -1.489  0.00  0.00    +0.000 C 
ATOM      7  C   UNL     1      -0.272  -1.473   0.244  0.00  0.00    +0.000 C 
ATOM      8  C   UNL     1      -1.501  -0.726  -0.273  0.00  0.00    +0.000 C 
ENDROOT
BRANCH   6   9
ATOM      9  C   UNL     1       2.676  -1.774  -2.276  0.00  0.00    +0.000 C 
ATOM     10  O   UNL     1       3.659  -1.202  -1.820  0.00  0.00    +0.000 OA
BRANCH   9  11
ATOM     11  C   UNL     1       2.730  -2.392  -3.630  0.00  0.00    +0.000 A 
ATOM     12  C   UNL     1       1.581  -2.595  -4.406  0.00  0.00    +0.000 A 
ATOM     13  C   UNL     1       1.687  -3.168  -5.675  0.00  0.00    +0.000 A 
ATOM     14  C   UNL     1       2.936  -3.534  -6.177  0.00  0.00    +0.000 A 
ATOM     15  C   UNL     1       4.084  -3.320  -5.416  0.00  0.00    +0.000 A 
ATOM     16  C   UNL     1       3.983  -2.746  -4.147  0.00  0.00    +0.000 A 
ENDBRANCH   9  11
ENDBRANCH   6   9
TORSDOF 2
