REMARK  Name = *****
REMARK  3 active torsions:
REMARK  status: ('A' for Active; 'I' for Inactive)
REMARK    1  A    between atoms: C_4  and  C_8
REMARK    2  A    between atoms: C_8  and  O_10
REMARK    3  A    between atoms: O_10  and  C_11
REMARK                            x       y       z     vdW  Elec       q    Type
REMARK                         _______ _______ _______ _____ _____    ______ ____
ROOT
ATOM      1  C   UNL     1      -0.006   2.112   0.866  0.00  0.00    +0.000 C 
ATOM      2  O   UNL     1      -1.039   2.749   0.984  0.00  0.00    +0.000 OA
ENDROOT
BRANCH   1   6
ATOM      3  C   UNL     1       0.124  -1.818  -0.777  0.00  0.00    +0.000 A 
ATOM      4  C   UNL     1      -0.563  -0.799  -1.438  0.00  0.00    +0.000 A 
ATOM      5  C   UNL     1      -0.595   0.485  -0.894  0.00  0.00    +0.000 A 
ATOM      6  C   UNL     1       0.057   0.762   0.303  0.00  0.00    +0.000 A 
ATOM      7  C   UNL     1       0.733  -0.260   0.963  0.00  0.00    +0.000 A 
ATOM      8  C   UNL     1       0.773  -1.547   0.429  0.00  0.00    +0.000 A 
ATOM      9  F   UNL     1       1.343  -0.035   2.136  0.00  0.00    +0.000 F 
ATOM     10  F   UNL     1      -1.243   1.447  -1.565  0.00  0.00    +0.000 F 
ENDBRANCH   1   6
BRANCH   1  11
ATOM     11  O   UNL     1       1.284   2.508   1.165  0.00  0.00    +0.000 OA
BRANCH  11  12
ATOM     12  C   UNL     1       1.367   3.787   1.721  0.00  0.00    +0.000 A 
ATOM     13  C   UNL     1       0.943   4.019   3.030  0.00  0.00    +0.000 A 
ATOM     14  C   UNL     1       1.088   5.294   3.577  0.00  0.00    +0.000 A 
ATOM     15  C   UNL     1       1.668   6.312   2.818  0.00  0.00    +0.000 A 
ATOM     16  C   UNL     1       2.110   6.067   1.517  0.00  0.00    +0.000 A 
ATOM     17  C   UNL     1       1.966   4.793   0.964  0.00  0.00    +0.000 A 
ATOM     18 CL   UNL     1       1.851   7.883   3.498  0.00  0.00    +0.000 Cl
ENDBRANCH  11  12
ENDBRANCH   1  11
TORSDOF 3
