REMARK  Name = *****
REMARK  3 active torsions:
REMARK  status: ('A' for Active; 'I' for Inactive)
REMARK    1  A    between atoms: C_3  and  C_4
REMARK    2  A    between atoms: C_9  and  N_10
REMARK    3  A    between atoms: C_11  and  C_12
REMARK                            x       y       z     vdW  Elec       q    Type
REMARK                         _______ _______ _______ _____ _____    ______ ____
ROOT
ATOM      1  C   UNL     1      -1.565  -1.091  -1.242  0.00  0.00    +0.000 A 
ATOM      2  C   UNL     1      -0.808  -1.375  -2.396  0.00  0.00    +0.000 A 
ATOM      3  C   UNL     1      -1.405  -1.523  -3.650  0.00  0.00    +0.000 A 
ATOM      4  C   UNL     1      -2.783  -1.392  -3.781  0.00  0.00    +0.000 A 
ATOM      5  C   UNL     1      -3.559  -1.126  -2.655  0.00  0.00    +0.000 A 
ATOM      6  C   UNL     1      -2.968  -0.994  -1.390  0.00  0.00    +0.000 A 
ENDROOT
BRANCH   1   9
ATOM      7  C   UNL     1      -0.989   0.370   0.857  0.00  0.00    +0.000 C 
ATOM      8  C   UNL     1       0.321  -0.032   0.254  0.00  0.00    +0.000 C 
ATOM      9  C   UNL     1      -0.883  -0.936   0.104  0.00  0.00    +0.000 C 
ENDBRANCH   1   9
BRANCH   6  10
ATOM     10  N   UNL     1      -3.795  -0.737  -0.280  0.00  0.00    +0.000 NA
ATOM     11  C   UNL     1      -4.314  -1.780   0.287  0.00  0.00    +0.000 C 
BRANCH  11  12
ATOM     12  C   UNL     1      -5.189  -1.666   1.470  0.00  0.00    +0.000 A 
ATOM     13  C   UNL     1      -5.400  -0.428   2.086  0.00  0.00    +0.000 A 
ATOM     14  C   UNL     1      -6.228  -0.343   3.208  0.00  0.00    +0.000 A 
ATOM     15  C   UNL     1      -6.842  -1.492   3.704  0.00  0.00    +0.000 A 
ATOM     16  C   UNL     1      -6.634  -2.728   3.090  0.00  0.00    +0.000 A 
ATOM     17  C   UNL     1      -5.803  -2.818   1.970  0.00  0.00    +0.000 A 
ATOM     18 CL   UNL     1      -7.864  -1.388   5.084  0.00  0.00    +0.000 Cl
ENDBRANCH  11  12
ENDBRANCH   6  10
TORSDOF 3
