REMARK  Name = *****
REMARK  3 active torsions:
REMARK  status: ('A' for Active; 'I' for Inactive)
REMARK    1  A    between atoms: C_5  and  C_7
REMARK    2  A    between atoms: C_7  and  C_8
REMARK    3  A    between atoms: C_8  and  C_9
REMARK                            x       y       z     vdW  Elec       q    Type
REMARK                         _______ _______ _______ _____ _____    ______ ____
ROOT
ATOM      1  C   UNL     1       0.023   2.494  -0.049  0.00  0.00    +0.000 C 
ATOM      2  F   UNL     1      -1.340   2.349  -0.137  0.00  0.00    +0.000 F 
ENDROOT
BRANCH   1   7
ATOM      3  C   UNL     1       0.606  -1.262   0.226  0.00  0.00    +0.000 A 
ATOM      4  C   UNL     1       1.868  -1.331   0.806  0.00  0.00    +0.000 A 
ATOM      5  C   UNL     1       2.551  -0.158   1.125  0.00  0.00    +0.000 A 
ATOM      6  C   UNL     1       1.972   1.090   0.864  0.00  0.00    +0.000 A 
ATOM      7  C   UNL     1       0.698   1.177   0.278  0.00  0.00    +0.000 A 
ATOM      8  C   UNL     1       0.027  -0.019  -0.037  0.00  0.00    +0.000 A 
ATOM      9 BR   UNL     1       2.983   2.627   1.339  0.00  0.00    +0.000 Br
ENDBRANCH   1   7
BRANCH   1  10
ATOM     10  C   UNL     1       0.513   3.054  -1.393  0.00  0.00    +0.000 C 
BRANCH  10  11
ATOM     11  C   UNL     1       0.102   4.495  -1.595  0.00  0.00    +0.000 A 
ATOM     12  C   UNL     1       0.989   5.537  -1.285  0.00  0.00    +0.000 A 
ATOM     13  C   UNL     1       0.601   6.867  -1.458  0.00  0.00    +0.000 A 
ATOM     14  C   UNL     1      -0.672   7.153  -1.936  0.00  0.00    +0.000 A 
ATOM     15  C   UNL     1      -1.567   6.136  -2.243  0.00  0.00    +0.000 A 
ATOM     16  C   UNL     1      -1.182   4.806  -2.070  0.00  0.00    +0.000 A 
ATOM     17  F   UNL     1      -1.043   8.430  -2.101  0.00  0.00    +0.000 F 
ENDBRANCH  10  11
ENDBRANCH   1  10
TORSDOF 3
