REMARK  Name = *****
REMARK  4 active torsions:
REMARK  status: ('A' for Active; 'I' for Inactive)
REMARK    1  A    between atoms: C_1  and  C_2
REMARK    2  A    between atoms: C_5  and  O_8
REMARK    3  A    between atoms: O_8  and  C_9
REMARK    4  A    between atoms: C_9  and  C_10
REMARK                            x       y       z     vdW  Elec       q    Type
REMARK                         _______ _______ _______ _____ _____    ______ ____
ROOT
ATOM      1  O   UNL     1       5.721   0.914   1.018  0.00  0.00    +0.000 OA
ENDROOT
BRANCH   1   6
ATOM      2  C   UNL     1       1.591  -0.288  -0.888  0.00  0.00    +0.000 C 
ATOM      3  C   UNL     1       2.717   0.130   0.004  0.00  0.00    +0.000 C 
ATOM      4  C   UNL     1       2.712   1.557   0.501  0.00  0.00    +0.000 C 
ATOM      5  C   UNL     1       3.966   2.176  -0.133  0.00  0.00    +0.000 C 
ATOM      6  C   UNL     1       4.988   1.028  -0.198  0.00  0.00    +0.000 C 
ATOM      7  C   UNL     1       4.136  -0.205  -0.377  0.00  0.00    +0.000 C 
ATOM      8  C   UNL     1       3.478  -0.918   0.779  0.00  0.00    +0.000 C 
ENDBRANCH   1   6
BRANCH   1   9
ATOM      9  C   UNL     1       6.869   1.758   1.052  0.00  0.00    +0.000 C 
BRANCH   9  10
ATOM     10  C   UNL     1       7.565   1.695   2.392  0.00  0.00    +0.000 A 
ATOM     11  C   UNL     1       8.823   2.302   2.538  0.00  0.00    +0.000 A 
ATOM     12  C   UNL     1       9.487   2.281   3.766  0.00  0.00    +0.000 A 
ATOM     13  C   UNL     1       8.901   1.657   4.865  0.00  0.00    +0.000 A 
ATOM     14  C   UNL     1       7.651   1.056   4.737  0.00  0.00    +0.000 A 
ATOM     15  C   UNL     1       6.986   1.078   3.510  0.00  0.00    +0.000 A 
ENDBRANCH   9  10
ENDBRANCH   1   9
TORSDOF 3
