REMARK  Name = *****
REMARK  5 active torsions:
REMARK  status: ('A' for Active; 'I' for Inactive)
REMARK    1  A    between atoms: C_1  and  C_2
REMARK    2  A    between atoms: C_7  and  C_8
REMARK    3  A    between atoms: C_8  and  C_10
REMARK    4  A    between atoms: C_10  and  C_11
REMARK    5  A    between atoms: C_11  and  C_12
REMARK                            x       y       z     vdW  Elec       q    Type
REMARK                         _______ _______ _______ _____ _____    ______ ____
ROOT
ATOM      1  C   UNL     1       1.382  -2.166   0.992  0.00  0.00    +0.000 C 
ATOM      2  O   UNL     1       0.715  -3.000   1.597  0.00  0.00    +0.000 OA
ENDROOT
BRANCH   1   9
ATOM      3  C   UNL     1      -1.521  -1.444   0.780  0.00  0.00    +0.000 C 
ATOM      4  C   UNL     1      -0.433  -0.406   0.846  0.00  0.00    +0.000 A 
ATOM      5  C   UNL     1      -0.797   0.952   0.828  0.00  0.00    +0.000 A 
ATOM      6  C   UNL     1       0.171   1.955   0.886  0.00  0.00    +0.000 A 
ATOM      7  C   UNL     1       1.518   1.619   0.972  0.00  0.00    +0.000 A 
ATOM      8  C   UNL     1       1.899   0.277   1.002  0.00  0.00    +0.000 A 
ATOM      9  C   UNL     1       0.933  -0.741   0.940  0.00  0.00    +0.000 A 
ENDBRANCH   1   9
BRANCH   1  10
ATOM     10  C   UNL     1       2.685  -2.521   0.300  0.00  0.00    +0.000 C 
BRANCH  10  11
ATOM     11  C   UNL     1       2.745  -4.011  -0.035  0.00  0.00    +0.000 C 
BRANCH  11  12
ATOM     12  C   UNL     1       4.013  -4.357  -0.776  0.00  0.00    +0.000 A 
ATOM     13  C   UNL     1       5.192  -4.637  -0.072  0.00  0.00    +0.000 A 
ATOM     14  C   UNL     1       6.360  -4.934  -0.767  0.00  0.00    +0.000 A 
ATOM     15  C   UNL     1       6.383  -4.956  -2.156  0.00  0.00    +0.000 A 
ATOM     16  C   UNL     1       5.217  -4.676  -2.865  0.00  0.00    +0.000 A 
ATOM     17  C   UNL     1       4.038  -4.375  -2.179  0.00  0.00    +0.000 A 
ATOM     18  F   UNL     1       7.482  -5.199  -0.085  0.00  0.00    +0.000 F 
ENDBRANCH  11  12
ENDBRANCH  10  11
ENDBRANCH   1  10
TORSDOF 4
