REMARK  Name = *****
REMARK  2 active torsions:
REMARK  status: ('A' for Active; 'I' for Inactive)
REMARK    1  A    between atoms: C_6  and  C_7
REMARK    2  A    between atoms: N_8  and  C_9
REMARK                            x       y       z     vdW  Elec       q    Type
REMARK                         _______ _______ _______ _____ _____    ______ ____
ROOT
ATOM      1  C   UNL     1      -3.473   0.233  -0.142  0.00  0.00    +0.000 C 
ATOM      2  N   UNL     1      -4.130   1.223   0.376  0.00  0.00    +0.000 NA
ENDROOT
BRANCH   2   3
ATOM      3  C   UNL     1      -5.523   1.169   0.257  0.00  0.00    +0.000 A 
ATOM      4  C   UNL     1      -6.161   1.790  -0.819  0.00  0.00    +0.000 A 
ATOM      5  C   UNL     1      -7.554   1.756  -0.930  0.00  0.00    +0.000 A 
ATOM      6  C   UNL     1      -8.317   1.106   0.048  0.00  0.00    +0.000 A 
ATOM      7  C   UNL     1      -7.681   0.499   1.134  0.00  0.00    +0.000 A 
ATOM      8  C   UNL     1      -6.289   0.536   1.239  0.00  0.00    +0.000 A 
ATOM      9 CL   UNL     1     -10.041   1.021  -0.025  0.00  0.00    +0.000 Cl
ATOM     10 CL   UNL     1      -8.271   2.535  -2.296  0.00  0.00    +0.000 Cl
ENDBRANCH   2   3
BRANCH   1  16
ATOM     11  C   UNL     1      -1.356  -0.943  -0.658  0.00  0.00    +0.000 A 
ATOM     12  C   UNL     1       0.037  -1.026  -0.616  0.00  0.00    +0.000 A 
ATOM     13  C   UNL     1       0.770  -0.009  -0.011  0.00  0.00    +0.000 A 
ATOM     14  C   UNL     1       0.137   1.092   0.556  0.00  0.00    +0.000 A 
ATOM     15  C   UNL     1      -1.255   1.181   0.518  0.00  0.00    +0.000 A 
ATOM     16  C   UNL     1      -2.000   0.162  -0.089  0.00  0.00    +0.000 A 
ATOM     17  F   UNL     1       2.106  -0.094   0.026  0.00  0.00    +0.000 F 
ENDBRANCH   1  16
TORSDOF 2
