REMARK  Name = *****
REMARK  4 active torsions:
REMARK  status: ('A' for Active; 'I' for Inactive)
REMARK    1  A    between atoms: C_4  and  O_10
REMARK    2  A    between atoms: C_5  and  C_7
REMARK    3  A    between atoms: O_10  and  C_11
REMARK    4  A    between atoms: C_11  and  C_12
REMARK                            x       y       z     vdW  Elec       q    Type
REMARK                         _______ _______ _______ _____ _____    ______ ____
ROOT
ATOM      1  C   UNL     1       1.380  -0.192  -0.004  0.00  0.00    +0.000 A 
ATOM      2  C   UNL     1       0.538  -1.253  -0.324  0.00  0.00    +0.000 A 
ATOM      3  C   UNL     1      -0.850  -1.081  -0.315  0.00  0.00    +0.000 A 
ATOM      4  C   UNL     1      -1.415   0.155   0.023  0.00  0.00    +0.000 A 
ATOM      5  C   UNL     1      -0.560   1.215   0.371  0.00  0.00    +0.000 A 
ATOM      6  C   UNL     1       0.834   1.042   0.339  0.00  0.00    +0.000 A 
ENDROOT
BRANCH   5   7
ATOM      7  C   UNL     1      -1.070   2.557   0.764  0.00  0.00    +0.000 C 
ATOM      8  O   UNL     1      -0.476   3.529   0.294  0.00  0.00    +0.000 OA
ATOM      9 CL   UNL     1      -2.378   2.686   1.917  0.00  0.00    +0.000 Cl
ENDBRANCH   5   7
BRANCH   4  10
ATOM     10  O   UNL     1      -2.758   0.416   0.008  0.00  0.00    +0.000 OA
BRANCH  10  11
ATOM     11  C   UNL     1      -3.643  -0.607  -0.449  0.00  0.00    +0.000 C 
BRANCH  11  12
ATOM     12  C   UNL     1      -5.071  -0.108  -0.443  0.00  0.00    +0.000 A 
ATOM     13  C   UNL     1      -6.123  -1.027  -0.314  0.00  0.00    +0.000 A 
ATOM     14  C   UNL     1      -7.444  -0.587  -0.344  0.00  0.00    +0.000 A 
ATOM     15  C   UNL     1      -7.749   0.758  -0.510  0.00  0.00    +0.000 A 
ATOM     16  C   UNL     1      -6.715   1.680  -0.654  0.00  0.00    +0.000 A 
ATOM     17  C   UNL     1      -5.385   1.248  -0.628  0.00  0.00    +0.000 A 
ATOM     18  F   UNL     1      -8.436  -1.477  -0.216  0.00  0.00    +0.000 F 
ENDBRANCH  11  12
ENDBRANCH  10  11
ENDBRANCH   4  10
TORSDOF 4
