REMARK  Name = *****
REMARK  4 active torsions:
REMARK  status: ('A' for Active; 'I' for Inactive)
REMARK    1  A    between atoms: C_5  and  N_7
REMARK    2  A    between atoms: N_7  and  C_8
REMARK    3  A    between atoms: N_7  and  P_16
REMARK    4  A    between atoms: C_8  and  C_9
REMARK                            x       y       z     vdW  Elec       q    Type
REMARK                         _______ _______ _______ _____ _____    ______ ____
ROOT
ATOM      1  N   UNL     1      -1.926  -1.784  -0.619  0.00  0.00    +0.000 NA
ENDROOT
BRANCH   1   6
ATOM      2  C   UNL     1      -0.835   1.785   0.458  0.00  0.00    +0.000 C 
ATOM      3  C   UNL     1       0.599   1.614  -0.028  0.00  0.00    +0.000 C 
ATOM      4  C   UNL     1       1.059   0.204   0.155  0.00  0.00    +0.000 C 
ATOM      5  C   UNL     1       0.218  -0.830   0.307  0.00  0.00    +0.000 C 
ATOM      6  C   UNL     1      -1.307  -0.748   0.261  0.00  0.00    +0.000 C 
ATOM      7  C   UNL     1      -1.732   0.701  -0.137  0.00  0.00    +0.000 C 
ENDBRANCH   1   6
BRANCH   1   8
ATOM      8  P   UNL     1      -3.602  -1.664  -1.023  0.00  0.00    +0.000 P 
ATOM      9  H   UNL     1      -3.929  -0.341  -1.243  0.00  0.00    +0.000 HD
ATOM     10  H   UNL     1      -4.362  -2.158   0.017  0.00  0.00    +0.000 HD
ENDBRANCH   1   8
BRANCH   1  11
ATOM     11  C   UNL     1      -1.494  -3.189  -0.366  0.00  0.00    +0.000 C 
BRANCH  11  12
ATOM     12  C   UNL     1      -2.118  -3.889   0.836  0.00  0.00    +0.000 A 
ATOM     13  C   UNL     1      -1.708  -3.517   2.131  0.00  0.00    +0.000 A 
ATOM     14  C   UNL     1      -2.309  -4.056   3.270  0.00  0.00    +0.000 A 
ATOM     15  C   UNL     1      -3.316  -5.003   3.141  0.00  0.00    +0.000 A 
ATOM     16  C   UNL     1      -3.702  -5.431   1.872  0.00  0.00    +0.000 A 
ATOM     17  C   UNL     1      -3.105  -4.887   0.727  0.00  0.00    +0.000 A 
ATOM     18 BR   UNL     1      -3.694  -5.598  -0.937  0.00  0.00    +0.000 Br
ENDBRANCH  11  12
ENDBRANCH   1  11
TORSDOF 4
