REMARK  Name = *****
REMARK  6 active torsions:
REMARK  status: ('A' for Active; 'I' for Inactive)
REMARK    1  A    between atoms: C_1  and  C_2
REMARK    2  A    between atoms: C_2  and  N_3
REMARK    3  A    between atoms: C_8  and  C_9
REMARK    4  A    between atoms: C_10  and  C_11
REMARK    5  A    between atoms: N_12  and  C_16
REMARK    6  A    between atoms: C_16  and  C_17
REMARK                            x       y       z     vdW  Elec       q    Type
REMARK                         _______ _______ _______ _____ _____    ______ ____
ROOT
ATOM      1  C   UNL     1       4.197   4.404   0.485  0.00  0.00    +0.000 C 
ATOM      2  C   UNL     1       4.510   5.334  -0.431  0.00  0.00    +0.000 C 
ENDROOT
BRANCH   1   8
ATOM      3  N   UNL     1       2.544   1.246  -0.908  0.00  0.00    +0.000 N 
ATOM      4  C   UNL     1       1.445   1.170  -1.753  0.00  0.00    +0.000 C 
ATOM      5  C   UNL     1       0.892   2.337  -2.110  0.00  0.00    +0.000 C 
ATOM      6  S   UNL     1       1.711   3.719  -1.416  0.00  0.00    +0.000 S 
ATOM      7  C   UNL     1       2.854   2.583  -0.622  0.00  0.00    +0.000 C 
ATOM      8  C   UNL     1       3.855   3.033   0.160  0.00  0.00    +0.000 C 
BRANCH   3  10
ATOM      9  C   UNL     1       4.460  -0.215  -1.368  0.00  0.00    +0.000 C 
ATOM     10  C   UNL     1       3.275   0.066  -0.458  0.00  0.00    +0.000 C 
ENDBRANCH   3  10
ENDBRANCH   1   8
BRANCH   2  11
ATOM     11  C   UNL     1       4.798   6.663  -0.051  0.00  0.00    +0.000 C 
ATOM     12  N   UNL     1       5.938   7.137   0.431  0.00  0.00    +0.000 N 
ATOM     13  C   UNL     1       5.941   8.497   0.702  0.00  0.00    +0.000 C 
ATOM     14  C   UNL     1       4.738   9.091   0.405  0.00  0.00    +0.000 C 
ATOM     15  S   UNL     1       3.644   7.927  -0.222  0.00  0.00    +0.000 S 
BRANCH  12  16
ATOM     16  C   UNL     1       7.142   6.328   0.640  0.00  0.00    +0.000 C 
ATOM     17  C   UNL     1       7.293   5.901   2.090  0.00  0.00    +0.000 C 
ENDBRANCH  12  16
ENDBRANCH   2  11
TORSDOF 4
