REMARK  Name = *****
REMARK  5 active torsions:
REMARK  status: ('A' for Active; 'I' for Inactive)
REMARK    1  A    between atoms: C_1  and  N_2
REMARK    2  A    between atoms: N_2  and  C_3
REMARK    3  A    between atoms: N_2  and  C_4
REMARK    4  A    between atoms: C_7  and  C_10
REMARK    5  A    between atoms: C_11  and  C_12
REMARK                            x       y       z     vdW  Elec       q    Type
REMARK                         _______ _______ _______ _____ _____    ______ ____
ROOT
ATOM      1  C   UNL     1       4.941  -4.556   1.876  0.00  0.00    +0.000 C 
ATOM      2  C   UNL     1       4.394  -5.773   2.024  0.00  0.00    +0.000 C 
ENDROOT
BRANCH   2   3
ATOM      3  C   UNL     1       5.140  -6.887   2.635  0.00  0.00    +0.000 A 
ATOM      4  C   UNL     1       5.289  -6.997   4.031  0.00  0.00    +0.000 A 
ATOM      5  C   UNL     1       6.008  -8.057   4.595  0.00  0.00    +0.000 A 
ATOM      6  C   UNL     1       6.589  -9.025   3.780  0.00  0.00    +0.000 A 
ATOM      7  C   UNL     1       6.448  -8.937   2.397  0.00  0.00    +0.000 A 
ATOM      8  C   UNL     1       5.730  -7.878   1.828  0.00  0.00    +0.000 A 
ATOM      9 CL   UNL     1       5.600  -7.848   0.100  0.00  0.00    +0.000 Cl
ATOM     10 CL   UNL     1       4.586  -5.850   5.122  0.00  0.00    +0.000 Cl
ENDBRANCH   2   3
BRANCH   1  14
ATOM     11  C   UNL     1       3.060  -1.139   0.171  0.00  0.00    +0.000 A 
ATOM     12  N   UNL     1       3.931  -1.005   1.195  0.00  0.00    +0.000 NA
ATOM     13  C   UNL     1       4.495  -2.125   1.713  0.00  0.00    +0.000 A 
ATOM     14  C   UNL     1       4.245  -3.418   1.268  0.00  0.00    +0.000 A 
ATOM     15  C   UNL     1       3.373  -3.542   0.191  0.00  0.00    +0.000 A 
ATOM     16  C   UNL     1       2.778  -2.402  -0.355  0.00  0.00    +0.000 A 
BRANCH  11  18
ATOM     17  C   UNL     1       1.001  -0.026  -0.310  0.00  0.00    +0.000 C 
ATOM     18  N   UNL     1       2.461   0.004  -0.400  0.00  0.00    +0.000 N 
ATOM     19  C   UNL     1       3.061   1.252   0.074  0.00  0.00    +0.000 C 
ENDBRANCH  11  18
ENDBRANCH   1  14
TORSDOF 3
