REMARK  Name = *****
REMARK  6 active torsions:
REMARK  status: ('A' for Active; 'I' for Inactive)
REMARK    1  A    between atoms: C_1  and  C_2
REMARK    2  A    between atoms: C_2  and  N_3
REMARK    3  A    between atoms: N_3  and  C_4
REMARK    4  A    between atoms: N_3  and  C_12
REMARK    5  A    between atoms: C_4  and  C_5
REMARK    6  A    between atoms: C_16  and  C_18
REMARK                            x       y       z     vdW  Elec       q    Type
REMARK                         _______ _______ _______ _____ _____    ______ ____
ROOT
ATOM      1  N   UNL     1       3.053   1.026   0.183  0.00  0.00    +0.000 N 
ENDROOT
BRANCH   1   2
ATOM      2  C   UNL     1       4.355   1.537   0.175  0.00  0.00    +0.000 A 
ATOM      3  C   UNL     1       4.636   2.909   0.259  0.00  0.00    +0.000 A 
ATOM      4  C   UNL     1       5.949   3.398   0.274  0.00  0.00    +0.000 A 
ATOM      5  C   UNL     1       7.025   2.520   0.212  0.00  0.00    +0.000 A 
ATOM      6  C   UNL     1       6.794   1.148   0.131  0.00  0.00    +0.000 A 
ATOM      7  C   UNL     1       5.469   0.677   0.132  0.00  0.00    +0.000 A 
ATOM      8  C   UNL     1       7.941   0.181   0.119  0.00  0.00    +0.000 C 
ENDBRANCH   1   2
BRANCH   1  10
ATOM      9  C   UNL     1       2.433  -1.347   0.203  0.00  0.00    +0.000 C 
ATOM     10  C   UNL     1       2.760  -0.140  -0.663  0.00  0.00    +0.000 C 
ENDBRANCH   1  10
BRANCH   1  11
ATOM     11  C   UNL     1       1.895   1.881   0.506  0.00  0.00    +0.000 C 
BRANCH  11  12
ATOM     12  C   UNL     1       1.852   2.323   1.951  0.00  0.00    +0.000 A 
ATOM     13  C   UNL     1       2.336   1.525   2.999  0.00  0.00    +0.000 A 
ATOM     14  C   UNL     1       2.237   1.954   4.326  0.00  0.00    +0.000 A 
ATOM     15  C   UNL     1       1.638   3.177   4.624  0.00  0.00    +0.000 A 
ATOM     16  C   UNL     1       1.136   3.971   3.595  0.00  0.00    +0.000 A 
ATOM     17  C   UNL     1       1.241   3.537   2.276  0.00  0.00    +0.000 A 
ATOM     18  F   UNL     1       0.736   4.311   1.304  0.00  0.00    +0.000 F 
ENDBRANCH  11  12
ENDBRANCH   1  11
TORSDOF 4
