REMARK  Name = *****
REMARK  4 active torsions:
REMARK  status: ('A' for Active; 'I' for Inactive)
REMARK    1  A    between atoms: C_1  and  C_2
REMARK    2  A    between atoms: C_5  and  C_8
REMARK    3  A    between atoms: C_8  and  O_9
REMARK    4  A    between atoms: O_9  and  C_10
REMARK                            x       y       z     vdW  Elec       q    Type
REMARK                         _______ _______ _______ _____ _____    ______ ____
ROOT
ATOM      1  C   UNL     1      -3.338  -0.043  -0.045  0.00  0.00    +0.000 C 
ENDROOT
BRANCH   1   6
ATOM      2  C   UNL     1       2.487   0.053  -0.150  0.00  0.00    +0.000 C 
ATOM      3  C   UNL     1       0.988   0.009  -0.111  0.00  0.00    +0.000 A 
ATOM      4  C   UNL     1       0.294   0.232   1.083  0.00  0.00    +0.000 A 
ATOM      5  C   UNL     1      -1.103   0.211   1.104  0.00  0.00    +0.000 A 
ATOM      6  C   UNL     1      -1.830  -0.035  -0.068  0.00  0.00    +0.000 A 
ATOM      7  C   UNL     1      -1.133  -0.233  -1.267  0.00  0.00    +0.000 A 
ATOM      8  C   UNL     1       0.263  -0.213  -1.287  0.00  0.00    +0.000 A 
ENDBRANCH   1   6
BRANCH   1   9
ATOM      9  O   UNL     1      -3.793   1.298  -0.198  0.00  0.00    +0.000 OA
BRANCH   9  10
ATOM     10  C   UNL     1      -5.145   1.501  -0.196  0.00  0.00    +0.000 A 
ATOM     11  C   UNL     1      -6.126   0.518  -0.060  0.00  0.00    +0.000 A 
ATOM     12  C   UNL     1      -7.480   0.870  -0.076  0.00  0.00    +0.000 A 
ATOM     13  C   UNL     1      -7.858   2.203  -0.227  0.00  0.00    +0.000 A 
ATOM     14  C   UNL     1      -6.883   3.188  -0.363  0.00  0.00    +0.000 A 
ATOM     15  C   UNL     1      -5.533   2.836  -0.347  0.00  0.00    +0.000 A 
ENDBRANCH   9  10
ENDBRANCH   1   9
TORSDOF 3
