REMARK  Name = *****
REMARK  6 active torsions:
REMARK  status: ('A' for Active; 'I' for Inactive)
REMARK    1  A    between atoms: C_1  and  C_2
REMARK    2  A    between atoms: C_2  and  C_3
REMARK    3  A    between atoms: C_2  and  C_10
REMARK    4  A    between atoms: C_2  and  O_16
REMARK    5  A    between atoms: C_3  and  C_4
REMARK    6  A    between atoms: O_16  and  C_17
REMARK                            x       y       z     vdW  Elec       q    Type
REMARK                         _______ _______ _______ _____ _____    ______ ____
ROOT
ATOM      1  C   UNL     1       0.932  -0.189  -0.124  0.00  0.00    +0.000 C 
ATOM      2  C   UNL     1       2.469  -0.275  -0.006  0.00  0.00    +0.000 C 
ENDROOT
BRANCH   2   3
ATOM      3  C   UNL     1       3.032  -1.702   0.070  0.00  0.00    +0.000 A 
ATOM      4  C   UNL     1       4.402  -1.928  -0.175  0.00  0.00    +0.000 A 
ATOM      5  C   UNL     1       4.952  -3.208  -0.098  0.00  0.00    +0.000 A 
ATOM      6  C   UNL     1       4.145  -4.292   0.232  0.00  0.00    +0.000 A 
ATOM      7  C   UNL     1       2.791  -4.094   0.486  0.00  0.00    +0.000 A 
ATOM      8  C   UNL     1       2.239  -2.812   0.407  0.00  0.00    +0.000 A 
ENDBRANCH   2   3
BRANCH   2   9
ATOM      9  O   UNL     1       3.070   0.413  -1.140  0.00  0.00    +0.000 OA
ATOM     10  C   UNL     1       2.659  -0.020  -2.431  0.00  0.00    +0.000 C 
ENDBRANCH   2   9
BRANCH   2  11
ATOM     11  C   UNL     1       2.947   0.557   1.231  0.00  0.00    +0.000 C 
BRANCH  11  12
ATOM     12  C   UNL     1       2.406   0.164   2.588  0.00  0.00    +0.000 A 
ATOM     13  C   UNL     1       3.002  -0.869   3.325  0.00  0.00    +0.000 A 
ATOM     14  C   UNL     1       2.497  -1.232   4.575  0.00  0.00    +0.000 A 
ATOM     15  C   UNL     1       1.396  -0.563   5.105  0.00  0.00    +0.000 A 
ATOM     16  C   UNL     1       0.800   0.471   4.387  0.00  0.00    +0.000 A 
ATOM     17  C   UNL     1       1.304   0.835   3.136  0.00  0.00    +0.000 A 
ENDBRANCH  11  12
ENDBRANCH   2  11
TORSDOF 4
