REMARK  Name = *****
REMARK  2 active torsions:
REMARK  status: ('A' for Active; 'I' for Inactive)
REMARK    1  A    between atoms: C_1  and  C_2
REMARK    2  A    between atoms: N_13  and  C_14
REMARK                            x       y       z     vdW  Elec       q    Type
REMARK                         _______ _______ _______ _____ _____    ______ ____
ROOT
ATOM      1  C   UNL     1       0.999  -0.299  -0.027  0.00  0.00    +0.000 C 
ATOM      2  C   UNL     1       2.508  -0.147  -0.024  0.00  0.00    +0.000 A 
ATOM      3  N   UNL     1       3.182  -1.248   0.093  0.00  0.00    +0.000 NA
ATOM      4  C   UNL     1       4.572  -1.205   0.004  0.00  0.00    +0.000 A 
ATOM      5  C   UNL     1       5.262  -0.026  -0.249  0.00  0.00    +0.000 A 
ATOM      6  C   UNL     1       6.658  -0.014  -0.359  0.00  0.00    +0.000 A 
ATOM      7  C   UNL     1       7.362  -1.206  -0.217  0.00  0.00    +0.000 A 
ATOM      8  C   UNL     1       6.685  -2.398   0.036  0.00  0.00    +0.000 A 
ATOM      9  C   UNL     1       5.292  -2.395   0.145  0.00  0.00    +0.000 A 
ATOM     10 CL   UNL     1       9.076  -1.210  -0.351  0.00  0.00    +0.000 Cl
ATOM     11  C   UNL     1       4.478   1.217  -0.369  0.00  0.00    +0.000 A 
ATOM     12  O   UNL     1       5.098   2.261  -0.567  0.00  0.00    +0.000 OA
ATOM     13  N   UNL     1       3.089   1.103  -0.200  0.00  0.00    +0.000 N 
ENDROOT
BRANCH  13  14
ATOM     14  C   UNL     1       2.321   2.316  -0.181  0.00  0.00    +0.000 A 
ATOM     15  C   UNL     1       1.396   2.568   0.842  0.00  0.00    +0.000 A 
ATOM     16  C   UNL     1       0.658   3.753   0.852  0.00  0.00    +0.000 A 
ATOM     17  C   UNL     1       0.834   4.708  -0.145  0.00  0.00    +0.000 A 
ATOM     18  C   UNL     1       1.765   4.482  -1.155  0.00  0.00    +0.000 A 
ATOM     19  C   UNL     1       2.507   3.297  -1.169  0.00  0.00    +0.000 A 
ATOM     20 CL   UNL     1      -0.475   4.040   2.116  0.00  0.00    +0.000 Cl
ENDBRANCH  13  14
TORSDOF 1
