REMARK  Name = *****
REMARK  5 active torsions:
REMARK  status: ('A' for Active; 'I' for Inactive)
REMARK    1  A    between atoms: C_1  and  C_2
REMARK    2  A    between atoms: C_5  and  S_8
REMARK    3  A    between atoms: S_8  and  O_10
REMARK    4  A    between atoms: O_10  and  C_11
REMARK    5  A    between atoms: C_11  and  C_12
REMARK                            x       y       z     vdW  Elec       q    Type
REMARK                         _______ _______ _______ _____ _____    ______ ____
ROOT
ATOM      1  S   UNL     1      -3.347   0.157  -0.250  0.00  0.00    +0.000 S 
ATOM      2  O   UNL     1      -4.057  -0.035   1.055  0.00  0.00    +0.000 OA
ENDROOT
BRANCH   1   7
ATOM      3  C   UNL     1       2.651   0.125   0.940  0.00  0.00    +0.000 C 
ATOM      4  C   UNL     1       1.176   0.087   0.668  0.00  0.00    +0.000 A 
ATOM      5  C   UNL     1       0.700  -0.210  -0.615  0.00  0.00    +0.000 A 
ATOM      6  C   UNL     1      -0.671  -0.200  -0.879  0.00  0.00    +0.000 A 
ATOM      7  C   UNL     1      -1.582   0.116   0.134  0.00  0.00    +0.000 A 
ATOM      8  C   UNL     1      -1.110   0.417   1.415  0.00  0.00    +0.000 A 
ATOM      9  C   UNL     1       0.262   0.410   1.678  0.00  0.00    +0.000 A 
ENDBRANCH   1   7
BRANCH   1  10
ATOM     10  O   UNL     1      -3.311   1.744  -0.525  0.00  0.00    +0.000 OA
BRANCH  10  11
ATOM     11  C   UNL     1      -4.275   2.195  -1.462  0.00  0.00    +0.000 C 
BRANCH  11  12
ATOM     12  C   UNL     1      -4.322   3.701  -1.397  0.00  0.00    +0.000 A 
ATOM     13  C   UNL     1      -5.044   4.334  -0.374  0.00  0.00    +0.000 A 
ATOM     14  C   UNL     1      -5.085   5.727  -0.293  0.00  0.00    +0.000 A 
ATOM     15  C   UNL     1      -4.395   6.494  -1.229  0.00  0.00    +0.000 A 
ATOM     16  C   UNL     1      -3.660   5.880  -2.241  0.00  0.00    +0.000 A 
ATOM     17  C   UNL     1      -3.620   4.486  -2.323  0.00  0.00    +0.000 A 
ATOM     18 BR   UNL     1      -4.451   8.380  -1.121  0.00  0.00    +0.000 Br
ENDBRANCH  11  12
ENDBRANCH  10  11
ENDBRANCH   1  10
TORSDOF 4
