REMARK  Name = *****
REMARK  4 active torsions:
REMARK  status: ('A' for Active; 'I' for Inactive)
REMARK    1  A    between atoms: C_2  and  C_3
REMARK    2  A    between atoms: C_3  and  C_4
REMARK    3  A    between atoms: C_3  and  C_10
REMARK    4  A    between atoms: C_10  and  C_13
REMARK                            x       y       z     vdW  Elec       q    Type
REMARK                         _______ _______ _______ _____ _____    ______ ____
ROOT
ATOM      1  C   UNL     1       3.291   1.375   0.188  0.00  0.00    +0.000 C 
ENDROOT
BRANCH   1   2
ATOM      2  C   UNL     1       2.671   2.041   1.420  0.00  0.00    +0.000 A 
ATOM      3  C   UNL     1       2.045   1.313   2.445  0.00  0.00    +0.000 A 
ATOM      4  C   UNL     1       1.506   1.964   3.558  0.00  0.00    +0.000 A 
ATOM      5  C   UNL     1       1.589   3.349   3.668  0.00  0.00    +0.000 A 
ATOM      6  C   UNL     1       2.215   4.087   2.667  0.00  0.00    +0.000 A 
ATOM      7  C   UNL     1       2.754   3.439   1.554  0.00  0.00    +0.000 A 
ENDBRANCH   1   2
BRANCH   1   8
ATOM      8  C   UNL     1       4.776   1.012   0.376  0.00  0.00    +0.000 C 
ATOM      9  C   UNL     1       5.182  -0.054   1.390  0.00  0.00    +0.000 C 
ATOM     10  O   UNL     1       5.347   1.336   1.665  0.00  0.00    +0.000 OA
BRANCH   8  11
ATOM     11  C   UNL     1       5.674   1.222  -0.832  0.00  0.00    +0.000 A 
ATOM     12  C   UNL     1       6.458   2.381  -0.962  0.00  0.00    +0.000 A 
ATOM     13  C   UNL     1       7.278   2.586  -2.075  0.00  0.00    +0.000 A 
ATOM     14  C   UNL     1       7.328   1.632  -3.086  0.00  0.00    +0.000 A 
ATOM     15  C   UNL     1       6.561   0.474  -2.983  0.00  0.00    +0.000 A 
ATOM     16  C   UNL     1       5.745   0.274  -1.867  0.00  0.00    +0.000 A 
ENDBRANCH   8  11
ENDBRANCH   1   8
BRANCH   1  18
ATOM     17  C   UNL     1       1.759   0.244  -1.489  0.00  0.00    +0.000 C 
ATOM     18  C   UNL     1       2.456   0.217  -0.344  0.00  0.00    +0.000 C 
ENDBRANCH   1  18
TORSDOF 4
