REMARK  Name = *****
REMARK  3 active torsions:
REMARK  status: ('A' for Active; 'I' for Inactive)
REMARK    1  A    between atoms: C_1  and  C_2
REMARK    2  A    between atoms: C_4  and  N_8
REMARK    3  A    between atoms: C_9  and  C_11
REMARK                            x       y       z     vdW  Elec       q    Type
REMARK                         _______ _______ _______ _____ _____    ______ ____
ROOT
ATOM      1  N   UNL     1      -1.661   2.578   0.061  0.00  0.00    +0.000 N 
ATOM      2  C   UNL     1      -1.108   3.813  -0.223  0.00  0.00    +0.000 C 
ATOM      3  O   UNL     1       0.031   4.042  -0.611  0.00  0.00    +0.000 OA
ATOM      4  H   UNL     1      -2.614   2.573   0.309  0.00  0.00    +0.000 HD
ENDROOT
BRANCH   2   5
ATOM      5  C   UNL     1      -2.035   4.970  -0.072  0.00  0.00    +0.000 A 
ATOM      6  C   UNL     1      -3.007   5.013   0.935  0.00  0.00    +0.000 A 
ATOM      7  C   UNL     1      -3.852   6.123   1.043  0.00  0.00    +0.000 A 
ATOM      8  C   UNL     1      -3.722   7.198   0.154  0.00  0.00    +0.000 A 
ATOM      9  C   UNL     1      -2.738   7.162  -0.838  0.00  0.00    +0.000 A 
ATOM     10  C   UNL     1      -1.894   6.055  -0.947  0.00  0.00    +0.000 A 
ATOM     11 CL   UNL     1      -4.736   8.594   0.232  0.00  0.00    +0.000 Cl
ATOM     12 CL   UNL     1      -5.036   6.104   2.302  0.00  0.00    +0.000 Cl
ENDBRANCH   2   5
BRANCH   1  16
ATOM     13  C   UNL     1       2.389  -0.311  -0.496  0.00  0.00    +0.000 C 
ATOM     14  C   UNL     1       0.922  -0.132  -0.234  0.00  0.00    +0.000 A 
ATOM     15  C   UNL     1       0.349   1.150  -0.220  0.00  0.00    +0.000 A 
ATOM     16  C   UNL     1      -1.014   1.323   0.036  0.00  0.00    +0.000 A 
ATOM     17  C   UNL     1      -1.802   0.194   0.296  0.00  0.00    +0.000 A 
ATOM     18  C   UNL     1      -1.238  -1.083   0.296  0.00  0.00    +0.000 A 
ATOM     19  C   UNL     1       0.120  -1.246   0.033  0.00  0.00    +0.000 A 
ENDBRANCH   1  16
TORSDOF 2
