REMARK  Name = *****
REMARK  3 active torsions:
REMARK  status: ('A' for Active; 'I' for Inactive)
REMARK    1  A    between atoms: C_4  and  N_7
REMARK    2  A    between atoms: C_8  and  C_9
REMARK    3  A    between atoms: C_12  and  C_15
REMARK                            x       y       z     vdW  Elec       q    Type
REMARK                         _______ _______ _______ _____ _____    ______ ____
ROOT
ATOM      1  C   UNL     1      -5.034  -0.172  -0.486  0.00  0.00    +0.000 A 
ATOM      2  C   UNL     1      -5.507   0.891  -1.258  0.00  0.00    +0.000 A 
ATOM      3  C   UNL     1      -6.877   1.020  -1.500  0.00  0.00    +0.000 A 
ATOM      4  C   UNL     1      -7.786   0.092  -0.968  0.00  0.00    +0.000 A 
ATOM      5  C   UNL     1      -7.295  -0.978  -0.201  0.00  0.00    +0.000 A 
ATOM      6  C   UNL     1      -5.924  -1.109   0.043  0.00  0.00    +0.000 A 
ENDROOT
BRANCH   4   7
ATOM      7  C   UNL     1      -9.264   0.219  -1.251  0.00  0.00    +0.000 C 
ATOM      8  F   UNL     1      -9.673   1.511  -1.388  0.00  0.00    +0.000 F 
ATOM      9  F   UNL     1      -9.627  -0.414  -2.400  0.00  0.00    +0.000 F 
ATOM     10  F   UNL     1     -10.043  -0.314  -0.268  0.00  0.00    +0.000 F 
ENDBRANCH   4   7
BRANCH   1  12
ATOM     11  N   UNL     1      -2.713   0.497  -0.693  0.00  0.00    +0.000 NA
ATOM     12  C   UNL     1      -3.591  -0.328  -0.217  0.00  0.00    +0.000 C 
BRANCH  11  16
ATOM     13  C   UNL     1       1.296  -0.278   0.298  0.00  0.00    +0.000 A 
ATOM     14  C   UNL     1       0.715  -0.912  -0.799  0.00  0.00    +0.000 A 
ATOM     15  C   UNL     1      -0.617  -0.655  -1.128  0.00  0.00    +0.000 A 
ATOM     16  C   UNL     1      -1.379   0.228  -0.358  0.00  0.00    +0.000 A 
ATOM     17  C   UNL     1      -0.785   0.872   0.730  0.00  0.00    +0.000 A 
ATOM     18  C   UNL     1       0.547   0.618   1.062  0.00  0.00    +0.000 A 
ENDBRANCH  11  16
ENDBRANCH   1  12
TORSDOF 3
