REMARK  Name = *****
REMARK  1 active torsions:
REMARK  status: ('A' for Active; 'I' for Inactive)
REMARK    1  A    between atoms: C_6  and  C_11
REMARK                            x       y       z     vdW  Elec       q    Type
REMARK                         _______ _______ _______ _____ _____    ______ ____
ROOT
ATOM      1  C   UNL     1      -2.486   0.025   0.077  0.00  0.00    +0.000 A 
ATOM      2  C   UNL     1      -1.889   1.223   0.121  0.00  0.00    +0.000 A 
ATOM      3  C   UNL     1      -0.481   1.550   0.091  0.00  0.00    +0.000 A 
ATOM      4  C   UNL     1       0.553   0.707  -0.002  0.00  0.00    +0.000 A 
ATOM      5  C   UNL     1       1.944   1.125  -0.033  0.00  0.00    +0.000 A 
ATOM      6  C   UNL     1       2.702   0.014  -0.142  0.00  0.00    +0.000 A 
ATOM      7  C   UNL     1       1.796  -1.138  -0.177  0.00  0.00    +0.000 A 
ATOM      8  C   UNL     1       0.510  -0.743  -0.093  0.00  0.00    +0.000 A 
ATOM      9  C   UNL     1      -0.612  -1.641  -0.088  0.00  0.00    +0.000 A 
ATOM     10  C   UNL     1      -1.905  -1.294  -0.012  0.00  0.00    +0.000 A 
ENDROOT
BRANCH   6  11
ATOM     11  C   UNL     1       4.127   0.059  -0.209  0.00  0.00    +0.000 A 
ATOM     12  C   UNL     1       5.000   1.093   0.104  0.00  0.00    +0.000 A 
ATOM     13  C   UNL     1       6.372   0.763  -0.099  0.00  0.00    +0.000 A 
ATOM     14  C   UNL     1       6.525  -0.519  -0.566  0.00  0.00    +0.000 A 
ATOM     15  S   UNL     1       5.027  -1.315  -0.749  0.00  0.00    +0.000 S 
ENDBRANCH   6  11
TORSDOF 1
