REMARK  Name = *****
REMARK  4 active torsions:
REMARK  status: ('A' for Active; 'I' for Inactive)
REMARK    1  A    between atoms: C_1  and  C_2
REMARK    2  A    between atoms: C_4  and  N_8
REMARK    3  A    between atoms: N_8  and  S_9
REMARK    4  A    between atoms: S_9  and  C_11
REMARK                            x       y       z     vdW  Elec       q    Type
REMARK                         _______ _______ _______ _____ _____    ______ ____
ROOT
ATOM      1  N   UNL     1      -1.399   2.874  -0.294  0.00  0.00    +0.000 N 
ATOM      2  H   UNL     1      -2.336   2.999  -0.569  0.00  0.00    +0.000 HD
ENDROOT
BRANCH   1   6
ATOM      3  C   UNL     1       2.392  -0.392  -0.261  0.00  0.00    +0.000 C 
ATOM      4  C   UNL     1       0.924  -0.088  -0.196  0.00  0.00    +0.000 A 
ATOM      5  C   UNL     1       0.475   1.242  -0.246  0.00  0.00    +0.000 A 
ATOM      6  C   UNL     1      -0.891   1.559  -0.214  0.00  0.00    +0.000 A 
ATOM      7  C   UNL     1      -1.806   0.493  -0.197  0.00  0.00    +0.000 A 
ATOM      8  C   UNL     1      -1.374  -0.835  -0.161  0.00  0.00    +0.000 A 
ATOM      9  C   UNL     1      -0.013  -1.125  -0.159  0.00  0.00    +0.000 A 
ENDBRANCH   1   6
BRANCH   1  10
ATOM     10  S   UNL     1      -0.483   4.229   0.055  0.00  0.00    +0.000 S 
ATOM     11  O   UNL     1       0.572   4.429  -0.991  0.00  0.00    +0.000 OA
BRANCH  10  12
ATOM     12  C   UNL     1      -1.827   5.373  -0.336  0.00  0.00    +0.000 A 
ATOM     13  C   UNL     1      -2.773   5.690   0.648  0.00  0.00    +0.000 A 
ATOM     14  C   UNL     1      -3.820   6.567   0.357  0.00  0.00    +0.000 A 
ATOM     15  C   UNL     1      -3.924   7.132  -0.914  0.00  0.00    +0.000 A 
ATOM     16  C   UNL     1      -2.982   6.823  -1.895  0.00  0.00    +0.000 A 
ATOM     17  C   UNL     1      -1.935   5.946  -1.607  0.00  0.00    +0.000 A 
ENDBRANCH  10  12
ENDBRANCH   1  10
TORSDOF 3
