REMARK  Name = *****
REMARK  4 active torsions:
REMARK  status: ('A' for Active; 'I' for Inactive)
REMARK    1  A    between atoms: C_1  and  C_2
REMARK    2  A    between atoms: C_7  and  C_8
REMARK    3  A    between atoms: C_8  and  C_9
REMARK    4  A    between atoms: C_9  and  C_10
REMARK                            x       y       z     vdW  Elec       q    Type
REMARK                         _______ _______ _______ _____ _____    ______ ____
ROOT
ATOM      1  C   UNL     1      -0.245  -1.360   2.248  0.00  0.00    +0.000 C 
ATOM      2  C   UNL     1      -0.239  -0.653   0.921  0.00  0.00    +0.000 A 
ATOM      3  C   UNL     1      -0.896   0.584   0.809  0.00  0.00    +0.000 A 
ATOM      4  C   UNL     1      -0.928   1.272  -0.404  0.00  0.00    +0.000 A 
ATOM      5  C   UNL     1      -0.307   0.731  -1.524  0.00  0.00    +0.000 A 
ATOM      6  C   UNL     1       0.343  -0.499  -1.432  0.00  0.00    +0.000 A 
ATOM      7  C   UNL     1       0.380  -1.208  -0.218  0.00  0.00    +0.000 A 
ENDROOT
BRANCH   7   8
ATOM      8  C   UNL     1       1.115  -2.532  -0.180  0.00  0.00    +0.000 C 
BRANCH   8   9
ATOM      9  C   UNL     1       2.611  -2.333   0.105  0.00  0.00    +0.000 C 
BRANCH   9  10
ATOM     10  C   UNL     1       3.431  -3.626   0.223  0.00  0.00    +0.000 C 
ATOM     11  C   UNL     1       3.346  -4.523  -0.987  0.00  0.00    +0.000 C 
ATOM     12  C   UNL     1       2.898  -5.736  -0.625  0.00  0.00    +0.000 C 
ATOM     13  C   UNL     1       2.659  -5.753   0.796  0.00  0.00    +0.000 C 
ATOM     14  C   UNL     1       2.958  -4.553   1.315  0.00  0.00    +0.000 C 
ENDBRANCH   9  10
ENDBRANCH   8   9
ENDBRANCH   7   8
TORSDOF 3
