REMARK  Name = *****
REMARK  1 active torsions:
REMARK  status: ('A' for Active; 'I' for Inactive)
REMARK    1  A    between atoms: C_1  and  N_2
REMARK                            x       y       z     vdW  Elec       q    Type
REMARK                         _______ _______ _______ _____ _____    ______ ____
ROOT
ATOM      1  C   UNL     1      -0.030  -0.283  -0.179  0.00  0.00    +0.000 C 
ATOM      2  N   UNL     1       0.581  -0.279   1.142  0.00  0.00    +0.000 N 
ATOM      3  C   UNL     1       0.502  -1.521   1.912  0.00  0.00    +0.000 A 
ATOM      4  C   UNL     1       0.764  -1.530   3.313  0.00  0.00    +0.000 A 
ATOM      5  C   UNL     1       0.671  -2.701   4.071  0.00  0.00    +0.000 A 
ATOM      6  C   UNL     1       0.298  -3.890   3.452  0.00  0.00    +0.000 A 
ATOM      7  C   UNL     1       0.010  -3.890   2.092  0.00  0.00    +0.000 A 
ATOM      8  C   UNL     1       0.097  -2.728   1.324  0.00  0.00    +0.000 A 
ATOM      9  F   UNL     1      -0.363  -5.034   1.503  0.00  0.00    +0.000 F 
ATOM     10  C   UNL     1       1.058  -0.293   3.955  0.00  0.00    +0.000 C 
ATOM     11  C   UNL     1       1.307   0.876   3.904  0.00  0.00    +0.000 C 
ATOM     12  C   UNL     1       1.584   2.013   3.099  0.00  0.00    +0.000 A 
ATOM     13  C   UNL     1       1.633   3.301   3.626  0.00  0.00    +0.000 A 
ATOM     14  C   UNL     1       1.939   4.374   2.785  0.00  0.00    +0.000 A 
ATOM     15  C   UNL     1       2.204   4.158   1.429  0.00  0.00    +0.000 A 
ATOM     16  C   UNL     1       2.155   2.867   0.899  0.00  0.00    +0.000 A 
ATOM     17  C   UNL     1       1.821   1.792   1.728  0.00  0.00    +0.000 A 
ATOM     18  C   UNL     1       1.818   0.411   1.147  0.00  0.00    +0.000 C 
ATOM     19  O   UNL     1       2.816   0.008   0.553  0.00  0.00    +0.000 OA
ENDROOT
TORSDOF 0
