REMARK  Name = *****
REMARK  3 active torsions:
REMARK  status: ('A' for Active; 'I' for Inactive)
REMARK    1  A    between atoms: C_1  and  C_2
REMARK    2  A    between atoms: C_7  and  C_8
REMARK    3  A    between atoms: C_10  and  C_12
REMARK                            x       y       z     vdW  Elec       q    Type
REMARK                         _______ _______ _______ _____ _____    ______ ____
ROOT
ATOM      1  C   UNL     1       1.028  -0.129   0.058  0.00  0.00    +0.000 C 
ATOM      2  C   UNL     1       2.534  -0.084   0.070  0.00  0.00    +0.000 A 
ATOM      3  C   UNL     1       3.246  -1.304   0.054  0.00  0.00    +0.000 A 
ATOM      4  C   UNL     1       4.645  -1.273   0.063  0.00  0.00    +0.000 A 
ATOM      5  C   UNL     1       5.284  -0.048   0.088  0.00  0.00    +0.000 A 
ATOM      6  C   UNL     1       4.639   1.181   0.104  0.00  0.00    +0.000 A 
ATOM      7  C   UNL     1       3.230   1.151   0.093  0.00  0.00    +0.000 A 
ATOM      8  C   UNL     1       2.484   2.461   0.109  0.00  0.00    +0.000 C 
ATOM      9  O   UNL     1       6.628  -0.277   0.092  0.00  0.00    +0.000 OA
ATOM     10  C   UNL     1       6.731  -1.647   0.068  0.00  0.00    +0.000 A 
ATOM     11  N   UNL     1       5.572  -2.284   0.050  0.00  0.00    +0.000 NA
ENDROOT
BRANCH  10  12
ATOM     12  C   UNL     1       8.083  -2.203   0.064  0.00  0.00    +0.000 A 
ATOM     13  C   UNL     1       9.224  -1.386   0.095  0.00  0.00    +0.000 A 
ATOM     14  C   UNL     1      10.505  -1.947   0.089  0.00  0.00    +0.000 A 
ATOM     15  C   UNL     1      10.661  -3.330   0.052  0.00  0.00    +0.000 A 
ATOM     16  C   UNL     1       9.539  -4.156   0.021  0.00  0.00    +0.000 A 
ATOM     17  C   UNL     1       8.260  -3.595   0.027  0.00  0.00    +0.000 A 
ENDBRANCH  10  12
TORSDOF 1
