REMARK  Name = *****
REMARK  2 active torsions:
REMARK  status: ('A' for Active; 'I' for Inactive)
REMARK    1  A    between atoms: C_4  and  C_7
REMARK    2  A    between atoms: C_8  and  C_9
REMARK                            x       y       z     vdW  Elec       q    Type
REMARK                         _______ _______ _______ _____ _____    ______ ____
ROOT
ATOM      1  C   UNL     1       5.544   0.333  -0.520  0.00  0.00    +0.000 A 
ATOM      2  C   UNL     1       6.322  -0.824  -0.597  0.00  0.00    +0.000 A 
ATOM      3  C   UNL     1       7.705  -0.738  -0.729  0.00  0.00    +0.000 A 
ATOM      4  C   UNL     1       8.323   0.503  -0.786  0.00  0.00    +0.000 A 
ATOM      5  C   UNL     1       7.560   1.660  -0.711  0.00  0.00    +0.000 A 
ATOM      6  C   UNL     1       6.177   1.576  -0.579  0.00  0.00    +0.000 A 
ATOM      7  F   UNL     1       5.456   2.706  -0.508  0.00  0.00    +0.000 F 
ATOM      8  F   UNL     1       8.154   2.860  -0.767  0.00  0.00    +0.000 F 
ATOM      9  F   UNL     1       9.654   0.585  -0.915  0.00  0.00    +0.000 F 
ATOM     10  F   UNL     1       8.441  -1.856  -0.802  0.00  0.00    +0.000 F 
ATOM     11  F   UNL     1       5.744  -2.033  -0.543  0.00  0.00    +0.000 F 
ENDROOT
BRANCH   1  13
ATOM     12  C   UNL     1       2.929   0.174  -0.277  0.00  0.00    +0.000 C 
ATOM     13  C   UNL     1       4.123   0.246  -0.387  0.00  0.00    +0.000 C 
BRANCH  12  17
ATOM     14  C   UNL     1      -1.270  -0.075   0.094  0.00  0.00    +0.000 A 
ATOM     15  C   UNL     1      -0.648   1.172   0.032  0.00  0.00    +0.000 A 
ATOM     16  C   UNL     1       0.740   1.255  -0.090  0.00  0.00    +0.000 A 
ATOM     17  C   UNL     1       1.507   0.089  -0.150  0.00  0.00    +0.000 A 
ATOM     18  C   UNL     1       0.883  -1.159  -0.088  0.00  0.00    +0.000 A 
ATOM     19  C   UNL     1      -0.505  -1.240   0.034  0.00  0.00    +0.000 A 
ENDBRANCH  12  17
ENDBRANCH   1  13
TORSDOF 2
