REMARK  Name = *****
REMARK  3 active torsions:
REMARK  status: ('A' for Active; 'I' for Inactive)
REMARK    1  A    between atoms: C_5  and  O_8
REMARK    2  A    between atoms: O_8  and  O_9
REMARK    3  A    between atoms: O_9  and  C_10
REMARK                            x       y       z     vdW  Elec       q    Type
REMARK                         _______ _______ _______ _____ _____    ______ ____
ROOT
ATOM      1  O   UNL     1      -1.507  -1.427  -1.289  0.00  0.00    +0.000 OA
ENDROOT
BRANCH   1   6
ATOM      2  C   UNL     1       1.796   0.103   0.183  0.00  0.00    +0.000 C 
ATOM      3  C   UNL     1       0.986   1.388   0.055  0.00  0.00    +0.000 C 
ATOM      4  C   UNL     1      -0.174   1.334  -0.933  0.00  0.00    +0.000 C 
ATOM      5  C   UNL     1      -1.458   0.795  -0.300  0.00  0.00    +0.000 C 
ATOM      6  C   UNL     1      -1.488  -0.714  -0.045  0.00  0.00    +0.000 C 
ATOM      7  C   UNL     1      -0.320  -1.240   0.798  0.00  0.00    +0.000 C 
ATOM      8  C   UNL     1       1.037  -1.217   0.094  0.00  0.00    +0.000 C 
ENDBRANCH   1   6
BRANCH   1   9
ATOM      9  O   UNL     1      -2.886  -1.380  -1.768  0.00  0.00    +0.000 OA
BRANCH   9  10
ATOM     10  C   UNL     1      -2.808  -1.039  -3.155  0.00  0.00    +0.000 C 
ATOM     11  C   UNL     1      -4.136  -0.398  -3.558  0.00  0.00    +0.000 C 
ATOM     12  C   UNL     1      -4.195  -0.115  -5.055  0.00  0.00    +0.000 C 
ATOM     13  C   UNL     1      -3.914  -1.372  -5.875  0.00  0.00    +0.000 C 
ATOM     14  C   UNL     1      -2.593  -2.024  -5.474  0.00  0.00    +0.000 C 
ATOM     15  C   UNL     1      -2.536  -2.302  -3.975  0.00  0.00    +0.000 C 
ENDBRANCH   9  10
ENDBRANCH   1   9
TORSDOF 3
