REMARK  Name = *****
REMARK  5 active torsions:
REMARK  status: ('A' for Active; 'I' for Inactive)
REMARK    1  A    between atoms: C_1  and  C_2
REMARK    2  A    between atoms: C_4  and  C_16
REMARK    3  A    between atoms: C_6  and  S_8
REMARK    4  A    between atoms: S_8  and  C_9
REMARK    5  A    between atoms: C_9  and  C_10
REMARK                            x       y       z     vdW  Elec       q    Type
REMARK                         _______ _______ _______ _____ _____    ______ ____
ROOT
ATOM      1  C   UNL     1       2.545   1.134   0.249  0.00  0.00    +0.000 C 
ATOM      2  C   UNL     1       1.282   0.332   0.132  0.00  0.00    +0.000 A 
ATOM      3  C   UNL     1       0.055   0.971  -0.086  0.00  0.00    +0.000 A 
ATOM      4  C   UNL     1      -1.136   0.237  -0.142  0.00  0.00    +0.000 A 
ATOM      5  C   UNL     1      -1.087  -1.156   0.000  0.00  0.00    +0.000 A 
ATOM      6  C   UNL     1       0.130  -1.808   0.219  0.00  0.00    +0.000 A 
ATOM      7  C   UNL     1       1.307  -1.058   0.304  0.00  0.00    +0.000 A 
ATOM      8  C   UNL     1      -2.442   0.926  -0.408  0.00  0.00    +0.000 C 
ENDROOT
BRANCH   6   9
ATOM      9  S   UNL     1       0.140  -3.581   0.420  0.00  0.00    +0.000 S 
BRANCH   9  10
ATOM     10  C   UNL     1       1.230  -4.039  -0.968  0.00  0.00    +0.000 C 
BRANCH  10  11
ATOM     11  C   UNL     1       1.294  -5.535  -1.150  0.00  0.00    +0.000 A 
ATOM     12  C   UNL     1       0.405  -6.185  -2.019  0.00  0.00    +0.000 A 
ATOM     13  C   UNL     1       0.459  -7.570  -2.181  0.00  0.00    +0.000 A 
ATOM     14  C   UNL     1       1.396  -8.320  -1.472  0.00  0.00    +0.000 A 
ATOM     15  C   UNL     1       2.277  -7.687  -0.598  0.00  0.00    +0.000 A 
ATOM     16  C   UNL     1       2.226  -6.302  -0.435  0.00  0.00    +0.000 A 
ENDBRANCH  10  11
ENDBRANCH   9  10
ENDBRANCH   6   9
TORSDOF 3
