REMARK  Name = *****
REMARK  3 active torsions:
REMARK  status: ('A' for Active; 'I' for Inactive)
REMARK    1  A    between atoms: C_1  and  C_2
REMARK    2  A    between atoms: C_5  and  N_8
REMARK    3  A    between atoms: C_9  and  C_10
REMARK                            x       y       z     vdW  Elec       q    Type
REMARK                         _______ _______ _______ _____ _____    ______ ____
ROOT
ATOM      1  N   UNL     1      -3.259   0.106   0.303  0.00  0.00    +0.000 NA
ATOM      2  C   UNL     1      -3.902   0.757  -0.616  0.00  0.00    +0.000 C 
ENDROOT
BRANCH   1   7
ATOM      3  C   UNL     1       2.438   0.047  -0.128  0.00  0.00    +0.000 C 
ATOM      4  C   UNL     1       0.941   0.080  -0.043  0.00  0.00    +0.000 A 
ATOM      5  C   UNL     1       0.293   1.112   0.647  0.00  0.00    +0.000 A 
ATOM      6  C   UNL     1      -1.100   1.121   0.757  0.00  0.00    +0.000 A 
ATOM      7  C   UNL     1      -1.863   0.103   0.182  0.00  0.00    +0.000 A 
ATOM      8  C   UNL     1      -1.216  -0.943  -0.478  0.00  0.00    +0.000 A 
ATOM      9  C   UNL     1       0.176  -0.957  -0.591  0.00  0.00    +0.000 A 
ENDBRANCH   1   7
BRANCH   2  10
ATOM     10  C   UNL     1      -5.374   0.850  -0.624  0.00  0.00    +0.000 A 
ATOM     11  C   UNL     1      -6.138   0.225   0.367  0.00  0.00    +0.000 A 
ATOM     12  C   UNL     1      -7.529   0.328   0.337  0.00  0.00    +0.000 A 
ATOM     13  C   UNL     1      -8.154   1.053  -0.678  0.00  0.00    +0.000 A 
ATOM     14  C   UNL     1      -7.391   1.677  -1.666  0.00  0.00    +0.000 A 
ATOM     15  C   UNL     1      -5.999   1.577  -1.641  0.00  0.00    +0.000 A 
ENDBRANCH   2  10
TORSDOF 2
