REMARK  Name = *****
REMARK  4 active torsions:
REMARK  status: ('A' for Active; 'I' for Inactive)
REMARK    1  A    between atoms: C_1  and  C_2
REMARK    2  A    between atoms: C_7  and  C_8
REMARK    3  A    between atoms: C_8  and  S_10
REMARK    4  A    between atoms: S_10  and  C_11
REMARK                            x       y       z     vdW  Elec       q    Type
REMARK                         _______ _______ _______ _____ _____    ______ ____
ROOT
ATOM      1  C   UNL     1       1.510  -2.006   0.581  0.00  0.00    +0.000 C 
ATOM      2  O   UNL     1       1.277  -2.717   1.550  0.00  0.00    +0.000 OA
ENDROOT
BRANCH   1   9
ATOM      3  C   UNL     1       2.198   0.930   0.744  0.00  0.00    +0.000 C 
ATOM      4  C   UNL     1       0.872   0.423   0.252  0.00  0.00    +0.000 A 
ATOM      5  C   UNL     1      -0.093   1.349  -0.175  0.00  0.00    +0.000 A 
ATOM      6  C   UNL     1      -1.348   0.923  -0.619  0.00  0.00    +0.000 A 
ATOM      7  C   UNL     1      -1.660  -0.434  -0.644  0.00  0.00    +0.000 A 
ATOM      8  C   UNL     1      -0.710  -1.370  -0.241  0.00  0.00    +0.000 A 
ATOM      9  C   UNL     1       0.558  -0.948   0.183  0.00  0.00    +0.000 A 
ENDBRANCH   1   9
BRANCH   1  10
ATOM     10  S   UNL     1       2.889  -2.220  -0.490  0.00  0.00    +0.000 S 
BRANCH  10  11
ATOM     11  C   UNL     1       3.937  -3.313   0.447  0.00  0.00    +0.000 A 
ATOM     12  C   UNL     1       4.329  -4.534  -0.115  0.00  0.00    +0.000 A 
ATOM     13  C   UNL     1       5.179  -5.396   0.585  0.00  0.00    +0.000 A 
ATOM     14  C   UNL     1       5.644  -5.032   1.846  0.00  0.00    +0.000 A 
ATOM     15  C   UNL     1       5.271  -3.816   2.413  0.00  0.00    +0.000 A 
ATOM     16  C   UNL     1       4.422  -2.955   1.711  0.00  0.00    +0.000 A 
ATOM     17 BR   UNL     1       6.794  -6.196   2.794  0.00  0.00    +0.000 Br
ENDBRANCH  10  11
ENDBRANCH   1  10
TORSDOF 3
