REMARK  Name = *****
REMARK  4 active torsions:
REMARK  status: ('A' for Active; 'I' for Inactive)
REMARK    1  A    between atoms: C_4  and  C_7
REMARK    2  A    between atoms: C_7  and  O_8
REMARK    3  A    between atoms: O_8  and  C_9
REMARK    4  A    between atoms: C_9  and  C_11
REMARK                            x       y       z     vdW  Elec       q    Type
REMARK                         _______ _______ _______ _____ _____    ______ ____
ROOT
ATOM      1  C   UNL     1      -4.790  -0.656  -0.510  0.00  0.00    +0.000 C 
ATOM      2  O   UNL     1      -5.325   0.431  -0.654  0.00  0.00    +0.000 OA
ENDROOT
BRANCH   1   3
ATOM      3  C   UNL     1      -5.549  -1.935  -0.447  0.00  0.00    +0.000 A 
ATOM      4  C   UNL     1      -4.928  -3.162  -0.177  0.00  0.00    +0.000 A 
ATOM      5  C   UNL     1      -5.694  -4.323  -0.130  0.00  0.00    +0.000 A 
ATOM      6  C   UNL     1      -7.067  -4.277  -0.346  0.00  0.00    +0.000 A 
ATOM      7  C   UNL     1      -7.696  -3.066  -0.612  0.00  0.00    +0.000 A 
ATOM      8  C   UNL     1      -6.937  -1.893  -0.662  0.00  0.00    +0.000 A 
ATOM      9  F   UNL     1      -7.795  -5.400  -0.300  0.00  0.00    +0.000 F 
ATOM     10  F   UNL     1      -5.093  -5.492   0.128  0.00  0.00    +0.000 F 
ENDBRANCH   1   3
BRANCH   1  11
ATOM     11  O   UNL     1      -3.463  -0.892  -0.396  0.00  0.00    +0.000 OA
BRANCH  11  12
ATOM     12  C   UNL     1      -2.622   0.268  -0.386  0.00  0.00    +0.000 C 
BRANCH  12  16
ATOM     13  C   UNL     1      -1.659   1.214   3.707  0.00  0.00    +0.000 A 
ATOM     14  C   UNL     1      -0.930   0.240   3.027  0.00  0.00    +0.000 A 
ATOM     15  C   UNL     1      -1.237  -0.064   1.700  0.00  0.00    +0.000 A 
ATOM     16  C   UNL     1      -2.272   0.611   1.038  0.00  0.00    +0.000 A 
ATOM     17  C   UNL     1      -3.007   1.579   1.736  0.00  0.00    +0.000 A 
ATOM     18  C   UNL     1      -2.699   1.882   3.063  0.00  0.00    +0.000 A 
ENDBRANCH  12  16
ENDBRANCH  11  12
ENDBRANCH   1  11
TORSDOF 4
