REMARK  Name = *****
REMARK  2 active torsions:
REMARK  status: ('A' for Active; 'I' for Inactive)
REMARK    1  A    between atoms: C_7  and  C_8
REMARK    2  A    between atoms: C_9  and  C_10
REMARK                            x       y       z     vdW  Elec       q    Type
REMARK                         _______ _______ _______ _____ _____    ______ ____
ROOT
ATOM      1  C   UNL     1       2.790  -0.616  -0.260  0.00  0.00    +0.000 C 
ATOM      2  C   UNL     1       3.848  -0.755  -0.811  0.00  0.00    +0.000 C 
ENDROOT
BRANCH   1   9
ATOM      3  C   UNL     1      -1.316   0.359   0.640  0.00  0.00    +0.000 C 
ATOM      4  C   UNL     1      -0.919  -1.116   0.474  0.00  0.00    +0.000 C 
ATOM      5  C   UNL     1       0.332  -1.038  -0.421  0.00  0.00    +0.000 C 
ATOM      6  C   UNL     1      -0.040   0.119  -1.354  0.00  0.00    +0.000 C 
ATOM      7  C   UNL     1      -0.263   1.098  -0.204  0.00  0.00    +0.000 C 
ATOM      8  C   UNL     1       1.093   1.044   0.525  0.00  0.00    +0.000 C 
ATOM      9  C   UNL     1       1.492  -0.443   0.413  0.00  0.00    +0.000 C 
ENDBRANCH   1   9
BRANCH   2  10
ATOM     10  C   UNL     1       5.107  -0.916  -1.472  0.00  0.00    +0.000 A 
ATOM     11  C   UNL     1       5.979   0.169  -1.589  0.00  0.00    +0.000 A 
ATOM     12  C   UNL     1       7.206   0.013  -2.236  0.00  0.00    +0.000 A 
ATOM     13  C   UNL     1       7.562  -1.227  -2.767  0.00  0.00    +0.000 A 
ATOM     14  C   UNL     1       6.693  -2.311  -2.651  0.00  0.00    +0.000 A 
ATOM     15  C   UNL     1       5.465  -2.156  -2.004  0.00  0.00    +0.000 A 
ENDBRANCH   2  10
TORSDOF 2
