REMARK  Name = *****
REMARK  3 active torsions:
REMARK  status: ('A' for Active; 'I' for Inactive)
REMARK    1  A    between atoms: C_4  and  O_8
REMARK    2  A    between atoms: O_8  and  C_9
REMARK    3  A    between atoms: C_9  and  C_11
REMARK                            x       y       z     vdW  Elec       q    Type
REMARK                         _______ _______ _______ _____ _____    ______ ____
ROOT
ATOM      1  O   UNL     1       1.717  -2.269   0.601  0.00  0.00    +0.000 OA
ENDROOT
BRANCH   1   5
ATOM      2  C   UNL     1       1.808   0.639   1.289  0.00  0.00    +0.000 C 
ATOM      3  C   UNL     1       3.174   0.517   1.968  0.00  0.00    +0.000 C 
ATOM      4  C   UNL     1       3.417  -1.005   1.876  0.00  0.00    +0.000 C 
ATOM      5  C   UNL     1       2.824  -1.362   0.479  0.00  0.00    +0.000 C 
ATOM      6  C   UNL     1       2.296   0.007  -0.021  0.00  0.00    +0.000 C 
ATOM      7  C   UNL     1       3.489   0.898  -0.280  0.00  0.00    +0.000 C 
ATOM      8  C   UNL     1       4.022   1.196   0.915  0.00  0.00    +0.000 C 
ENDBRANCH   1   5
BRANCH   1   9
ATOM      9  C   UNL     1       2.053  -3.566   0.815  0.00  0.00    +0.000 C 
ATOM     10  O   UNL     1       3.188  -4.004   0.910  0.00  0.00    +0.000 OA
BRANCH   9  11
ATOM     11  C   UNL     1       0.833  -4.410   0.933  0.00  0.00    +0.000 A 
ATOM     12  C   UNL     1       0.998  -5.781   1.169  0.00  0.00    +0.000 A 
ATOM     13  C   UNL     1      -0.116  -6.615   1.290  0.00  0.00    +0.000 A 
ATOM     14  C   UNL     1      -1.399  -6.084   1.176  0.00  0.00    +0.000 A 
ATOM     15  C   UNL     1      -1.573  -4.720   0.941  0.00  0.00    +0.000 A 
ATOM     16  C   UNL     1      -0.462  -3.882   0.819  0.00  0.00    +0.000 A 
ENDBRANCH   9  11
ENDBRANCH   1   9
TORSDOF 3
