REMARK  Name = *****
REMARK  4 active torsions:
REMARK  status: ('A' for Active; 'I' for Inactive)
REMARK    1  A    between atoms: C_4  and  C_7
REMARK    2  A    between atoms: C_7  and  O_9
REMARK    3  A    between atoms: O_9  and  C_10
REMARK    4  A    between atoms: C_10  and  C_11
REMARK                            x       y       z     vdW  Elec       q    Type
REMARK                         _______ _______ _______ _____ _____    ______ ____
ROOT
ATOM      1  O   UNL     1      -3.732  -0.471  -0.171  0.00  0.00    +0.000 OA
ENDROOT
BRANCH   1   2
ATOM      2  C   UNL     1      -2.924   0.570  -0.485  0.00  0.00    +0.000 C 
ATOM      3  O   UNL     1      -3.283   1.662  -0.898  0.00  0.00    +0.000 OA
BRANCH   2   7
ATOM      4  C   UNL     1       1.214  -0.363   0.149  0.00  0.00    +0.000 A 
ATOM      5  C   UNL     1       0.251  -1.343   0.387  0.00  0.00    +0.000 A 
ATOM      6  C   UNL     1      -1.102  -1.060   0.187  0.00  0.00    +0.000 A 
ATOM      7  C   UNL     1      -1.498   0.211  -0.253  0.00  0.00    +0.000 A 
ATOM      8  C   UNL     1      -0.523   1.190  -0.492  0.00  0.00    +0.000 A 
ATOM      9  C   UNL     1       0.829   0.902  -0.291  0.00  0.00    +0.000 A 
ENDBRANCH   2   7
ENDBRANCH   1   2
BRANCH   1  10
ATOM     10  C   UNL     1      -5.132  -0.256  -0.386  0.00  0.00    +0.000 C 
BRANCH  10  11
ATOM     11  C   UNL     1      -5.527  -0.842  -1.717  0.00  0.00    +0.000 A 
ATOM     12  C   UNL     1      -5.804  -2.212  -1.838  0.00  0.00    +0.000 A 
ATOM     13  C   UNL     1      -6.145  -2.750  -3.079  0.00  0.00    +0.000 A 
ATOM     14  C   UNL     1      -6.206  -1.939  -4.210  0.00  0.00    +0.000 A 
ATOM     15  C   UNL     1      -5.918  -0.579  -4.101  0.00  0.00    +0.000 A 
ATOM     16  C   UNL     1      -5.577  -0.034  -2.862  0.00  0.00    +0.000 A 
ATOM     17 CL   UNL     1      -6.488  -4.431  -3.214  0.00  0.00    +0.000 Cl
ENDBRANCH  10  11
ENDBRANCH   1  10
TORSDOF 4
