REMARK  Name = *****
REMARK  4 active torsions:
REMARK  status: ('A' for Active; 'I' for Inactive)
REMARK    1  A    between atoms: C_4  and  C_7
REMARK    2  A    between atoms: C_7  and  C_8
REMARK    3  A    between atoms: C_8  and  C_9
REMARK    4  A    between atoms: C_14  and  C_15
REMARK                            x       y       z     vdW  Elec       q    Type
REMARK                         _______ _______ _______ _____ _____    ______ ____
ROOT
ATOM      1  C   UNL     1      -3.569  -0.308   0.242  0.00  0.00    +0.000 C 
ENDROOT
BRANCH   1   2
ATOM      2  C   UNL     1      -5.022  -0.235  -0.178  0.00  0.00    +0.000 A 
ATOM      3  C   UNL     1      -5.677  -1.439  -0.501  0.00  0.00    +0.000 A 
ATOM      4  C   UNL     1      -7.012  -1.447  -0.901  0.00  0.00    +0.000 A 
ATOM      5  C   UNL     1      -7.716  -0.253  -0.985  0.00  0.00    +0.000 A 
ATOM      6  C   UNL     1      -7.083   0.950  -0.676  0.00  0.00    +0.000 A 
ATOM      7  C   UNL     1      -5.731   0.982  -0.281  0.00  0.00    +0.000 A 
BRANCH   7   8
ATOM      8  C   UNL     1      -5.117   2.319   0.044  0.00  0.00    +0.000 C 
ATOM      9 CL   UNL     1      -5.321   2.705   1.764  0.00  0.00    +0.000 Cl
ENDBRANCH   7   8
ENDBRANCH   1   2
BRANCH   1  10
ATOM     10  C   UNL     1      -2.627  -0.223  -0.963  0.00  0.00    +0.000 C 
BRANCH  10  14
ATOM     11  C   UNL     1       1.497  -0.356   0.288  0.00  0.00    +0.000 A 
ATOM     12  C   UNL     1       0.827  -1.535  -0.033  0.00  0.00    +0.000 A 
ATOM     13  C   UNL     1      -0.506  -1.493  -0.444  0.00  0.00    +0.000 A 
ATOM     14  C   UNL     1      -1.180  -0.268  -0.541  0.00  0.00    +0.000 A 
ATOM     15  C   UNL     1      -0.499   0.911  -0.209  0.00  0.00    +0.000 A 
ATOM     16  C   UNL     1       0.834   0.866   0.201  0.00  0.00    +0.000 A 
ENDBRANCH  10  14
ENDBRANCH   1  10
TORSDOF 4
