REMARK  Name = *****
REMARK  6 active torsions:
REMARK  status: ('A' for Active; 'I' for Inactive)
REMARK    1  A    between atoms: C_1  and  C_2
REMARK    2  A    between atoms: C_3  and  C_16
REMARK    3  A    between atoms: C_7  and  S_8
REMARK    4  A    between atoms: S_8  and  C_9
REMARK    5  A    between atoms: C_9  and  C_10
REMARK    6  A    between atoms: C_16  and  C_17
REMARK                            x       y       z     vdW  Elec       q    Type
REMARK                         _______ _______ _______ _____ _____    ______ ____
ROOT
ATOM      1  C   UNL     1       2.797   1.109  -1.204  0.00  0.00    +0.000 C 
ATOM      2  C   UNL     1       1.515   0.769  -0.476  0.00  0.00    +0.000 C 
ATOM      3  C   UNL     1       0.474   1.634  -0.367  0.00  0.00    +0.000 C 
ATOM      4  C   UNL     1      -0.724   1.326   0.513  0.00  0.00    +0.000 C 
ATOM      5  C   UNL     1      -0.458   0.228   1.538  0.00  0.00    +0.000 C 
ATOM      6  C   UNL     1       0.161  -0.978   0.852  0.00  0.00    +0.000 C 
ATOM      7  C   UNL     1       1.501  -0.608   0.198  0.00  0.00    +0.000 C 
ENDROOT
BRANCH   7   8
ATOM      8  S   UNL     1       1.900  -1.919  -1.032  0.00  0.00    +0.000 S 
BRANCH   8   9
ATOM      9  C   UNL     1       3.156  -2.856  -0.108  0.00  0.00    +0.000 C 
BRANCH   9  10
ATOM     10  C   UNL     1       2.628  -3.557   1.117  0.00  0.00    +0.000 A 
ATOM     11  C   UNL     1       1.707  -4.610   1.000  0.00  0.00    +0.000 A 
ATOM     12  C   UNL     1       1.222  -5.259   2.136  0.00  0.00    +0.000 A 
ATOM     13  C   UNL     1       1.655  -4.868   3.401  0.00  0.00    +0.000 A 
ATOM     14  C   UNL     1       2.573  -3.829   3.532  0.00  0.00    +0.000 A 
ATOM     15  C   UNL     1       3.059  -3.178   2.397  0.00  0.00    +0.000 A 
ENDBRANCH   9  10
ENDBRANCH   8   9
ENDBRANCH   7   8
BRANCH   3  16
ATOM     16  C   UNL     1       0.392   2.983  -1.055  0.00  0.00    +0.000 C 
BRANCH  16  17
ATOM     17  C   UNL     1      -0.608   3.034  -2.199  0.00  0.00    +0.000 C 
ATOM     18  O   UNL     1      -1.572   2.290  -2.350  0.00  0.00    +0.000 OA
ENDBRANCH  16  17
ENDBRANCH   3  16
TORSDOF 5
