REMARK  Name = *****
REMARK  6 active torsions:
REMARK  status: ('A' for Active; 'I' for Inactive)
REMARK    1  A    between atoms: C_1  and  C_2
REMARK    2  A    between atoms: C_2  and  N_3
REMARK    3  A    between atoms: N_3  and  C_4
REMARK    4  A    between atoms: C_7  and  C_10
REMARK    5  A    between atoms: C_11  and  C_13
REMARK    6  A    between atoms: C_16  and  C_19
REMARK                            x       y       z     vdW  Elec       q    Type
REMARK                         _______ _______ _______ _____ _____    ______ ____
ROOT
ATOM      1  N   UNL     1       3.275   1.176  -1.117  0.00  0.00    +0.000 N 
ATOM      2  C   UNL     1       4.620   0.969  -1.497  0.00  0.00    +0.000 C 
ATOM      3  O   UNL     1       5.170   1.413  -2.503  0.00  0.00    +0.000 OA
ENDROOT
BRANCH   1   4
ATOM      4  C   UNL     1       2.310   1.700  -2.062  0.00  0.00    +0.000 A 
ATOM      5  C   UNL     1       2.504   1.576  -3.446  0.00  0.00    +0.000 A 
ATOM      6  C   UNL     1       1.565   2.056  -4.370  0.00  0.00    +0.000 A 
ATOM      7  C   UNL     1       0.386   2.662  -3.937  0.00  0.00    +0.000 A 
ATOM      8  C   UNL     1       0.175   2.797  -2.565  0.00  0.00    +0.000 A 
ATOM      9  C   UNL     1       1.117   2.314  -1.645  0.00  0.00    +0.000 A 
ATOM     10  C   UNL     1      -0.599   3.212  -4.923  0.00  0.00    +0.000 C 
ENDBRANCH   1   4
BRANCH   2  11
ATOM     11  C   UNL     1       5.489   0.164  -0.611  0.00  0.00    +0.000 A 
ATOM     12  C   UNL     1       5.235  -1.199  -0.430  0.00  0.00    +0.000 A 
ATOM     13  C   UNL     1       6.079  -1.956   0.385  0.00  0.00    +0.000 A 
ATOM     14  C   UNL     1       7.180  -1.358   1.014  0.00  0.00    +0.000 A 
ATOM     15  C   UNL     1       7.448  -0.000   0.789  0.00  0.00    +0.000 A 
ATOM     16  C   UNL     1       6.608   0.760  -0.026  0.00  0.00    +0.000 A 
ATOM     17  C   UNL     1       8.109  -2.182   1.857  0.00  0.00    +0.000 C 
ENDBRANCH   2  11
BRANCH   1  19
ATOM     18  C   UNL     1       3.211   2.279   1.117  0.00  0.00    +0.000 C 
ATOM     19  C   UNL     1       2.871   1.042   0.295  0.00  0.00    +0.000 C 
ENDBRANCH   1  19
TORSDOF 3
