REMARK  Name = *****
REMARK  5 active torsions:
REMARK  status: ('A' for Active; 'I' for Inactive)
REMARK    1  A    between atoms: C_4  and  O_7
REMARK    2  A    between atoms: O_7  and  C_8
REMARK    3  A    between atoms: C_8  and  C_9
REMARK    4  A    between atoms: C_12  and  C_15
REMARK    5  A    between atoms: C_15  and  C_16
REMARK                            x       y       z     vdW  Elec       q    Type
REMARK                         _______ _______ _______ _____ _____    ______ ____
ROOT
ATOM      1  C   UNL     1      -5.027  -0.142  -0.354  0.00  0.00    +0.000 A 
ATOM      2  C   UNL     1      -6.042  -1.077  -0.596  0.00  0.00    +0.000 A 
ATOM      3  C   UNL     1      -7.366  -0.663  -0.757  0.00  0.00    +0.000 A 
ATOM      4  C   UNL     1      -7.698   0.696  -0.688  0.00  0.00    +0.000 A 
ATOM      5  C   UNL     1      -6.683   1.632  -0.454  0.00  0.00    +0.000 A 
ATOM      6  C   UNL     1      -5.359   1.217  -0.296  0.00  0.00    +0.000 A 
ENDROOT
BRANCH   1   7
ATOM      7  C   UNL     1      -3.596  -0.595  -0.200  0.00  0.00    +0.000 C 
BRANCH   7   8
ATOM      8  O   UNL     1      -3.048  -0.780  -1.502  0.00  0.00    +0.000 OA
BRANCH   8  12
ATOM      9  C   UNL     1       0.866  -2.105  -2.023  0.00  0.00    +0.000 A 
ATOM     10  C   UNL     1       0.394  -1.937  -0.723  0.00  0.00    +0.000 A 
ATOM     11  C   UNL     1      -0.913  -1.493  -0.498  0.00  0.00    +0.000 A 
ATOM     12  C   UNL     1      -1.754  -1.216  -1.577  0.00  0.00    +0.000 A 
ATOM     13  C   UNL     1      -1.273  -1.387  -2.878  0.00  0.00    +0.000 A 
ATOM     14  C   UNL     1       0.032  -1.829  -3.103  0.00  0.00    +0.000 A 
ENDBRANCH   8  12
ENDBRANCH   7   8
ENDBRANCH   1   7
BRANCH   4  15
ATOM     15  C   UNL     1      -9.132   1.141  -0.843  0.00  0.00    +0.000 C 
BRANCH  15  16
ATOM     16  C   UNL     1      -9.899   1.010   0.466  0.00  0.00    +0.000 C 
ATOM     17 CL   UNL     1     -11.583   1.553   0.259  0.00  0.00    +0.000 Cl
ENDBRANCH  15  16
ENDBRANCH   4  15
TORSDOF 5
