REMARK  Name = *****
REMARK  4 active torsions:
REMARK  status: ('A' for Active; 'I' for Inactive)
REMARK    1  A    between atoms: C_4  and  O_7
REMARK    2  A    between atoms: O_7  and  C_8
REMARK    3  A    between atoms: C_8  and  C_10
REMARK    4  A    between atoms: C_12  and  C_16
REMARK                            x       y       z     vdW  Elec       q    Type
REMARK                         _______ _______ _______ _____ _____    ______ ____
ROOT
ATOM      1  C   UNL     1      -5.068  -0.441  -0.401  0.00  0.00    +0.000 A 
ATOM      2  C   UNL     1      -5.439   0.400  -1.454  0.00  0.00    +0.000 A 
ATOM      3  C   UNL     1      -6.784   0.683  -1.711  0.00  0.00    +0.000 A 
ATOM      4  C   UNL     1      -7.771   0.102  -0.899  0.00  0.00    +0.000 A 
ATOM      5  C   UNL     1      -7.414  -0.749   0.146  0.00  0.00    +0.000 A 
ATOM      6  C   UNL     1      -6.068  -1.022   0.393  0.00  0.00    +0.000 A 
ATOM      7  F   UNL     1      -4.514   0.938  -2.262  0.00  0.00    +0.000 F 
ENDROOT
BRANCH   3   8
ATOM      8  C   UNL     1      -7.130   1.596  -2.850  0.00  0.00    +0.000 C 
ATOM      9  F   UNL     1      -6.593   2.838  -2.714  0.00  0.00    +0.000 F 
ATOM     10  F   UNL     1      -6.709   1.123  -4.054  0.00  0.00    +0.000 F 
ATOM     11  F   UNL     1      -8.474   1.792  -2.985  0.00  0.00    +0.000 F 
ENDBRANCH   3   8
BRANCH   1  12
ATOM     12  C   UNL     1      -3.657  -0.771  -0.088  0.00  0.00    +0.000 C 
ATOM     13  O   UNL     1      -3.349  -1.752   0.573  0.00  0.00    +0.000 OA
BRANCH  12  14
ATOM     14  O   UNL     1      -2.817   0.209  -0.577  0.00  0.00    +0.000 OA
BRANCH  14  18
ATOM     15  C   UNL     1       1.306  -0.118   0.015  0.00  0.00    +0.000 A 
ATOM     16  C   UNL     1       0.617  -1.185  -0.566  0.00  0.00    +0.000 A 
ATOM     17  C   UNL     1      -0.762  -1.103  -0.762  0.00  0.00    +0.000 A 
ATOM     18  C   UNL     1      -1.442   0.044  -0.354  0.00  0.00    +0.000 A 
ATOM     19  C   UNL     1      -0.759   1.123   0.207  0.00  0.00    +0.000 A 
ATOM     20  C   UNL     1       0.619   1.036   0.398  0.00  0.00    +0.000 A 
ENDBRANCH  14  18
ENDBRANCH  12  14
ENDBRANCH   1  12
TORSDOF 4
