REMARK  Name = *****
REMARK  4 active torsions:
REMARK  status: ('A' for Active; 'I' for Inactive)
REMARK    1  A    between atoms: C_1  and  C_2
REMARK    2  A    between atoms: C_4  and  C_8
REMARK    3  A    between atoms: C_5  and  C_7
REMARK    4  A    between atoms: C_9  and  C_10
REMARK                            x       y       z     vdW  Elec       q    Type
REMARK                         _______ _______ _______ _____ _____    ______ ____
ROOT
ATOM      1  C   UNL     1      -1.510   2.469   0.146  0.00  0.00    +0.000 C 
ATOM      2  C   UNL     1      -1.104   3.748   0.224  0.00  0.00    +0.000 C 
ENDROOT
BRANCH   1   6
ATOM      3  C   UNL     1       2.394  -0.780  -0.028  0.00  0.00    +0.000 C 
ATOM      4  C   UNL     1       1.107  -0.058  -0.005  0.00  0.00    +0.000 A 
ATOM      5  C   UNL     1       0.766   1.273   0.107  0.00  0.00    +0.000 A 
ATOM      6  C   UNL     1      -0.652   1.330   0.065  0.00  0.00    +0.000 A 
ATOM      7  C   UNL     1      -1.083   0.023  -0.071  0.00  0.00    +0.000 A 
ATOM      8  O   UNL     1      -0.013  -0.822  -0.113  0.00  0.00    +0.000 OA
ATOM      9  C   UNL     1      -2.412  -0.616  -0.173  0.00  0.00    +0.000 C 
ENDBRANCH   1   6
BRANCH   2  10
ATOM     10  C   UNL     1      -2.025   4.890   0.298  0.00  0.00    +0.000 A 
ATOM     11  C   UNL     1      -3.152   4.884   1.130  0.00  0.00    +0.000 A 
ATOM     12  C   UNL     1      -3.990   6.000   1.197  0.00  0.00    +0.000 A 
ATOM     13  C   UNL     1      -3.703   7.136   0.442  0.00  0.00    +0.000 A 
ATOM     14  C   UNL     1      -2.575   7.159  -0.376  0.00  0.00    +0.000 A 
ATOM     15  C   UNL     1      -1.737   6.043  -0.443  0.00  0.00    +0.000 A 
ENDBRANCH   2  10
TORSDOF 2
