REMARK  Name = *****
REMARK  5 active torsions:
REMARK  status: ('A' for Active; 'I' for Inactive)
REMARK    1  A    between atoms: C_1  and  C_2
REMARK    2  A    between atoms: C_5  and  C_8
REMARK    3  A    between atoms: C_8  and  O_9
REMARK    4  A    between atoms: O_9  and  C_10
REMARK    5  A    between atoms: C_11  and  C_17
REMARK                            x       y       z     vdW  Elec       q    Type
REMARK                         _______ _______ _______ _____ _____    ______ ____
ROOT
ATOM      1  O   UNL     1      -3.880   1.181   0.042  0.00  0.00    +0.000 OA
ENDROOT
BRANCH   1   2
ATOM      2  C   UNL     1      -5.238   1.317  -0.070  0.00  0.00    +0.000 A 
ATOM      3  C   UNL     1      -5.808   2.349   0.701  0.00  0.00    +0.000 A 
ATOM      4  C   UNL     1      -7.194   2.566   0.651  0.00  0.00    +0.000 A 
ATOM      5  C   UNL     1      -8.001   1.766  -0.154  0.00  0.00    +0.000 A 
ATOM      6  C   UNL     1      -7.440   0.746  -0.916  0.00  0.00    +0.000 A 
ATOM      7  C   UNL     1      -6.060   0.521  -0.875  0.00  0.00    +0.000 A 
ATOM      8 CL   UNL     1      -9.698   2.039  -0.209  0.00  0.00    +0.000 Cl
ATOM      9  C   UNL     1      -4.947   3.221   1.573  0.00  0.00    +0.000 C 
ENDBRANCH   1   2
BRANCH   1  10
ATOM     10  C   UNL     1      -3.252   0.145  -0.709  0.00  0.00    +0.000 C 
BRANCH  10  15
ATOM     11  C   UNL     1       2.445   0.228   0.518  0.00  0.00    +0.000 C 
ATOM     12  C   UNL     1       0.982   0.178   0.193  0.00  0.00    +0.000 A 
ATOM     13  C   UNL     1       0.047  -0.166   1.176  0.00  0.00    +0.000 A 
ATOM     14  C   UNL     1      -1.318  -0.177   0.881  0.00  0.00    +0.000 A 
ATOM     15  C   UNL     1      -1.775   0.164  -0.399  0.00  0.00    +0.000 A 
ATOM     16  C   UNL     1      -0.839   0.528  -1.376  0.00  0.00    +0.000 A 
ATOM     17  C   UNL     1       0.526   0.539  -1.080  0.00  0.00    +0.000 A 
ENDBRANCH  10  15
ENDBRANCH   1  10
TORSDOF 3
