REMARK  Name = *****
REMARK  3 active torsions:
REMARK  status: ('A' for Active; 'I' for Inactive)
REMARK    1  A    between atoms: C_1  and  C_2
REMARK    2  A    between atoms: C_5  and  C_8
REMARK    3  A    between atoms: N_10  and  C_11
REMARK                            x       y       z     vdW  Elec       q    Type
REMARK                         _______ _______ _______ _____ _____    ______ ____
ROOT
ATOM      1  C   UNL     1       1.486  -2.416   0.134  0.00  0.00    +0.000 C 
ATOM      2  O   UNL     1       2.533  -1.983   0.607  0.00  0.00    +0.000 OA
ATOM      3  N   UNL     1       1.280  -3.725  -0.256  0.00  0.00    +0.000 N 
ATOM      4  H   UNL     1       0.383  -3.939  -0.599  0.00  0.00    +0.000 HD
ENDROOT
BRANCH   1   9
ATOM      5  C   UNL     1      -2.704   1.632  -0.230  0.00  0.00    +0.000 C 
ATOM      6  C   UNL     1      -1.658   0.559  -0.157  0.00  0.00    +0.000 A 
ATOM      7  C   UNL     1      -1.793  -0.635  -0.872  0.00  0.00    +0.000 A 
ATOM      8  C   UNL     1      -0.805  -1.635  -0.814  0.00  0.00    +0.000 A 
ATOM      9  C   UNL     1       0.340  -1.455  -0.022  0.00  0.00    +0.000 A 
ATOM     10  C   UNL     1       0.461  -0.246   0.694  0.00  0.00    +0.000 A 
ATOM     11  C   UNL     1      -0.521   0.746   0.629  0.00  0.00    +0.000 A 
ATOM     12 CL   UNL     1      -1.106  -3.032  -1.792  0.00  0.00    +0.000 Cl
ENDBRANCH   1   9
BRANCH   3  13
ATOM     13  C   UNL     1       2.204  -4.792  -0.219  0.00  0.00    +0.000 A 
ATOM     14  C   UNL     1       3.478  -4.707   0.341  0.00  0.00    +0.000 A 
ATOM     15  C   UNL     1       4.323  -5.815   0.314  0.00  0.00    +0.000 A 
ATOM     16  C   UNL     1       3.925  -7.013  -0.264  0.00  0.00    +0.000 A 
ATOM     17  C   UNL     1       2.654  -7.112  -0.821  0.00  0.00    +0.000 A 
ATOM     18  C   UNL     1       1.797  -6.007  -0.794  0.00  0.00    +0.000 A 
ATOM     19  F   UNL     1       5.545  -5.725   0.857  0.00  0.00    +0.000 F 
ENDBRANCH   3  13
TORSDOF 2
