REMARK  Name = *****
REMARK  4 active torsions:
REMARK  status: ('A' for Active; 'I' for Inactive)
REMARK    1  A    between atoms: C_1  and  C_2
REMARK    2  A    between atoms: C_4  and  O_8
REMARK    3  A    between atoms: O_8  and  C_9
REMARK    4  A    between atoms: C_9  and  C_11
REMARK                            x       y       z     vdW  Elec       q    Type
REMARK                         _______ _______ _______ _____ _____    ______ ____
ROOT
ATOM      1  C   UNL     1      -1.276   3.591  -0.610  0.00  0.00    +0.000 C 
ATOM      2  O   UNL     1      -0.316   3.613  -1.365  0.00  0.00    +0.000 OA
ENDROOT
BRANCH   1   3
ATOM      3  C   UNL     1      -2.131   4.784  -0.354  0.00  0.00    +0.000 A 
ATOM      4  C   UNL     1      -3.248   4.746   0.492  0.00  0.00    +0.000 A 
ATOM      5  C   UNL     1      -4.006   5.901   0.686  0.00  0.00    +0.000 A 
ATOM      6  C   UNL     1      -3.667   7.093   0.048  0.00  0.00    +0.000 A 
ATOM      7  C   UNL     1      -2.557   7.136  -0.794  0.00  0.00    +0.000 A 
ATOM      8  C   UNL     1      -1.792   5.985  -0.995  0.00  0.00    +0.000 A 
ATOM      9 CL   UNL     1      -5.379   5.853   1.724  0.00  0.00    +0.000 Cl
ENDBRANCH   1   3
BRANCH   1  10
ATOM     10  O   UNL     1      -1.745   2.516   0.122  0.00  0.00    +0.000 OA
BRANCH  10  14
ATOM     11  C   UNL     1       2.426  -0.104   0.668  0.00  0.00    +0.000 C 
ATOM     12  C   UNL     1       0.984   0.005   0.272  0.00  0.00    +0.000 A 
ATOM     13  C   UNL     1       0.318   1.234   0.359  0.00  0.00    +0.000 A 
ATOM     14  C   UNL     1      -1.028   1.317  -0.001  0.00  0.00    +0.000 A 
ATOM     15  C   UNL     1      -1.739   0.188  -0.400  0.00  0.00    +0.000 A 
ATOM     16  C   UNL     1      -1.084  -1.040  -0.470  0.00  0.00    +0.000 A 
ATOM     17  C   UNL     1       0.270  -1.131  -0.134  0.00  0.00    +0.000 A 
ENDBRANCH  10  14
ENDBRANCH   1  10
TORSDOF 3
