REMARK  Name = *****
REMARK  4 active torsions:
REMARK  status: ('A' for Active; 'I' for Inactive)
REMARK    1  A    between atoms: C_2  and  O_3
REMARK    2  A    between atoms: O_3  and  C_4
REMARK    3  A    between atoms: C_9  and  C_10
REMARK    4  A    between atoms: C_11  and  C_12
REMARK                            x       y       z     vdW  Elec       q    Type
REMARK                         _______ _______ _______ _____ _____    ______ ____
ROOT
ATOM      1  C   UNL     1       4.555   0.322   1.242  0.00  0.00    +0.000 A 
ATOM      2  C   UNL     1       4.134  -0.080   2.517  0.00  0.00    +0.000 A 
ATOM      3  C   UNL     1       4.724   0.474   3.654  0.00  0.00    +0.000 A 
ATOM      4  C   UNL     1       5.743   1.417   3.521  0.00  0.00    +0.000 A 
ATOM      5  C   UNL     1       6.181   1.801   2.252  0.00  0.00    +0.000 A 
ATOM      6  C   UNL     1       5.595   1.251   1.106  0.00  0.00    +0.000 A 
ENDROOT
BRANCH   6   7
ATOM      7  C   UNL     1       6.073   1.656  -0.183  0.00  0.00    +0.000 C 
ATOM      8  C   UNL     1       6.473   1.994  -1.263  0.00  0.00    +0.000 C 
BRANCH   8   9
ATOM      9  C   UNL     1       6.947   2.393  -2.553  0.00  0.00    +0.000 A 
ATOM     10  C   UNL     1       8.127   3.132  -2.668  0.00  0.00    +0.000 A 
ATOM     11  C   UNL     1       8.588   3.520  -3.927  0.00  0.00    +0.000 A 
ATOM     12  C   UNL     1       7.871   3.170  -5.072  0.00  0.00    +0.000 A 
ATOM     13  C   UNL     1       6.693   2.432  -4.958  0.00  0.00    +0.000 A 
ATOM     14  C   UNL     1       6.230   2.043  -3.699  0.00  0.00    +0.000 A 
ENDBRANCH   8   9
ENDBRANCH   6   7
BRANCH   1  15
ATOM     15  O   UNL     1       4.013  -0.249   0.113  0.00  0.00    +0.000 OA
BRANCH  15  17
ATOM     16  C   UNL     1       1.522   0.170  -0.097  0.00  0.00    +0.000 C 
ATOM     17  C   UNL     1       2.703  -0.024   0.012  0.00  0.00    +0.000 C 
ENDBRANCH  15  17
ENDBRANCH   1  15
TORSDOF 4
