REMARK  Name = *****
REMARK  2 active torsions:
REMARK  status: ('A' for Active; 'I' for Inactive)
REMARK    1  A    between atoms: C_4  and  C_6
REMARK    2  A    between atoms: C_7  and  C_8
REMARK                            x       y       z     vdW  Elec       q    Type
REMARK                         _______ _______ _______ _____ _____    ______ ____
ROOT
ATOM      1  C   UNL     1      -0.122  -2.678  -0.094  0.00  0.00    +0.000 C 
ATOM      2  C   UNL     1       0.792  -3.662  -0.044  0.00  0.00    +0.000 C 
ENDROOT
BRANCH   1   6
ATOM      3  C   UNL     1       1.372   0.758   0.084  0.00  0.00    +0.000 A 
ATOM      4  C   UNL     1       0.069   1.187  -0.005  0.00  0.00    +0.000 A 
ATOM      5  S   UNL     1      -1.027  -0.116  -0.111  0.00  0.00    +0.000 S 
ATOM      6  C   UNL     1       0.236  -1.296  -0.040  0.00  0.00    +0.000 A 
ATOM      7  C   UNL     1       1.466  -0.665   0.064  0.00  0.00    +0.000 A 
ENDBRANCH   1   6
BRANCH   2   8
ATOM      8  C   UNL     1       0.437  -5.044  -0.101  0.00  0.00    +0.000 A 
ATOM      9  C   UNL     1      -0.796  -5.672  -0.208  0.00  0.00    +0.000 A 
ATOM     10  C   UNL     1      -0.707  -7.095  -0.234  0.00  0.00    +0.000 A 
ATOM     11  C   UNL     1       0.594  -7.529  -0.144  0.00  0.00    +0.000 A 
ATOM     12  S   UNL     1       1.694  -6.230  -0.031  0.00  0.00    +0.000 S 
ENDBRANCH   2   8
TORSDOF 2
