REMARK  Name = *****
REMARK  6 active torsions:
REMARK  status: ('A' for Active; 'I' for Inactive)
REMARK    1  A    between atoms: C_1  and  C_2
REMARK    2  A    between atoms: C_5  and  S_8
REMARK    3  A    between atoms: S_8  and  N_10
REMARK    4  A    between atoms: N_10  and  C_11
REMARK    5  A    between atoms: N_10  and  C_12
REMARK    6  A    between atoms: C_16  and  C_18
REMARK                            x       y       z     vdW  Elec       q    Type
REMARK                         _______ _______ _______ _____ _____    ______ ____
ROOT
ATOM      1  S   UNL     1      -3.704   0.442   1.620  0.00  0.00    +0.000 S 
ATOM      2  O   UNL     1      -3.357   0.725   3.054  0.00  0.00    +0.000 OA
ENDROOT
BRANCH   1   7
ATOM      3  C   UNL     1       1.740  -0.285  -1.137  0.00  0.00    +0.000 C 
ATOM      4  C   UNL     1       0.406  -0.129  -0.469  0.00  0.00    +0.000 A 
ATOM      5  C   UNL     1      -0.750   0.077  -1.231  0.00  0.00    +0.000 A 
ATOM      6  C   UNL     1      -1.988   0.254  -0.607  0.00  0.00    +0.000 A 
ATOM      7  C   UNL     1      -2.088   0.250   0.790  0.00  0.00    +0.000 A 
ATOM      8  C   UNL     1      -0.929   0.050   1.550  0.00  0.00    +0.000 A 
ATOM      9  C   UNL     1       0.309  -0.128   0.927  0.00  0.00    +0.000 A 
ENDBRANCH   1   7
BRANCH   1  10
ATOM     10  N   UNL     1      -4.082   1.891   0.813  0.00  0.00    +0.000 N 
ATOM     11  C   UNL     1      -3.596   3.103   1.475  0.00  0.00    +0.000 C 
BRANCH  10  12
ATOM     12  C   UNL     1      -5.315   1.974   0.112  0.00  0.00    +0.000 A 
ATOM     13  C   UNL     1      -6.069   3.159   0.035  0.00  0.00    +0.000 A 
ATOM     14  C   UNL     1      -7.278   3.223  -0.668  0.00  0.00    +0.000 A 
ATOM     15  C   UNL     1      -7.765   2.103  -1.331  0.00  0.00    +0.000 A 
ATOM     16  C   UNL     1      -7.039   0.914  -1.308  0.00  0.00    +0.000 A 
ATOM     17  C   UNL     1      -5.834   0.860  -0.584  0.00  0.00    +0.000 A 
ATOM     18  C   UNL     1      -7.560  -0.313  -1.998  0.00  0.00    +0.000 C 
ENDBRANCH  10  12
ENDBRANCH   1  10
TORSDOF 3
