REMARK  Name = *****
REMARK  4 active torsions:
REMARK  status: ('A' for Active; 'I' for Inactive)
REMARK    1  A    between atoms: C_1  and  C_2
REMARK    2  A    between atoms: C_6  and  O_7
REMARK    3  A    between atoms: O_7  and  C_8
REMARK    4  A    between atoms: C_8  and  C_10
REMARK                            x       y       z     vdW  Elec       q    Type
REMARK                         _______ _______ _______ _____ _____    ______ ____
ROOT
ATOM      1  C   UNL     1      -0.186  -3.406  -0.651  0.00  0.00    +0.000 C 
ATOM      2  O   UNL     1       0.545  -3.811   0.240  0.00  0.00    +0.000 OA
ENDROOT
BRANCH   1   3
ATOM      3  C   UNL     1      -0.776  -4.285  -1.696  0.00  0.00    +0.000 A 
ATOM      4  C   UNL     1      -0.486  -5.656  -1.648  0.00  0.00    +0.000 A 
ATOM      5  C   UNL     1      -1.019  -6.523  -2.604  0.00  0.00    +0.000 A 
ATOM      6  C   UNL     1      -1.844  -6.026  -3.613  0.00  0.00    +0.000 A 
ATOM      7  C   UNL     1      -2.137  -4.664  -3.668  0.00  0.00    +0.000 A 
ATOM      8  C   UNL     1      -1.605  -3.793  -2.713  0.00  0.00    +0.000 A 
ENDBRANCH   1   3
BRANCH   1   9
ATOM      9  O   UNL     1      -0.577  -2.122  -0.835  0.00  0.00    +0.000 OA
BRANCH   9  15
ATOM     10  C   UNL     1      -2.272   0.194  -0.059  0.00  0.00    +0.000 C 
ATOM     11  C   UNL     1      -0.787   0.117  -0.018  0.00  0.00    +0.000 C 
ATOM     12  C   UNL     1       0.070   1.146  -0.044  0.00  0.00    +0.000 C 
ATOM     13  C   UNL     1       1.485   0.688   0.076  0.00  0.00    +0.000 C 
ATOM     14  C   UNL     1       1.380  -0.815  -0.172  0.00  0.00    +0.000 C 
ATOM     15  C   UNL     1      -0.074  -1.198   0.130  0.00  0.00    +0.000 C 
ENDBRANCH   9  15
ENDBRANCH   1   9
TORSDOF 3
