REMARK  Name = *****
REMARK  3 active torsions:
REMARK  status: ('A' for Active; 'I' for Inactive)
REMARK    1  A    between atoms: N_2  and  C_3
REMARK    2  A    between atoms: C_8  and  C_9
REMARK    3  A    between atoms: C_10  and  C_11
REMARK                            x       y       z     vdW  Elec       q    Type
REMARK                         _______ _______ _______ _____ _____    ______ ____
ROOT
ATOM      1  C   UNL     1      -0.618   2.457   0.129  0.00  0.00    +0.000 C 
ATOM      2  C   UNL     1      -1.902   2.613  -0.228  0.00  0.00    +0.000 C 
ENDROOT
BRANCH   2   3
ATOM      3  C   UNL     1      -2.612   3.893  -0.133  0.00  0.00    +0.000 A 
ATOM      4  C   UNL     1      -2.049   5.090  -0.600  0.00  0.00    +0.000 A 
ATOM      5  C   UNL     1      -2.766   6.286  -0.518  0.00  0.00    +0.000 A 
ATOM      6  C   UNL     1      -4.046   6.283   0.023  0.00  0.00    +0.000 A 
ATOM      7  C   UNL     1      -4.626   5.106   0.480  0.00  0.00    +0.000 A 
ATOM      8  C   UNL     1      -3.911   3.909   0.397  0.00  0.00    +0.000 A 
ATOM      9  F   UNL     1      -4.732   7.431   0.100  0.00  0.00    +0.000 F 
ENDBRANCH   2   3
BRANCH   1  15
ATOM     10  C   UNL     1      -0.317   0.011   0.726  0.00  0.00    +0.000 A 
ATOM     11  C   UNL     1       0.397  -1.187   0.611  0.00  0.00    +0.000 A 
ATOM     12  C   UNL     1       1.530  -1.237  -0.197  0.00  0.00    +0.000 A 
ATOM     13  C   UNL     1       1.946  -0.095  -0.880  0.00  0.00    +0.000 A 
ATOM     14  C   UNL     1       1.228   1.100  -0.760  0.00  0.00    +0.000 A 
ATOM     15  C   UNL     1       0.078   1.168   0.039  0.00  0.00    +0.000 A 
BRANCH  10  17
ATOM     16  C   UNL     1      -2.355  -0.009   2.282  0.00  0.00    +0.000 C 
ATOM     17  N   UNL     1      -1.425   0.018   1.567  0.00  0.00    +0.000 NA
ENDBRANCH  10  17
ENDBRANCH   1  15
TORSDOF 3
