REMARK  Name = *****
REMARK  1 active torsions:
REMARK  status: ('A' for Active; 'I' for Inactive)
REMARK    1  A    between atoms: C_2  and  C_11
REMARK                            x       y       z     vdW  Elec       q    Type
REMARK                         _______ _______ _______ _____ _____    ______ ____
ROOT
ATOM      1  C   UNL     1      -1.206   1.417   0.236  0.00  0.00    +0.000 C 
ATOM      2  C   UNL     1      -2.484   0.703  -0.228  0.00  0.00    +0.000 C 
ATOM      3  S   UNL     1      -2.631  -0.899   0.631  0.00  0.00    +0.000 S 
ATOM      4  C   UNL     1      -1.131  -1.647  -0.038  0.00  0.00    +0.000 C 
ATOM      5  C   UNL     1       0.103  -0.776  -0.025  0.00  0.00    +0.000 A 
ATOM      6  C   UNL     1       1.348  -1.420  -0.166  0.00  0.00    +0.000 A 
ATOM      7  C   UNL     1       2.539  -0.696  -0.201  0.00  0.00    +0.000 A 
ATOM      8  C   UNL     1       2.508   0.689  -0.100  0.00  0.00    +0.000 A 
ATOM      9  C   UNL     1       1.286   1.347   0.029  0.00  0.00    +0.000 A 
ATOM     10  C   UNL     1       0.075   0.630   0.051  0.00  0.00    +0.000 A 
ENDROOT
BRANCH   2  11
ATOM     11  C   UNL     1      -3.725   1.557  -0.033  0.00  0.00    +0.000 A 
ATOM     12  C   UNL     1      -4.518   1.897  -1.142  0.00  0.00    +0.000 A 
ATOM     13  C   UNL     1      -5.656   2.692  -0.990  0.00  0.00    +0.000 A 
ATOM     14  C   UNL     1      -6.021   3.157   0.272  0.00  0.00    +0.000 A 
ATOM     15  C   UNL     1      -5.249   2.825   1.383  0.00  0.00    +0.000 A 
ATOM     16  C   UNL     1      -4.111   2.031   1.233  0.00  0.00    +0.000 A 
ENDBRANCH   2  11
TORSDOF 1
