REMARK  Name = *****
REMARK  3 active torsions:
REMARK  status: ('A' for Active; 'I' for Inactive)
REMARK    1  A    between atoms: C_5  and  S_7
REMARK    2  A    between atoms: S_7  and  C_8
REMARK    3  A    between atoms: C_8  and  C_9
REMARK                            x       y       z     vdW  Elec       q    Type
REMARK                         _______ _______ _______ _____ _____    ______ ____
ROOT
ATOM      1  C   UNL     1      -3.757  -2.542  -0.036  0.00  0.00    +0.000 C 
ENDROOT
BRANCH   1   2
ATOM      2  C   UNL     1      -4.513  -3.849   0.040  0.00  0.00    +0.000 A 
ATOM      3  C   UNL     1      -5.009  -4.509  -1.100  0.00  0.00    +0.000 A 
ATOM      4  C   UNL     1      -5.685  -5.725  -0.981  0.00  0.00    +0.000 A 
ATOM      5  C   UNL     1      -5.862  -6.290   0.274  0.00  0.00    +0.000 A 
ATOM      6  C   UNL     1      -5.375  -5.667   1.415  0.00  0.00    +0.000 A 
ATOM      7  C   UNL     1      -4.700  -4.452   1.300  0.00  0.00    +0.000 A 
ATOM      8  F   UNL     1      -6.510  -7.457   0.387  0.00  0.00    +0.000 F 
ATOM      9 CL   UNL     1      -4.816  -3.860  -2.690  0.00  0.00    +0.000 Cl
ENDBRANCH   1   2
BRANCH   1  10
ATOM     10  S   UNL     1      -1.966  -2.829  -0.223  0.00  0.00    +0.000 S 
BRANCH  10  15
ATOM     11  C   UNL     1      -1.364   1.252  -0.195  0.00  0.00    +0.000 A 
ATOM     12  C   UNL     1       0.023   1.320  -0.284  0.00  0.00    +0.000 A 
ATOM     13  C   UNL     1       0.756   0.144  -0.352  0.00  0.00    +0.000 A 
ATOM     14  C   UNL     1       0.127  -1.097  -0.332  0.00  0.00    +0.000 A 
ATOM     15  C   UNL     1      -1.268  -1.182  -0.241  0.00  0.00    +0.000 A 
ATOM     16  C   UNL     1      -2.006   0.008  -0.175  0.00  0.00    +0.000 A 
ATOM     17  F   UNL     1       2.092   0.205  -0.439  0.00  0.00    +0.000 F 
ENDBRANCH  10  15
ENDBRANCH   1  10
TORSDOF 3
