REMARK  Name = *****
REMARK  4 active torsions:
REMARK  status: ('A' for Active; 'I' for Inactive)
REMARK    1  A    between atoms: C_1  and  O_2
REMARK    2  A    between atoms: O_2  and  C_3
REMARK    3  A    between atoms: C_6  and  C_9
REMARK    4  A    between atoms: C_10  and  C_11
REMARK                            x       y       z     vdW  Elec       q    Type
REMARK                         _______ _______ _______ _____ _____    ______ ____
ROOT
ATOM      1  C   UNL     1       5.752  -3.640   8.659  0.00  0.00    +0.000 C 
ATOM      2  C   UNL     1       5.876  -3.943   7.503  0.00  0.00    +0.000 C 
ENDROOT
BRANCH   2   3
ATOM      3  C   UNL     1       6.028  -4.314   6.090  0.00  0.00    +0.000 C 
ATOM      4  C   UNL     1       7.472  -4.089   5.546  0.00  0.00    +0.000 C 
ATOM      5  C   UNL     1       7.832  -5.470   4.950  0.00  0.00    +0.000 C 
ATOM      6  C   UNL     1       6.470  -5.945   4.432  0.00  0.00    +0.000 C 
ATOM      7  C   UNL     1       5.797  -5.823   5.806  0.00  0.00    +0.000 C 
ATOM      8  C   UNL     1       6.776  -6.659   6.607  0.00  0.00    +0.000 C 
ATOM      9  C   UNL     1       7.997  -6.440   6.096  0.00  0.00    +0.000 C 
ENDBRANCH   2   3
BRANCH   1  13
ATOM     10  C   UNL     1       5.347  -2.586  12.741  0.00  0.00    +0.000 A 
ATOM     11  C   UNL     1       6.030  -3.749  12.379  0.00  0.00    +0.000 A 
ATOM     12  C   UNL     1       6.162  -4.096  11.029  0.00  0.00    +0.000 A 
ATOM     13  C   UNL     1       5.612  -3.283  10.036  0.00  0.00    +0.000 A 
ATOM     14  C   UNL     1       4.929  -2.121  10.393  0.00  0.00    +0.000 A 
ATOM     15  C   UNL     1       4.799  -1.777  11.741  0.00  0.00    +0.000 A 
BRANCH  10  17
ATOM     16  C   UNL     1       5.701  -2.913  15.068  0.00  0.00    +0.000 C 
ATOM     17  O   UNL     1       5.148  -2.133  14.015  0.00  0.00    +0.000 OA
ENDBRANCH  10  17
ENDBRANCH   1  13
TORSDOF 3
