REMARK  Name = *****
REMARK  2 active torsions:
REMARK  status: ('A' for Active; 'I' for Inactive)
REMARK    1  A    between atoms: C_4  and  S_7
REMARK    2  A    between atoms: S_7  and  C_8
REMARK                            x       y       z     vdW  Elec       q    Type
REMARK                         _______ _______ _______ _____ _____    ______ ____
ROOT
ATOM      1  S   UNL     1      -0.074   0.908   2.580  0.00  0.00    +0.000 S 
ENDROOT
BRANCH   1   5
ATOM      2  C   UNL     1       3.651   1.155   1.061  0.00  0.00    +0.000 C 
ATOM      3  C   UNL     1       2.951   2.333   1.719  0.00  0.00    +0.000 C 
ATOM      4  S   UNL     1       1.454   2.854   0.835  0.00  0.00    +0.000 S 
ATOM      5  C   UNL     1       0.474   1.331   0.904  0.00  0.00    +0.000 C 
ATOM      6  S   UNL     1       1.330  -0.063   0.111  0.00  0.00    +0.000 S 
ATOM      7  C   UNL     1       2.849  -0.137   1.102  0.00  0.00    +0.000 C 
ENDBRANCH   1   5
BRANCH   1   8
ATOM      8  C   UNL     1      -1.440   2.088   2.758  0.00  0.00    +0.000 C 
ATOM      9  S   UNL     1      -2.941   1.583   1.876  0.00  0.00    +0.000 S 
ATOM     10  C   UNL     1      -3.427   0.126   2.843  0.00  0.00    +0.000 C 
ATOM     11  C   UNL     1      -3.686   0.444   4.308  0.00  0.00    +0.000 C 
ATOM     12  C   UNL     1      -2.443   0.873   5.072  0.00  0.00    +0.000 C 
ATOM     13  S   UNL     1      -1.773   2.462   4.506  0.00  0.00    +0.000 S 
ENDBRANCH   1   8
TORSDOF 2
