REMARK  Name = *****
REMARK  3 active torsions:
REMARK  status: ('A' for Active; 'I' for Inactive)
REMARK    1  A    between atoms: C_4  and  C_8
REMARK    2  A    between atoms: C_8  and  O_10
REMARK    3  A    between atoms: O_10  and  C_11
REMARK                            x       y       z     vdW  Elec       q    Type
REMARK                         _______ _______ _______ _____ _____    ______ ____
ROOT
ATOM      1  C   UNL     1      -0.303   1.996  -0.417  0.00  0.00    +0.000 C 
ATOM      2  O   UNL     1       0.273   2.841   0.246  0.00  0.00    +0.000 OA
ENDROOT
BRANCH   1   6
ATOM      3  C   UNL     1      -0.237  -2.149   0.546  0.00  0.00    +0.000 A 
ATOM      4  C   UNL     1      -1.240  -1.328   1.063  0.00  0.00    +0.000 A 
ATOM      5  C   UNL     1      -1.268   0.033   0.745  0.00  0.00    +0.000 A 
ATOM      6  C   UNL     1      -0.289   0.569  -0.096  0.00  0.00    +0.000 A 
ATOM      7  C   UNL     1       0.717  -0.251  -0.616  0.00  0.00    +0.000 A 
ATOM      8  C   UNL     1       0.740  -1.611  -0.294  0.00  0.00    +0.000 A 
ATOM      9 CL   UNL     1       1.946   0.351  -1.670  0.00  0.00    +0.000 Cl
ATOM     10 CL   UNL     1      -2.541   0.993   1.408  0.00  0.00    +0.000 Cl
ENDBRANCH   1   6
BRANCH   1  11
ATOM     11  O   UNL     1      -1.061   2.137  -1.560  0.00  0.00    +0.000 OA
BRANCH  11  12
ATOM     12  C   UNL     1      -1.133   3.464  -1.983  0.00  0.00    +0.000 A 
ATOM     13  C   UNL     1      -0.288   3.885  -3.011  0.00  0.00    +0.000 A 
ATOM     14  C   UNL     1      -0.387   5.196  -3.473  0.00  0.00    +0.000 A 
ATOM     15  C   UNL     1      -1.331   6.053  -2.912  0.00  0.00    +0.000 A 
ATOM     16  C   UNL     1      -2.184   5.624  -1.899  0.00  0.00    +0.000 A 
ATOM     17  C   UNL     1      -2.093   4.314  -1.431  0.00  0.00    +0.000 A 
ATOM     18  F   UNL     1      -1.424   7.312  -3.362  0.00  0.00    +0.000 F 
ENDBRANCH  11  12
ENDBRANCH   1  11
TORSDOF 3
