REMARK  Name = *****
REMARK  4 active torsions:
REMARK  status: ('A' for Active; 'I' for Inactive)
REMARK    1  A    between atoms: C_1  and  C_2
REMARK    2  A    between atoms: C_2  and  C_4
REMARK    3  A    between atoms: C_5  and  C_9
REMARK    4  A    between atoms: C_10  and  C_11
REMARK                            x       y       z     vdW  Elec       q    Type
REMARK                         _______ _______ _______ _____ _____    ______ ____
ROOT
ATOM      1  C   UNL     1       3.194   0.967  -0.479  0.00  0.00    +0.000 A 
ATOM      2  C   UNL     1       2.901   2.322  -0.501  0.00  0.00    +0.000 A 
ATOM      3  C   UNL     1       3.735   3.053  -1.399  0.00  0.00    +0.000 A 
ATOM      4  C   UNL     1       4.644   2.243  -2.039  0.00  0.00    +0.000 A 
ATOM      5  S   UNL     1       4.489   0.615  -1.557  0.00  0.00    +0.000 S 
ENDROOT
BRANCH   1   7
ATOM      6  C   UNL     1       3.085  -1.504   0.201  0.00  0.00    +0.000 C 
ATOM      7  C   UNL     1       2.555  -0.090   0.308  0.00  0.00    +0.000 C 
ATOM      8  O   UNL     1       1.598   0.115   1.060  0.00  0.00    +0.000 OA
ENDBRANCH   1   7
BRANCH   2   9
ATOM      9  C   UNL     1       1.878   2.944   0.284  0.00  0.00    +0.000 C 
ATOM     10  C   UNL     1       1.016   3.449   0.950  0.00  0.00    +0.000 C 
BRANCH  10  11
ATOM     11  C   UNL     1      -0.021   4.012   1.757  0.00  0.00    +0.000 A 
ATOM     12  C   UNL     1      -0.857   3.171   2.497  0.00  0.00    +0.000 A 
ATOM     13  C   UNL     1      -1.872   3.714   3.287  0.00  0.00    +0.000 A 
ATOM     14  C   UNL     1      -2.051   5.096   3.338  0.00  0.00    +0.000 A 
ATOM     15  C   UNL     1      -1.218   5.937   2.601  0.00  0.00    +0.000 A 
ATOM     16  C   UNL     1      -0.202   5.396   1.810  0.00  0.00    +0.000 A 
ENDBRANCH  10  11
ENDBRANCH   2   9
TORSDOF 3
