REMARK  Name = *****
REMARK  6 active torsions:
REMARK  status: ('A' for Active; 'I' for Inactive)
REMARK    1  A    between atoms: C_1  and  C_2
REMARK    2  A    between atoms: C_4  and  C_8
REMARK    3  A    between atoms: C_5  and  C_7
REMARK    4  A    between atoms: C_9  and  C_10
REMARK    5  A    between atoms: C_11  and  C_16
REMARK    6  A    between atoms: C_13  and  C_15
REMARK                            x       y       z     vdW  Elec       q    Type
REMARK                         _______ _______ _______ _____ _____    ______ ____
ROOT
ATOM      1  C   UNL     1       5.877   1.517   0.089  0.00  0.00    +0.000 C 
ATOM      2  C   UNL     1       6.845   2.227   0.098  0.00  0.00    +0.000 C 
ENDROOT
BRANCH   1   6
ATOM      3  C   UNL     1       0.962   0.261   0.061  0.00  0.00    +0.000 C 
ATOM      4  C   UNL     1       2.448   0.154   0.068  0.00  0.00    +0.000 A 
ATOM      5  C   UNL     1       3.382   1.169   0.074  0.00  0.00    +0.000 A 
ATOM      6  C   UNL     1       4.720   0.676   0.081  0.00  0.00    +0.000 A 
ATOM      7  C   UNL     1       4.768  -0.704   0.080  0.00  0.00    +0.000 A 
ATOM      8  S   UNL     1       3.193  -1.384   0.070  0.00  0.00    +0.000 S 
ATOM      9  C   UNL     1       5.947  -1.620   0.086  0.00  0.00    +0.000 C 
ENDBRANCH   1   6
BRANCH   2  10
ATOM     10  C   UNL     1       8.001   3.071   0.110  0.00  0.00    +0.000 A 
ATOM     11  C   UNL     1       7.949   4.451   0.108  0.00  0.00    +0.000 A 
ATOM     12  S   UNL     1       9.523   5.133   0.126  0.00  0.00    +0.000 S 
ATOM     13  C   UNL     1      10.272   3.598   0.137  0.00  0.00    +0.000 A 
ATOM     14  C   UNL     1       9.339   2.582   0.127  0.00  0.00    +0.000 A 
ATOM     15  C   UNL     1      11.757   3.477   0.157  0.00  0.00    +0.000 C 
ATOM     16  C   UNL     1       6.769   5.364   0.093  0.00  0.00    +0.000 C 
ENDBRANCH   2  10
TORSDOF 2
