REMARK  Name = *****
REMARK  4 active torsions:
REMARK  status: ('A' for Active; 'I' for Inactive)
REMARK    1  A    between atoms: C_1  and  C_2
REMARK    2  A    between atoms: C_4  and  C_8
REMARK    3  A    between atoms: C_9  and  C_10
REMARK    4  A    between atoms: C_15  and  C_16
REMARK                            x       y       z     vdW  Elec       q    Type
REMARK                         _______ _______ _______ _____ _____    ______ ____
ROOT
ATOM      1  C   UNL     1      -1.682   2.583  -0.072  0.00  0.00    +0.000 C 
ATOM      2  C   UNL     1      -1.109   3.781   0.128  0.00  0.00    +0.000 C 
ENDROOT
BRANCH   1   6
ATOM      3  C   UNL     1       1.986  -0.440   1.592  0.00  0.00    +0.000 C 
ATOM      4  C   UNL     1       0.831  -0.172   0.673  0.00  0.00    +0.000 A 
ATOM      5  C   UNL     1       0.157   1.058   0.721  0.00  0.00    +0.000 A 
ATOM      6  C   UNL     1      -0.941   1.314  -0.113  0.00  0.00    +0.000 A 
ATOM      7  C   UNL     1      -1.383   0.302  -0.973  0.00  0.00    +0.000 A 
ATOM      8  C   UNL     1      -0.729  -0.931  -1.017  0.00  0.00    +0.000 A 
ATOM      9  C   UNL     1       0.372  -1.167  -0.196  0.00  0.00    +0.000 A 
ENDBRANCH   1   6
BRANCH   2  10
ATOM     10  C   UNL     1      -1.875   5.038   0.141  0.00  0.00    +0.000 A 
ATOM     11  C   UNL     1      -2.988   5.160   0.989  0.00  0.00    +0.000 A 
ATOM     12  C   UNL     1      -3.717   6.348   1.047  0.00  0.00    +0.000 A 
ATOM     13  C   UNL     1      -3.336   7.434   0.265  0.00  0.00    +0.000 A 
ATOM     14  C   UNL     1      -2.226   7.332  -0.573  0.00  0.00    +0.000 A 
ATOM     15  C   UNL     1      -1.485   6.139  -0.647  0.00  0.00    +0.000 A 
ATOM     16  C   UNL     1      -0.294   6.077  -1.565  0.00  0.00    +0.000 C 
ENDBRANCH   2  10
TORSDOF 2
