REMARK  Name = *****
REMARK  3 active torsions:
REMARK  status: ('A' for Active; 'I' for Inactive)
REMARK    1  A    between atoms: C_2  and  C_9
REMARK    2  A    between atoms: C_10  and  C_11
REMARK    3  A    between atoms: C_14  and  C_16
REMARK                            x       y       z     vdW  Elec       q    Type
REMARK                         _______ _______ _______ _____ _____    ______ ____
ROOT
ATOM      1  C   UNL     1      -2.979  -0.090  -0.011  0.00  0.00    +0.000 C 
ATOM      2  C   UNL     1      -4.179  -0.133  -0.019  0.00  0.00    +0.000 C 
ENDROOT
BRANCH   1   4
ATOM      3  C   UNL     1      -0.903   1.203  -0.000  0.00  0.00    +0.000 A 
ATOM      4  C   UNL     1      -1.550  -0.032  -0.003  0.00  0.00    +0.000 A 
ATOM      5  C   UNL     1      -0.802  -1.214   0.002  0.00  0.00    +0.000 A 
ATOM      6  C   UNL     1       0.594  -1.150   0.010  0.00  0.00    +0.000 A 
ATOM      7  C   UNL     1       1.246   0.081   0.013  0.00  0.00    +0.000 A 
ATOM      8  C   UNL     1       0.487   1.246   0.007  0.00  0.00    +0.000 A 
ATOM      9  F   UNL     1       1.108   2.432   0.010  0.00  0.00    +0.000 F 
ATOM     10  I   UNL     1       1.706  -2.906   0.017  0.00  0.00    +0.000 I 
ENDBRANCH   1   4
BRANCH   2  11
ATOM     11  C   UNL     1      -5.603  -0.179  -0.030  0.00  0.00    +0.000 A 
ATOM     12  C   UNL     1      -6.357  -1.328  -0.069  0.00  0.00    +0.000 A 
ATOM     13  S   UNL     1      -8.022  -0.916  -0.063  0.00  0.00    +0.000 S 
ATOM     14  C   UNL     1      -7.596   0.755  -0.025  0.00  0.00    +0.000 A 
ATOM     15  N   UNL     1      -6.301   1.007   0.004  0.00  0.00    +0.000 NA
BRANCH  14  16
ATOM     16  C   UNL     1      -8.666   1.797   0.004  0.00  0.00    +0.000 C 
ATOM     17  F   UNL     1      -9.590   1.603  -0.980  0.00  0.00    +0.000 F 
ENDBRANCH  14  16
ENDBRANCH   2  11
TORSDOF 3
