REMARK  Name = *****
REMARK  4 active torsions:
REMARK  status: ('A' for Active; 'I' for Inactive)
REMARK    1  A    between atoms: C_4  and  N_7
REMARK    2  A    between atoms: N_7  and  C_8
REMARK    3  A    between atoms: C_8  and  C_9
REMARK    4  A    between atoms: C_11  and  C_15
REMARK                            x       y       z     vdW  Elec       q    Type
REMARK                         _______ _______ _______ _____ _____    ______ ____
ROOT
ATOM      1  C   UNL     1       5.424   0.329  -0.621  0.00  0.00    +0.000 A 
ATOM      2  C   UNL     1       6.033   1.574  -0.797  0.00  0.00    +0.000 A 
ATOM      3  C   UNL     1       7.427   1.670  -0.949  0.00  0.00    +0.000 A 
ATOM      4  C   UNL     1       8.194   0.495  -0.936  0.00  0.00    +0.000 A 
ATOM      5  C   UNL     1       7.585  -0.749  -0.760  0.00  0.00    +0.000 A 
ATOM      6  C   UNL     1       6.201  -0.831  -0.601  0.00  0.00    +0.000 A 
ENDROOT
BRANCH   3   7
ATOM      7  C   UNL     1       8.086   3.010  -1.162  0.00  0.00    +0.000 C 
ATOM      8  F   UNL     1       7.361   4.052  -0.668  0.00  0.00    +0.000 F 
ATOM      9  F   UNL     1       9.311   3.099  -0.572  0.00  0.00    +0.000 F 
ATOM     10  F   UNL     1       8.285   3.285  -2.481  0.00  0.00    +0.000 F 
ENDBRANCH   3   7
BRANCH   1  11
ATOM     11  C   UNL     1       4.006   0.243  -0.461  0.00  0.00    +0.000 C 
BRANCH  11  12
ATOM     12  N   UNL     1       2.901   0.178  -0.335  0.00  0.00    +0.000 NA
BRANCH  12  16
ATOM     13  C   UNL     1      -1.217  -0.062   0.138  0.00  0.00    +0.000 A 
ATOM     14  C   UNL     1      -0.594   1.189   0.081  0.00  0.00    +0.000 A 
ATOM     15  C   UNL     1       0.788   1.272  -0.078  0.00  0.00    +0.000 A 
ATOM     16  C   UNL     1       1.528   0.098  -0.178  0.00  0.00    +0.000 A 
ATOM     17  C   UNL     1       0.924  -1.154  -0.123  0.00  0.00    +0.000 A 
ATOM     18  C   UNL     1      -0.459  -1.231   0.036  0.00  0.00    +0.000 A 
ENDBRANCH  12  16
ENDBRANCH  11  12
ENDBRANCH   1  11
TORSDOF 4
