REMARK  Name = *****
REMARK  4 active torsions:
REMARK  status: ('A' for Active; 'I' for Inactive)
REMARK    1  A    between atoms: C_1  and  C_2
REMARK    2  A    between atoms: C_3  and  O_9
REMARK    3  A    between atoms: O_9  and  C_10
REMARK    4  A    between atoms: C_10  and  C_11
REMARK                            x       y       z     vdW  Elec       q    Type
REMARK                         _______ _______ _______ _____ _____    ______ ____
ROOT
ATOM      1  C   UNL     1      -2.965   1.457  -0.881  0.00  0.00    +0.000 C 
ATOM      2  C   UNL     1      -1.879   0.539  -0.398  0.00  0.00    +0.000 A 
ATOM      3  C   UNL     1      -0.574   1.005  -0.166  0.00  0.00    +0.000 A 
ATOM      4  C   UNL     1       0.435   0.119   0.240  0.00  0.00    +0.000 A 
ATOM      5  C   UNL     1       0.130  -1.221   0.481  0.00  0.00    +0.000 A 
ATOM      6  C   UNL     1      -1.174  -1.681   0.302  0.00  0.00    +0.000 A 
ATOM      7  C   UNL     1      -2.171  -0.807  -0.136  0.00  0.00    +0.000 A 
ATOM      8 CL   UNL     1       2.070   0.636   0.446  0.00  0.00    +0.000 Cl
ENDROOT
BRANCH   3   9
ATOM      9  O   UNL     1      -0.285   2.323  -0.426  0.00  0.00    +0.000 OA
BRANCH   9  10
ATOM     10  C   UNL     1      -0.391   3.104   0.770  0.00  0.00    +0.000 C 
BRANCH  10  11
ATOM     11  C   UNL     1      -0.016   4.525   0.434  0.00  0.00    +0.000 A 
ATOM     12  C   UNL     1      -1.001   5.471   0.118  0.00  0.00    +0.000 A 
ATOM     13  C   UNL     1      -0.645   6.781  -0.206  0.00  0.00    +0.000 A 
ATOM     14  C   UNL     1       0.697   7.156  -0.226  0.00  0.00    +0.000 A 
ATOM     15  C   UNL     1       1.686   6.220   0.072  0.00  0.00    +0.000 A 
ATOM     16  C   UNL     1       1.332   4.909   0.395  0.00  0.00    +0.000 A 
ENDBRANCH  10  11
ENDBRANCH   9  10
ENDBRANCH   3   9
TORSDOF 3
