REMARK  Name = *****
REMARK  6 active torsions:
REMARK  status: ('A' for Active; 'I' for Inactive)
REMARK    1  A    between atoms: C_1  and  C_2
REMARK    2  A    between atoms: C_5  and  C_8
REMARK    3  A    between atoms: C_8  and  C_9
REMARK    4  A    between atoms: C_9  and  C_10
REMARK    5  A    between atoms: C_10  and  C_12
REMARK    6  A    between atoms: C_15  and  C_18
REMARK                            x       y       z     vdW  Elec       q    Type
REMARK                         _______ _______ _______ _____ _____    ______ ____
ROOT
ATOM      1  C   UNL     1      -3.857   1.448  -0.048  0.00  0.00    +0.000 C 
ENDROOT
BRANCH   1   2
ATOM      2  C   UNL     1      -5.374   1.461  -0.060  0.00  0.00    +0.000 C 
ATOM      3  O   UNL     1      -6.038   0.426  -0.042  0.00  0.00    +0.000 OA
BRANCH   2   4
ATOM      4  C   UNL     1      -6.078   2.780  -0.094  0.00  0.00    +0.000 A 
ATOM      5  C   UNL     1      -5.388   3.998  -0.095  0.00  0.00    +0.000 A 
ATOM      6  C   UNL     1      -6.092   5.207  -0.128  0.00  0.00    +0.000 A 
ATOM      7  C   UNL     1      -7.491   5.216  -0.161  0.00  0.00    +0.000 A 
ATOM      8  C   UNL     1      -8.179   3.998  -0.159  0.00  0.00    +0.000 A 
ATOM      9  C   UNL     1      -7.478   2.790  -0.126  0.00  0.00    +0.000 A 
ATOM     10  C   UNL     1      -8.255   6.507  -0.198  0.00  0.00    +0.000 C 
ENDBRANCH   2   4
ENDBRANCH   1   2
BRANCH   1  11
ATOM     11  C   UNL     1      -3.302   0.024  -0.036  0.00  0.00    +0.000 C 
BRANCH  11  16
ATOM     12  C   UNL     1       2.523   0.129  -0.041  0.00  0.00    +0.000 C 
ATOM     13  C   UNL     1       1.024   0.094  -0.029  0.00  0.00    +0.000 A 
ATOM     14  C   UNL     1       0.312   0.083   1.176  0.00  0.00    +0.000 A 
ATOM     15  C   UNL     1      -1.084   0.052   1.174  0.00  0.00    +0.000 A 
ATOM     16  C   UNL     1      -1.793   0.028  -0.034  0.00  0.00    +0.000 A 
ATOM     17  C   UNL     1      -1.081   0.044  -1.239  0.00  0.00    +0.000 A 
ATOM     18  C   UNL     1       0.315   0.075  -1.236  0.00  0.00    +0.000 A 
ENDBRANCH  11  16
ENDBRANCH   1  11
TORSDOF 4
