REMARK  Name = *****
REMARK  3 active torsions:
REMARK  status: ('A' for Active; 'I' for Inactive)
REMARK    1  A    between atoms: C_4  and  C_7
REMARK    2  A    between atoms: C_8  and  C_9
REMARK    3  A    between atoms: C_9  and  C_10
REMARK                            x       y       z     vdW  Elec       q    Type
REMARK                         _______ _______ _______ _____ _____    ______ ____
ROOT
ATOM      1  C   UNL     1      -2.722   0.467  -0.123  0.00  0.00    +0.000 C 
ATOM      2  C   UNL     1      -3.688  -0.420  -0.419  0.00  0.00    +0.000 C 
ENDROOT
BRANCH   1   6
ATOM      3  C   UNL     1       1.431  -0.458   0.291  0.00  0.00    +0.000 A 
ATOM      4  C   UNL     1       0.690  -1.066  -0.719  0.00  0.00    +0.000 A 
ATOM      5  C   UNL     1      -0.670  -0.779  -0.860  0.00  0.00    +0.000 A 
ATOM      6  C   UNL     1      -1.304   0.113   0.016  0.00  0.00    +0.000 A 
ATOM      7  C   UNL     1      -0.544   0.731   1.017  0.00  0.00    +0.000 A 
ATOM      8  C   UNL     1       0.816   0.442   1.158  0.00  0.00    +0.000 A 
ENDBRANCH   1   6
BRANCH   2   9
ATOM      9  C   UNL     1      -5.143  -0.063  -0.566  0.00  0.00    +0.000 C 
ATOM     10 CL   UNL     1      -6.083  -0.930   0.687  0.00  0.00    +0.000 Cl
BRANCH   9  11
ATOM     11  C   UNL     1      -5.678  -0.361  -1.954  0.00  0.00    +0.000 A 
ATOM     12  C   UNL     1      -5.853  -1.676  -2.420  0.00  0.00    +0.000 A 
ATOM     13  C   UNL     1      -6.325  -1.921  -3.712  0.00  0.00    +0.000 A 
ATOM     14  C   UNL     1      -6.620  -0.857  -4.560  0.00  0.00    +0.000 A 
ATOM     15  C   UNL     1      -6.443   0.453  -4.119  0.00  0.00    +0.000 A 
ATOM     16  C   UNL     1      -5.973   0.699  -2.828  0.00  0.00    +0.000 A 
ENDBRANCH   9  11
ENDBRANCH   2   9
TORSDOF 3
