REMARK  Name = *****
REMARK  4 active torsions:
REMARK  status: ('A' for Active; 'I' for Inactive)
REMARK    1  A    between atoms: C_4  and  C_7
REMARK    2  A    between atoms: C_7  and  C_8
REMARK    3  A    between atoms: C_8  and  C_9
REMARK    4  A    between atoms: C_8  and  C_11
REMARK                            x       y       z     vdW  Elec       q    Type
REMARK                         _______ _______ _______ _____ _____    ______ ____
ROOT
ATOM      1  C   UNL     1      -3.677  -0.805   0.222  0.00  0.00    +0.000 C 
ENDROOT
BRANCH   1   2
ATOM      2  C   UNL     1      -5.117  -0.626  -0.253  0.00  0.00    +0.000 A 
ATOM      3  C   UNL     1      -5.738  -1.663  -0.971  0.00  0.00    +0.000 A 
ATOM      4  C   UNL     1      -7.057  -1.537  -1.412  0.00  0.00    +0.000 A 
ATOM      5  C   UNL     1      -7.776  -0.377  -1.140  0.00  0.00    +0.000 A 
ATOM      6  C   UNL     1      -7.178   0.656  -0.424  0.00  0.00    +0.000 A 
ATOM      7  C   UNL     1      -5.859   0.533   0.018  0.00  0.00    +0.000 A 
ENDBRANCH   1   2
BRANCH   1   8
ATOM      8  C   UNL     1      -3.620  -1.342   1.667  0.00  0.00    +0.000 C 
ATOM      9 CL   UNL     1      -4.066  -0.148   2.916  0.00  0.00    +0.000 Cl
ENDBRANCH   1   8
BRANCH   1  10
ATOM     10  C   UNL     1      -2.804   0.447  -0.028  0.00  0.00    +0.000 C 
BRANCH  10  14
ATOM     11  C   UNL     1       1.412  -0.321   0.484  0.00  0.00    +0.000 A 
ATOM     12  C   UNL     1       0.759  -0.757  -0.667  0.00  0.00    +0.000 A 
ATOM     13  C   UNL     1      -0.603  -0.504  -0.836  0.00  0.00    +0.000 A 
ATOM     14  C   UNL     1      -1.324   0.189   0.147  0.00  0.00    +0.000 A 
ATOM     15  C   UNL     1      -0.656   0.626   1.298  0.00  0.00    +0.000 A 
ATOM     16  C   UNL     1       0.706   0.371   1.465  0.00  0.00    +0.000 A 
ENDBRANCH  10  14
ENDBRANCH   1  10
TORSDOF 4
