REMARK  Name = *****
REMARK  2 active torsions:
REMARK  status: ('A' for Active; 'I' for Inactive)
REMARK    1  A    between atoms: C_1  and  C_2
REMARK    2  A    between atoms: C_3  and  C_11
REMARK                            x       y       z     vdW  Elec       q    Type
REMARK                         _______ _______ _______ _____ _____    ______ ____
ROOT
ATOM      1  C   UNL     1       1.059   0.119  -1.000  0.00  0.00    +0.000 C 
ATOM      2  C   UNL     1       2.458   0.078  -0.397  0.00  0.00    +0.000 C 
ATOM      3  C   UNL     1       2.855   1.288   0.507  0.00  0.00    +0.000 C 
ATOM      4  C   UNL     1       3.932   0.738   1.480  0.00  0.00    +0.000 C 
ATOM      5  C   UNL     1       3.593  -0.721   1.549  0.00  0.00    +0.000 A 
ATOM      6  C   UNL     1       4.042  -1.646   2.478  0.00  0.00    +0.000 A 
ATOM      7  C   UNL     1       3.619  -2.970   2.353  0.00  0.00    +0.000 A 
ATOM      8  C   UNL     1       2.770  -3.352   1.303  0.00  0.00    +0.000 A 
ATOM      9  C   UNL     1       2.333  -2.414   0.364  0.00  0.00    +0.000 A 
ATOM     10  C   UNL     1       2.744  -1.098   0.500  0.00  0.00    +0.000 A 
ENDROOT
BRANCH   3  11
ATOM     11  C   UNL     1       1.706   1.987   1.228  0.00  0.00    +0.000 A 
ATOM     12  C   UNL     1       0.997   1.385   2.279  0.00  0.00    +0.000 A 
ATOM     13  C   UNL     1      -0.054   2.056   2.909  0.00  0.00    +0.000 A 
ATOM     14  C   UNL     1      -0.414   3.336   2.496  0.00  0.00    +0.000 A 
ATOM     15  C   UNL     1       0.275   3.947   1.452  0.00  0.00    +0.000 A 
ATOM     16  C   UNL     1       1.326   3.277   0.822  0.00  0.00    +0.000 A 
ENDBRANCH   3  11
TORSDOF 1
