REMARK  Name = *****
REMARK  4 active torsions:
REMARK  status: ('A' for Active; 'I' for Inactive)
REMARK    1  A    between atoms: C_1  and  O_2
REMARK    2  A    between atoms: O_2  and  C_3
REMARK    3  A    between atoms: C_8  and  C_9
REMARK    4  A    between atoms: C_10  and  C_11
REMARK                            x       y       z     vdW  Elec       q    Type
REMARK                         _______ _______ _______ _____ _____    ______ ____
ROOT
ATOM      1  C   UNL     1       2.972  -0.972  -0.825  0.00  0.00    +0.000 A 
ATOM      2  C   UNL     1       2.733  -0.995  -2.204  0.00  0.00    +0.000 A 
ATOM      3  C   UNL     1       3.520  -1.785  -3.048  0.00  0.00    +0.000 A 
ATOM      4  C   UNL     1       4.554  -2.557  -2.525  0.00  0.00    +0.000 A 
ATOM      5  C   UNL     1       4.804  -2.541  -1.154  0.00  0.00    +0.000 A 
ATOM      6  C   UNL     1       4.019  -1.753  -0.302  0.00  0.00    +0.000 A 
ENDROOT
BRANCH   1   8
ATOM      7  C   UNL     1       1.150   0.518  -0.418  0.00  0.00    +0.000 C 
ATOM      8  O   UNL     1       2.252  -0.229   0.077  0.00  0.00    +0.000 OA
ENDBRANCH   1   8
BRANCH   6   9
ATOM      9  C   UNL     1       4.306  -1.772   1.104  0.00  0.00    +0.000 C 
ATOM     10  C   UNL     1       4.533  -1.787   2.284  0.00  0.00    +0.000 C 
BRANCH  10  11
ATOM     11  C   UNL     1       4.779  -1.792   3.741  0.00  0.00    +0.000 C 
ATOM     12  C   UNL     1       5.602  -0.569   4.165  0.00  0.00    +0.000 C 
ATOM     13  C   UNL     1       7.053  -0.632   3.676  0.00  0.00    +0.000 C 
ATOM     14  C   UNL     1       7.669  -1.992   3.825  0.00  0.00    +0.000 C 
ATOM     15  C   UNL     1       6.954  -3.099   4.070  0.00  0.00    +0.000 C 
ATOM     16  C   UNL     1       5.455  -3.100   4.195  0.00  0.00    +0.000 C 
ENDBRANCH  10  11
ENDBRANCH   6   9
TORSDOF 3
