REMARK  Name = *****
REMARK  3 active torsions:
REMARK  status: ('A' for Active; 'I' for Inactive)
REMARK    1  A    between atoms: C_1  and  C_2
REMARK    2  A    between atoms: C_2  and  C_10
REMARK    3  A    between atoms: C_3  and  C_4
REMARK                            x       y       z     vdW  Elec       q    Type
REMARK                         _______ _______ _______ _____ _____    ______ ____
ROOT
ATOM      1  C   UNL     1       1.096  -0.114  -0.414  0.00  0.00    +0.000 C 
ATOM      2  C   UNL     1       2.541  -0.007  -0.005  0.00  0.00    +0.000 C 
ATOM      3  C   UNL     1       3.157  -0.810   0.887  0.00  0.00    +0.000 C 
ENDROOT
BRANCH   2   4
ATOM      4  C   UNL     1       3.321   1.071  -0.653  0.00  0.00    +0.000 A 
ATOM      5  C   UNL     1       3.355   1.181  -2.052  0.00  0.00    +0.000 A 
ATOM      6  C   UNL     1       4.082   2.203  -2.667  0.00  0.00    +0.000 A 
ATOM      7  C   UNL     1       4.771   3.121  -1.883  0.00  0.00    +0.000 A 
ATOM      8  C   UNL     1       4.748   3.036  -0.497  0.00  0.00    +0.000 A 
ATOM      9  C   UNL     1       4.022   2.013   0.118  0.00  0.00    +0.000 A 
ATOM     10  F   UNL     1       5.467   4.101  -2.473  0.00  0.00    +0.000 F 
ENDBRANCH   2   4
BRANCH   3  11
ATOM     11  C   UNL     1       2.521  -1.930   1.585  0.00  0.00    +0.000 A 
ATOM     12  C   UNL     1       2.223  -3.117   0.908  0.00  0.00    +0.000 A 
ATOM     13  C   UNL     1       1.623  -4.181   1.585  0.00  0.00    +0.000 A 
ATOM     14  C   UNL     1       1.322  -4.063   2.941  0.00  0.00    +0.000 A 
ATOM     15  C   UNL     1       1.620  -2.883   3.622  0.00  0.00    +0.000 A 
ATOM     16  C   UNL     1       2.220  -1.819   2.947  0.00  0.00    +0.000 A 
ENDBRANCH   3  11
TORSDOF 2
