REMARK  Name = *****
REMARK  4 active torsions:
REMARK  status: ('A' for Active; 'I' for Inactive)
REMARK    1  A    between atoms: C_1  and  C_2
REMARK    2  A    between atoms: C_3  and  C_17
REMARK    3  A    between atoms: C_5  and  N_8
REMARK    4  A    between atoms: C_9  and  C_10
REMARK                            x       y       z     vdW  Elec       q    Type
REMARK                         _______ _______ _______ _____ _____    ______ ____
ROOT
ATOM      1  N   UNL     1      -3.171  -1.242   0.591  0.00  0.00    +0.000 NA
ATOM      2  C   UNL     1      -3.968  -1.197  -0.429  0.00  0.00    +0.000 C 
ENDROOT
BRANCH   1   7
ATOM      3  C   UNL     1       1.829   1.480   0.005  0.00  0.00    +0.000 C 
ATOM      4  C   UNL     1       0.526   0.743   0.144  0.00  0.00    +0.000 A 
ATOM      5  C   UNL     1       0.428  -0.637  -0.126  0.00  0.00    +0.000 A 
ATOM      6  C   UNL     1      -0.812  -1.280   0.025  0.00  0.00    +0.000 A 
ATOM      7  C   UNL     1      -1.946  -0.577   0.436  0.00  0.00    +0.000 A 
ATOM      8  C   UNL     1      -1.837   0.782   0.726  0.00  0.00    +0.000 A 
ATOM      9  C   UNL     1      -0.614   1.438   0.577  0.00  0.00    +0.000 A 
ATOM     10  C   UNL     1       1.621  -1.437  -0.573  0.00  0.00    +0.000 C 
ENDBRANCH   1   7
BRANCH   2  11
ATOM     11  C   UNL     1      -5.291  -1.851  -0.413  0.00  0.00    +0.000 A 
ATOM     12  C   UNL     1      -5.725  -2.561   0.713  0.00  0.00    +0.000 A 
ATOM     13  C   UNL     1      -6.980  -3.172   0.706  0.00  0.00    +0.000 A 
ATOM     14  C   UNL     1      -7.787  -3.067  -0.422  0.00  0.00    +0.000 A 
ATOM     15  C   UNL     1      -7.364  -2.362  -1.546  0.00  0.00    +0.000 A 
ATOM     16  C   UNL     1      -6.109  -1.750  -1.544  0.00  0.00    +0.000 A 
ATOM     17  F   UNL     1      -8.991  -3.652  -0.428  0.00  0.00    +0.000 F 
ENDBRANCH   2  11
TORSDOF 2
