REMARK  Name = *****
REMARK  2 active torsions:
REMARK  status: ('A' for Active; 'I' for Inactive)
REMARK    1  A    between atoms: C_5  and  C_6
REMARK    2  A    between atoms: C_7  and  C_8
REMARK                            x       y       z     vdW  Elec       q    Type
REMARK                         _______ _______ _______ _____ _____    ______ ____
ROOT
ATOM      1  C   UNL     1      -0.493  -3.430   1.376  0.00  0.00    +0.000 C 
ATOM      2  C   UNL     1       0.103  -4.418   1.712  0.00  0.00    +0.000 C 
ENDROOT
BRANCH   1   7
ATOM      3  C   UNL     1       0.675   1.288  -0.220  0.00  0.00    +0.000 C 
ATOM      4  C   UNL     1       1.468   0.040   0.169  0.00  0.00    +0.000 C 
ATOM      5  C   UNL     1       0.761  -1.244  -0.268  0.00  0.00    +0.000 C 
ATOM      6  C   UNL     1      -0.662  -1.274   0.245  0.00  0.00    +0.000 C 
ATOM      7  C   UNL     1      -1.200  -2.262   0.983  0.00  0.00    +0.000 C 
ATOM      8  C   UNL     1      -1.470  -0.054  -0.132  0.00  0.00    +0.000 C 
ATOM      9  C   UNL     1      -0.759   1.228   0.305  0.00  0.00    +0.000 C 
ENDBRANCH   1   7
BRANCH   2  10
ATOM     10  C   UNL     1       0.823  -5.589   2.107  0.00  0.00    +0.000 A 
ATOM     11  C   UNL     1       2.133  -5.478   2.577  0.00  0.00    +0.000 A 
ATOM     12  C   UNL     1       2.838  -6.621   2.961  0.00  0.00    +0.000 A 
ATOM     13  C   UNL     1       2.233  -7.875   2.875  0.00  0.00    +0.000 A 
ATOM     14  C   UNL     1       0.924  -7.988   2.405  0.00  0.00    +0.000 A 
ATOM     15  C   UNL     1       0.219  -6.846   2.021  0.00  0.00    +0.000 A 
ENDBRANCH   2  10
TORSDOF 2
