REMARK  Name = *****
REMARK  5 active torsions:
REMARK  status: ('A' for Active; 'I' for Inactive)
REMARK    1  A    between atoms: C_1  and  C_2
REMARK    2  A    between atoms: C_5  and  C_8
REMARK    3  A    between atoms: C_8  and  S_10
REMARK    4  A    between atoms: S_10  and  C_11
REMARK    5  A    between atoms: C_11  and  C_12
REMARK                            x       y       z     vdW  Elec       q    Type
REMARK                         _______ _______ _______ _____ _____    ______ ____
ROOT
ATOM      1  C   UNL     1      -3.176   0.375   0.615  0.00  0.00    +0.000 C 
ATOM      2  O   UNL     1      -3.836  -0.593   0.973  0.00  0.00    +0.000 OA
ENDROOT
BRANCH   1   7
ATOM      3  C   UNL     1       2.502  -0.393  -0.392  0.00  0.00    +0.000 C 
ATOM      4  C   UNL     1       1.034  -0.183  -0.167  0.00  0.00    +0.000 A 
ATOM      5  C   UNL     1       0.463   1.082  -0.346  0.00  0.00    +0.000 A 
ATOM      6  C   UNL     1      -0.900   1.291  -0.104  0.00  0.00    +0.000 A 
ATOM      7  C   UNL     1      -1.714   0.237   0.332  0.00  0.00    +0.000 A 
ATOM      8  C   UNL     1      -1.133  -1.027   0.523  0.00  0.00    +0.000 A 
ATOM      9  C   UNL     1       0.228  -1.233   0.282  0.00  0.00    +0.000 A 
ENDBRANCH   1   7
BRANCH   1  10
ATOM     10  S   UNL     1      -3.923   1.957   0.429  0.00  0.00    +0.000 S 
BRANCH  10  11
ATOM     11  C   UNL     1      -5.605   1.548   0.974  0.00  0.00    +0.000 C 
BRANCH  11  12
ATOM     12  C   UNL     1      -6.500   2.763   0.949  0.00  0.00    +0.000 A 
ATOM     13  C   UNL     1      -7.235   3.084  -0.202  0.00  0.00    +0.000 A 
ATOM     14  C   UNL     1      -8.054   4.214  -0.227  0.00  0.00    +0.000 A 
ATOM     15  C   UNL     1      -8.142   5.038   0.894  0.00  0.00    +0.000 A 
ATOM     16  C   UNL     1      -7.410   4.734   2.040  0.00  0.00    +0.000 A 
ATOM     17  C   UNL     1      -6.591   3.604   2.068  0.00  0.00    +0.000 A 
ENDBRANCH  11  12
ENDBRANCH  10  11
ENDBRANCH   1  10
TORSDOF 4
