REMARK  Name = *****
REMARK  4 active torsions:
REMARK  status: ('A' for Active; 'I' for Inactive)
REMARK    1  A    between atoms: C_1  and  C_2
REMARK    2  A    between atoms: C_5  and  C_8
REMARK    3  A    between atoms: C_8  and  O_9
REMARK    4  A    between atoms: O_9  and  C_10
REMARK                            x       y       z     vdW  Elec       q    Type
REMARK                         _______ _______ _______ _____ _____    ______ ____
ROOT
ATOM      1  O   UNL     1      -3.883   1.419   0.305  0.00  0.00    +0.000 OA
ENDROOT
BRANCH   1   2
ATOM      2  C   UNL     1      -5.232   1.486   0.548  0.00  0.00    +0.000 A 
ATOM      3  C   UNL     1      -6.172   1.183  -0.448  0.00  0.00    +0.000 A 
ATOM      4  C   UNL     1      -7.535   1.310  -0.153  0.00  0.00    +0.000 A 
ATOM      5  C   UNL     1      -7.945   1.753   1.111  0.00  0.00    +0.000 A 
ATOM      6  C   UNL     1      -7.000   2.079   2.084  0.00  0.00    +0.000 A 
ATOM      7  C   UNL     1      -5.642   1.953   1.800  0.00  0.00    +0.000 A 
ATOM      8 CL   UNL     1      -8.773   0.941  -1.304  0.00  0.00    +0.000 Cl
ATOM      9 CL   UNL     1      -5.629   0.663  -2.009  0.00  0.00    +0.000 Cl
ENDBRANCH   1   2
BRANCH   1  10
ATOM     10  C   UNL     1      -3.366   0.139   0.695  0.00  0.00    +0.000 C 
BRANCH  10  15
ATOM     11  C   UNL     1       2.342  -0.020  -0.475  0.00  0.00    +0.000 C 
ATOM     12  C   UNL     1       0.872  -0.007  -0.178  0.00  0.00    +0.000 A 
ATOM     13  C   UNL     1       0.409  -0.224   1.124  0.00  0.00    +0.000 A 
ATOM     14  C   UNL     1      -0.958  -0.176   1.409  0.00  0.00    +0.000 A 
ATOM     15  C   UNL     1      -1.887   0.103   0.398  0.00  0.00    +0.000 A 
ATOM     16  C   UNL     1      -1.419   0.330  -0.904  0.00  0.00    +0.000 A 
ATOM     17  C   UNL     1      -0.053   0.283  -1.188  0.00  0.00    +0.000 A 
ENDBRANCH  10  15
ENDBRANCH   1  10
TORSDOF 3
