REMARK  Name = *****
REMARK  3 active torsions:
REMARK  status: ('A' for Active; 'I' for Inactive)
REMARK    1  A    between atoms: C_1  and  C_2
REMARK    2  A    between atoms: N_3  and  C_17
REMARK    3  A    between atoms: C_9  and  C_11
REMARK                            x       y       z     vdW  Elec       q    Type
REMARK                         _______ _______ _______ _____ _____    ______ ____
ROOT
ATOM      1  C   UNL     1       0.814   0.173  -0.081  0.00  0.00    +0.000 C 
ATOM      2  C   UNL     1       2.285  -0.016   0.018  0.00  0.00    +0.000 C 
ATOM      3  N   UNL     1       3.220   0.917  -0.058  0.00  0.00    +0.000 N 
ATOM      4  C   UNL     1       4.523   0.451   0.075  0.00  0.00    +0.000 A 
ATOM      5  C   UNL     1       4.574  -0.927   0.256  0.00  0.00    +0.000 A 
ATOM      6  S   UNL     1       2.975  -1.564   0.257  0.00  0.00    +0.000 S 
ATOM      7  C   UNL     1       5.792  -1.603   0.405  0.00  0.00    +0.000 A 
ATOM      8  C   UNL     1       6.971  -0.849   0.366  0.00  0.00    +0.000 A 
ATOM      9  C   UNL     1       6.957   0.541   0.189  0.00  0.00    +0.000 A 
ATOM     10  C   UNL     1       5.718   1.197   0.044  0.00  0.00    +0.000 A 
ATOM     11  C   UNL     1       2.933   2.332  -0.264  0.00  0.00    +0.000 C 
ENDROOT
BRANCH   9  12
ATOM     12  C   UNL     1       8.212   1.305   0.147  0.00  0.00    +0.000 A 
ATOM     13  C   UNL     1       9.192   1.026  -0.819  0.00  0.00    +0.000 A 
ATOM     14  C   UNL     1      10.382   1.757  -0.866  0.00  0.00    +0.000 A 
ATOM     15  C   UNL     1      10.611   2.777   0.054  0.00  0.00    +0.000 A 
ATOM     16  C   UNL     1       9.653   3.066   1.022  0.00  0.00    +0.000 A 
ATOM     17  C   UNL     1       8.462   2.336   1.068  0.00  0.00    +0.000 A 
ENDBRANCH   9  12
TORSDOF 1
