REMARK  Name = *****
REMARK  3 active torsions:
REMARK  status: ('A' for Active; 'I' for Inactive)
REMARK    1  A    between atoms: C_5  and  C_7
REMARK    2  A    between atoms: C_7  and  O_9
REMARK    3  A    between atoms: O_9  and  C_10
REMARK                            x       y       z     vdW  Elec       q    Type
REMARK                         _______ _______ _______ _____ _____    ______ ____
ROOT
ATOM      1  C   UNL     1       0.764  -2.291  -0.509  0.00  0.00    +0.000 C 
ATOM      2  O   UNL     1       0.417  -3.368  -0.045  0.00  0.00    +0.000 OA
ENDROOT
BRANCH   1   7
ATOM      3  C   UNL     1      -1.697   0.151   0.958  0.00  0.00    +0.000 A 
ATOM      4  C   UNL     1      -1.037   1.368   0.794  0.00  0.00    +0.000 A 
ATOM      5  C   UNL     1       0.229   1.399   0.207  0.00  0.00    +0.000 A 
ATOM      6  C   UNL     1       0.828   0.215  -0.220  0.00  0.00    +0.000 A 
ATOM      7  C   UNL     1       0.172  -1.007  -0.073  0.00  0.00    +0.000 A 
ATOM      8  C   UNL     1      -1.095  -1.035   0.531  0.00  0.00    +0.000 A 
ATOM      9  F   UNL     1       2.055   0.291  -0.754  0.00  0.00    +0.000 F 
ENDBRANCH   1   7
BRANCH   1  10
ATOM     10  O   UNL     1       1.653  -2.079  -1.543  0.00  0.00    +0.000 OA
BRANCH  10  11
ATOM     11  C   UNL     1       2.254  -3.265  -1.974  0.00  0.00    +0.000 A 
ATOM     12  C   UNL     1       3.451  -3.710  -1.402  0.00  0.00    +0.000 A 
ATOM     13  C   UNL     1       4.045  -4.879  -1.877  0.00  0.00    +0.000 A 
ATOM     14  C   UNL     1       3.448  -5.589  -2.925  0.00  0.00    +0.000 A 
ATOM     15  C   UNL     1       2.262  -5.123  -3.497  0.00  0.00    +0.000 A 
ATOM     16  C   UNL     1       1.661  -3.956  -3.033  0.00  0.00    +0.000 A 
ATOM     17 CL   UNL     1       1.542  -5.996  -4.793  0.00  0.00    +0.000 Cl
ATOM     18 CL   UNL     1       4.219  -2.840  -0.128  0.00  0.00    +0.000 Cl
ENDBRANCH  10  11
ENDBRANCH   1  10
TORSDOF 3
