REMARK  Name = *****
REMARK  3 active torsions:
REMARK  status: ('A' for Active; 'I' for Inactive)
REMARK    1  A    between atoms: C_3  and  C_6
REMARK    2  A    between atoms: C_7  and  C_8
REMARK    3  A    between atoms: C_11  and  C_13
REMARK                            x       y       z     vdW  Elec       q    Type
REMARK                         _______ _______ _______ _____ _____    ______ ____
ROOT
ATOM      1  C   UNL     1       0.197  -2.171   1.199  0.00  0.00    +0.000 C 
ATOM      2  C   UNL     1       1.181  -3.059   1.416  0.00  0.00    +0.000 C 
ENDROOT
BRANCH   1   5
ATOM      3  C   UNL     1      -1.046   0.743  -0.071  0.00  0.00    +0.000 C 
ATOM      4  C   UNL     1       0.082   0.189   0.404  0.00  0.00    +0.000 C 
ATOM      5  C   UNL     1       0.152  -1.262   0.004  0.00  0.00    +0.000 C 
ATOM      6  C   UNL     1      -1.131  -1.417  -0.771  0.00  0.00    +0.000 C 
ATOM      7  C   UNL     1      -1.795  -0.252  -0.798  0.00  0.00    +0.000 C 
ENDBRANCH   1   5
BRANCH   2   8
ATOM      8  C   UNL     1       1.210  -3.917   2.556  0.00  0.00    +0.000 A 
ATOM      9  C   UNL     1       0.322  -4.067   3.610  0.00  0.00    +0.000 A 
ATOM     10  C   UNL     1       0.732  -5.053   4.557  0.00  0.00    +0.000 A 
ATOM     11  C   UNL     1       1.928  -5.639   4.208  0.00  0.00    +0.000 A 
ATOM     12  S   UNL     1       2.541  -5.000   2.752  0.00  0.00    +0.000 S 
BRANCH  11  13
ATOM     13  C   UNL     1       2.591  -6.658   4.958  0.00  0.00    +0.000 C 
ATOM     14  N   UNL     1       3.117  -7.485   5.579  0.00  0.00    +0.000 NA
ENDBRANCH  11  13
ENDBRANCH   2   8
TORSDOF 3
