REMARK  Name = *****
REMARK  3 active torsions:
REMARK  status: ('A' for Active; 'I' for Inactive)
REMARK    1  A    between atoms: C_4  and  S_7
REMARK    2  A    between atoms: S_7  and  C_8
REMARK    3  A    between atoms: C_8  and  C_9
REMARK                            x       y       z     vdW  Elec       q    Type
REMARK                         _______ _______ _______ _____ _____    ______ ____
ROOT
ATOM      1  C   UNL     1      -3.934  -0.881  -0.534  0.00  0.00    +0.000 C 
ENDROOT
BRANCH   1   2
ATOM      2  C   UNL     1      -5.417  -0.610  -0.619  0.00  0.00    +0.000 A 
ATOM      3  C   UNL     1      -5.890   0.136  -1.717  0.00  0.00    +0.000 A 
ATOM      4  C   UNL     1      -7.246   0.436  -1.861  0.00  0.00    +0.000 A 
ATOM      5  C   UNL     1      -8.157   0.002  -0.905  0.00  0.00    +0.000 A 
ATOM      6  C   UNL     1      -7.712  -0.729   0.196  0.00  0.00    +0.000 A 
ATOM      7  C   UNL     1      -6.351  -1.032   0.345  0.00  0.00    +0.000 A 
ATOM      8  I   UNL     1      -5.824  -2.125   2.062  0.00  0.00    +0.000 I 
ENDBRANCH   1   2
BRANCH   1   9
ATOM      9  S   UNL     1      -3.068   0.412   0.417  0.00  0.00    +0.000 S 
BRANCH   9  13
ATOM     10  C   UNL     1       1.093  -1.488   0.620  0.00  0.00    +0.000 A 
ATOM     11  C   UNL     1       0.617  -0.995  -0.593  0.00  0.00    +0.000 A 
ATOM     12  C   UNL     1      -0.651  -0.413  -0.662  0.00  0.00    +0.000 A 
ATOM     13  C   UNL     1      -1.449  -0.328   0.483  0.00  0.00    +0.000 A 
ATOM     14  C   UNL     1      -0.962  -0.814   1.699  0.00  0.00    +0.000 A 
ATOM     15  C   UNL     1       0.306  -1.397   1.767  0.00  0.00    +0.000 A 
ENDBRANCH   9  13
ENDBRANCH   1   9
TORSDOF 3
