REMARK  Name = *****
REMARK  5 active torsions:
REMARK  status: ('A' for Active; 'I' for Inactive)
REMARK    1  A    between atoms: C_1  and  C_2
REMARK    2  A    between atoms: C_5  and  C_8
REMARK    3  A    between atoms: C_8  and  C_10
REMARK    4  A    between atoms: C_10  and  C_11
REMARK    5  A    between atoms: C_14  and  C_17
REMARK                            x       y       z     vdW  Elec       q    Type
REMARK                         _______ _______ _______ _____ _____    ______ ____
ROOT
ATOM      1  C   UNL     1      -3.916   1.315  -0.097  0.00  0.00    +0.000 C 
ATOM      2  F   UNL     1      -4.818   1.609   0.898  0.00  0.00    +0.000 F 
ATOM      3  F   UNL     1      -4.704   1.114  -1.206  0.00  0.00    +0.000 F 
ENDROOT
BRANCH   1   4
ATOM      4  C   UNL     1      -2.971   2.485  -0.327  0.00  0.00    +0.000 A 
ATOM      5  C   UNL     1      -2.463   2.750  -1.608  0.00  0.00    +0.000 A 
ATOM      6  C   UNL     1      -1.590   3.820  -1.818  0.00  0.00    +0.000 A 
ATOM      7  C   UNL     1      -1.198   4.636  -0.751  0.00  0.00    +0.000 A 
ATOM      8  C   UNL     1      -1.713   4.383   0.525  0.00  0.00    +0.000 A 
ATOM      9  C   UNL     1      -2.586   3.313   0.737  0.00  0.00    +0.000 A 
ATOM     10  C   UNL     1      -0.285   5.804  -0.984  0.00  0.00    +0.000 C 
ENDBRANCH   1   4
BRANCH   1  11
ATOM     11  C   UNL     1      -3.164   0.017   0.255  0.00  0.00    +0.000 C 
ATOM     12  O   UNL     1      -1.951  -0.039   0.475  0.00  0.00    +0.000 OA
BRANCH  11  17
ATOM     13  C   UNL     1      -6.059  -5.012   0.684  0.00  0.00    +0.000 C 
ATOM     14  C   UNL     1      -5.325  -3.711   0.545  0.00  0.00    +0.000 A 
ATOM     15  C   UNL     1      -3.929  -3.674   0.617  0.00  0.00    +0.000 A 
ATOM     16  C   UNL     1      -3.249  -2.457   0.519  0.00  0.00    +0.000 A 
ATOM     17  C   UNL     1      -3.951  -1.254   0.356  0.00  0.00    +0.000 A 
ATOM     18  C   UNL     1      -5.349  -1.291   0.306  0.00  0.00    +0.000 A 
ATOM     19  C   UNL     1      -6.029  -2.510   0.404  0.00  0.00    +0.000 A 
ENDBRANCH  11  17
ENDBRANCH   1  11
TORSDOF 3
