REMARK  Name = *****
REMARK  3 active torsions:
REMARK  status: ('A' for Active; 'I' for Inactive)
REMARK    1  A    between atoms: C_3  and  O_9
REMARK    2  A    between atoms: O_9  and  C_10
REMARK    3  A    between atoms: C_10  and  C_11
REMARK                            x       y       z     vdW  Elec       q    Type
REMARK                         _______ _______ _______ _____ _____    ______ ____
ROOT
ATOM      1  C   UNL     1       1.229  -1.188   0.135  0.00  0.00    +0.000 A 
ATOM      2  C   UNL     1       0.019  -1.857  -0.058  0.00  0.00    +0.000 A 
ATOM      3  C   UNL     1      -1.175  -1.140  -0.204  0.00  0.00    +0.000 A 
ATOM      4  C   UNL     1      -1.133   0.257  -0.138  0.00  0.00    +0.000 A 
ATOM      5  C   UNL     1       0.070   0.931   0.056  0.00  0.00    +0.000 A 
ATOM      6  C   UNL     1       1.242   0.201   0.188  0.00  0.00    +0.000 A 
ATOM      7  F   UNL     1       2.403   0.843   0.371  0.00  0.00    +0.000 F 
ATOM      8  F   UNL     1      -2.247   0.993  -0.254  0.00  0.00    +0.000 F 
ENDROOT
BRANCH   3   9
ATOM      9  O   UNL     1      -2.279  -1.924  -0.393  0.00  0.00    +0.000 OA
BRANCH   9  10
ATOM     10  C   UNL     1      -3.494  -1.268  -0.770  0.00  0.00    +0.000 C 
BRANCH  10  11
ATOM     11  C   UNL     1      -4.531  -2.266  -1.161  0.00  0.00    +0.000 A 
ATOM     12  C   UNL     1      -4.450  -3.212  -2.162  0.00  0.00    +0.000 A 
ATOM     13  S   UNL     1      -5.903  -4.089  -2.202  0.00  0.00    +0.000 S 
ATOM     14  N   UNL     1      -6.570  -3.205  -0.943  0.00  0.00    +0.000 NA
ATOM     15  N   UNL     1      -5.749  -2.274  -0.480  0.00  0.00    +0.000 NA
ATOM     16 CL   UNL     1      -3.178  -3.549  -3.252  0.00  0.00    +0.000 Cl
ENDBRANCH  10  11
ENDBRANCH   9  10
ENDBRANCH   3   9
TORSDOF 3
