REMARK  Name = *****
REMARK  2 active torsions:
REMARK  status: ('A' for Active; 'I' for Inactive)
REMARK    1  A    between atoms: C_8  and  C_9
REMARK    2  A    between atoms: C_10  and  C_11
REMARK                            x       y       z     vdW  Elec       q    Type
REMARK                         _______ _______ _______ _____ _____    ______ ____
ROOT
ATOM      1  C   UNL     1      -2.867   1.102  -1.069  0.00  0.00    +0.000 C 
ATOM      2  C   UNL     1      -1.995   0.465   0.022  0.00  0.00    +0.000 C 
ATOM      3  C   UNL     1      -2.074   1.332   1.070  0.00  0.00    +0.000 C 
ATOM      4  C   UNL     1      -3.516   1.854   1.046  0.00  0.00    +0.000 C 
ATOM      5  C   UNL     1      -3.262   2.426  -0.347  0.00  0.00    +0.000 C 
ATOM      6  C   UNL     1      -1.990   3.291  -0.162  0.00  0.00    +0.000 C 
ATOM      7  C   UNL     1      -1.178   2.546   0.909  0.00  0.00    +0.000 C 
ATOM      8  C   UNL     1      -1.615   3.976   1.131  0.00  0.00    +0.000 C 
ENDROOT
BRANCH   8   9
ATOM      9  C   UNL     1      -0.584   5.025   1.089  0.00  0.00    +0.000 C 
ATOM     10  C   UNL     1      -0.725   6.225   0.501  0.00  0.00    +0.000 C 
BRANCH  10  11
ATOM     11  C   UNL     1       0.315   7.262   0.468  0.00  0.00    +0.000 A 
ATOM     12  C   UNL     1       0.441   8.059  -0.677  0.00  0.00    +0.000 A 
ATOM     13  C   UNL     1       1.400   9.074  -0.737  0.00  0.00    +0.000 A 
ATOM     14  C   UNL     1       2.234   9.310   0.353  0.00  0.00    +0.000 A 
ATOM     15  C   UNL     1       2.108   8.536   1.505  0.00  0.00    +0.000 A 
ATOM     16  C   UNL     1       1.150   7.520   1.564  0.00  0.00    +0.000 A 
ENDBRANCH  10  11
ENDBRANCH   8   9
TORSDOF 2
