REMARK  Name = *****
REMARK  3 active torsions:
REMARK  status: ('A' for Active; 'I' for Inactive)
REMARK    1  A    between atoms: C_4  and  N_7
REMARK    2  A    between atoms: N_7  and  O_8
REMARK    3  A    between atoms: O_8  and  C_9
REMARK                            x       y       z     vdW  Elec       q    Type
REMARK                         _______ _______ _______ _____ _____    ______ ____
ROOT
ATOM      1  N   UNL     1      -2.868   0.333  -0.230  0.00  0.00    +0.000 N 
ATOM      2  H   UNL     1      -3.247   1.212  -0.458  0.00  0.00    +0.000 HD
ENDROOT
BRANCH   1   6
ATOM      3  C   UNL     1       1.325  -0.109  -0.004  0.00  0.00    +0.000 A 
ATOM      4  C   UNL     1       0.520  -1.232  -0.180  0.00  0.00    +0.000 A 
ATOM      5  C   UNL     1      -0.869  -1.093  -0.241  0.00  0.00    +0.000 A 
ATOM      6  C   UNL     1      -1.472   0.162  -0.100  0.00  0.00    +0.000 A 
ATOM      7  C   UNL     1      -0.648   1.287   0.037  0.00  0.00    +0.000 A 
ATOM      8  C   UNL     1       0.742   1.152   0.098  0.00  0.00    +0.000 A 
ENDBRANCH   1   6
BRANCH   1   9
ATOM      9  O   UNL     1      -3.700  -0.772  -0.030  0.00  0.00    +0.000 OA
BRANCH   9  10
ATOM     10  C   UNL     1      -4.840  -0.666  -0.793  0.00  0.00    +0.000 A 
ATOM     11  C   UNL     1      -4.860  -0.116  -2.078  0.00  0.00    +0.000 A 
ATOM     12  C   UNL     1      -6.055  -0.074  -2.800  0.00  0.00    +0.000 A 
ATOM     13  C   UNL     1      -7.222  -0.592  -2.239  0.00  0.00    +0.000 A 
ATOM     14  C   UNL     1      -7.203  -1.157  -0.965  0.00  0.00    +0.000 A 
ATOM     15  C   UNL     1      -6.008  -1.199  -0.244  0.00  0.00    +0.000 A 
ATOM     16 CL   UNL     1      -8.694  -0.541  -3.129  0.00  0.00    +0.000 Cl
ENDBRANCH   9  10
ENDBRANCH   1   9
TORSDOF 3
