REMARK  Name = *****
REMARK  2 active torsions:
REMARK  status: ('A' for Active; 'I' for Inactive)
REMARK    1  A    between atoms: C_4  and  C_7
REMARK    2  A    between atoms: C_7  and  C_8
REMARK                            x       y       z     vdW  Elec       q    Type
REMARK                         _______ _______ _______ _____ _____    ______ ____
ROOT
ATOM      1  C   UNL     1      -3.910   0.348  -0.760  0.00  0.00    +0.000 C 
ATOM      2  C   UNL     1      -3.756   0.842  -2.119  0.00  0.00    +0.000 C 
ATOM      3  C   UNL     1      -4.962   1.012  -2.684  0.00  0.00    +0.000 C 
ATOM      4  C   UNL     1      -5.975   0.633  -1.700  0.00  0.00    +0.000 C 
ATOM      5  C   UNL     1      -7.354   0.641  -1.819  0.00  0.00    +0.000 C 
ATOM      6  C   UNL     1      -8.112   0.228  -0.719  0.00  0.00    +0.000 C 
ATOM      7  C   UNL     1      -7.488  -0.182   0.472  0.00  0.00    +0.000 C 
ATOM      8  C   UNL     1      -6.094  -0.187   0.585  0.00  0.00    +0.000 C 
ATOM      9  C   UNL     1      -5.351   0.224  -0.509  0.00  0.00    +0.000 C 
ENDROOT
BRANCH   1  10
ATOM     10  C   UNL     1      -2.945   0.061   0.126  0.00  0.00    +0.000 C 
BRANCH  10  14
ATOM     11  C   UNL     1       1.247   0.409  -0.581  0.00  0.00    +0.000 A 
ATOM     12  C   UNL     1       0.611   1.269   0.314  0.00  0.00    +0.000 A 
ATOM     13  C   UNL     1      -0.762   1.154   0.540  0.00  0.00    +0.000 A 
ATOM     14  C   UNL     1      -1.507   0.179  -0.132  0.00  0.00    +0.000 A 
ATOM     15  C   UNL     1      -0.862  -0.686  -1.023  0.00  0.00    +0.000 A 
ATOM     16  C   UNL     1       0.511  -0.569  -1.249  0.00  0.00    +0.000 A 
ENDBRANCH  10  14
ENDBRANCH   1  10
TORSDOF 2
