REMARK  Name = *****
REMARK  4 active torsions:
REMARK  status: ('A' for Active; 'I' for Inactive)
REMARK    1  A    between atoms: C_4  and  C_7
REMARK    2  A    between atoms: C_7  and  N_8
REMARK    3  A    between atoms: N_8  and  C_9
REMARK    4  A    between atoms: C_9  and  C_10
REMARK                            x       y       z     vdW  Elec       q    Type
REMARK                         _______ _______ _______ _____ _____    ______ ____
ROOT
ATOM      1  C   UNL     1      -4.190  -1.136  -1.233  0.00  0.00    +0.000 C 
ENDROOT
BRANCH   1   2
ATOM      2  C   UNL     1      -4.994  -2.375  -1.337  0.00  0.00    +0.000 A 
ATOM      3  C   UNL     1      -5.674  -2.720  -2.513  0.00  0.00    +0.000 A 
ATOM      4  C   UNL     1      -6.421  -3.902  -2.568  0.00  0.00    +0.000 A 
ATOM      5  C   UNL     1      -6.484  -4.738  -1.455  0.00  0.00    +0.000 A 
ATOM      6  C   UNL     1      -5.811  -4.406  -0.282  0.00  0.00    +0.000 A 
ATOM      7  C   UNL     1      -5.068  -3.225  -0.222  0.00  0.00    +0.000 A 
ATOM      8 CL   UNL     1      -7.402  -6.191  -1.529  0.00  0.00    +0.000 Cl
ATOM      9 CL   UNL     1      -5.658  -1.731  -3.930  0.00  0.00    +0.000 Cl
ENDBRANCH   1   2
BRANCH   1  10
ATOM     10  N   UNL     1      -3.711  -0.740  -0.102  0.00  0.00    +0.000 NA
BRANCH  10  11
ATOM     11  C   UNL     1      -2.927   0.500  -0.164  0.00  0.00    +0.000 C 
BRANCH  11  15
ATOM     12  C   UNL     1       1.324  -0.212   0.058  0.00  0.00    +0.000 A 
ATOM     13  C   UNL     1       0.796   0.519  -1.005  0.00  0.00    +0.000 A 
ATOM     14  C   UNL     1      -0.580   0.745  -1.086  0.00  0.00    +0.000 A 
ATOM     15  C   UNL     1      -1.441   0.239  -0.103  0.00  0.00    +0.000 A 
ATOM     16  C   UNL     1      -0.897  -0.494   0.962  0.00  0.00    +0.000 A 
ATOM     17  C   UNL     1       0.477  -0.720   1.041  0.00  0.00    +0.000 A 
ENDBRANCH  11  15
ENDBRANCH  10  11
ENDBRANCH   1  10
TORSDOF 4
