REMARK  Name = *****
REMARK  3 active torsions:
REMARK  status: ('A' for Active; 'I' for Inactive)
REMARK    1  A    between atoms: C_1  and  C_2
REMARK    2  A    between atoms: C_4  and  C_8
REMARK    3  A    between atoms: C_14  and  C_17
REMARK                            x       y       z     vdW  Elec       q    Type
REMARK                         _______ _______ _______ _____ _____    ______ ____
ROOT
ATOM      1  C   UNL     1      -1.334   2.936  -0.539  0.00  0.00    +0.000 A 
ATOM      2  N   UNL     1      -0.914   4.064  -1.085  0.00  0.00    +0.000 NA
ATOM      3  C   UNL     1      -1.667   5.028  -0.464  0.00  0.00    +0.000 A 
ATOM      4  C   UNL     1      -1.681   6.419  -0.618  0.00  0.00    +0.000 A 
ATOM      5  C   UNL     1      -2.573   7.161   0.168  0.00  0.00    +0.000 A 
ATOM      6  C   UNL     1      -3.427   6.530   1.083  0.00  0.00    +0.000 A 
ATOM      7  C   UNL     1      -3.434   5.133   1.257  0.00  0.00    +0.000 A 
ATOM      8  C   UNL     1      -2.527   4.443   0.450  0.00  0.00    +0.000 A 
ATOM      9  O   UNL     1      -2.318   3.094   0.406  0.00  0.00    +0.000 OA
ATOM     10  C   UNL     1      -4.352   4.480   2.239  0.00  0.00    +0.000 C 
ENDROOT
BRANCH   1  14
ATOM     11  C   UNL     1      -1.620  -2.009   0.316  0.00  0.00    +0.000 C 
ATOM     12  C   UNL     1      -1.028  -0.845  -0.423  0.00  0.00    +0.000 A 
ATOM     13  C   UNL     1      -1.459   0.463  -0.147  0.00  0.00    +0.000 A 
ATOM     14  C   UNL     1      -0.894   1.568  -0.805  0.00  0.00    +0.000 A 
ATOM     15  C   UNL     1       0.123   1.339  -1.742  0.00  0.00    +0.000 A 
ATOM     16  C   UNL     1       0.570   0.044  -2.012  0.00  0.00    +0.000 A 
ATOM     17  C   UNL     1      -0.000  -1.042  -1.350  0.00  0.00    +0.000 A 
ENDBRANCH   1  14
TORSDOF 1
