REMARK  Name = *****
REMARK  4 active torsions:
REMARK  status: ('A' for Active; 'I' for Inactive)
REMARK    1  A    between atoms: C_1  and  O_2
REMARK    2  A    between atoms: O_2  and  C_3
REMARK    3  A    between atoms: C_6  and  C_9
REMARK    4  A    between atoms: C_10  and  C_11
REMARK                            x       y       z     vdW  Elec       q    Type
REMARK                         _______ _______ _______ _____ _____    ______ ____
ROOT
ATOM      1  C   UNL     1       5.375  -3.800  -3.065  0.00  0.00    +0.000 C 
ATOM      2  C   UNL     1       5.150  -4.142  -4.344  0.00  0.00    +0.000 C 
ENDROOT
BRANCH   2   3
ATOM      3  C   UNL     1       5.911  -5.162  -5.084  0.00  0.00    +0.000 A 
ATOM      4  C   UNL     1       5.276  -5.890  -6.103  0.00  0.00    +0.000 A 
ATOM      5  C   UNL     1       5.958  -6.848  -6.852  0.00  0.00    +0.000 A 
ATOM      6  C   UNL     1       7.306  -7.088  -6.598  0.00  0.00    +0.000 A 
ATOM      7  C   UNL     1       7.950  -6.360  -5.603  0.00  0.00    +0.000 A 
ATOM      8  C   UNL     1       7.271  -5.401  -4.852  0.00  0.00    +0.000 A 
ATOM      9  F   UNL     1       9.250  -6.579  -5.367  0.00  0.00    +0.000 F 
ATOM     10  F   UNL     1       3.979  -5.677  -6.376  0.00  0.00    +0.000 F 
ENDBRANCH   2   3
BRANCH   1  14
ATOM     11  C   UNL     1       3.167  -0.851  -0.865  0.00  0.00    +0.000 A 
ATOM     12  C   UNL     1       2.506  -1.669  -1.780  0.00  0.00    +0.000 A 
ATOM     13  C   UNL     1       3.218  -2.631  -2.509  0.00  0.00    +0.000 A 
ATOM     14  C   UNL     1       4.600  -2.781  -2.342  0.00  0.00    +0.000 A 
ATOM     15  C   UNL     1       5.253  -1.970  -1.409  0.00  0.00    +0.000 A 
ATOM     16  C   UNL     1       4.542  -1.010  -0.682  0.00  0.00    +0.000 A 
BRANCH  11  18
ATOM     17  C   UNL     1       1.199   0.334  -0.256  0.00  0.00    +0.000 C 
ATOM     18  O   UNL     1       2.596   0.121  -0.092  0.00  0.00    +0.000 OA
ENDBRANCH  11  18
ENDBRANCH   1  14
TORSDOF 3
