REMARK  Name = *****
REMARK  3 active torsions:
REMARK  status: ('A' for Active; 'I' for Inactive)
REMARK    1  A    between atoms: C_1  and  C_2
REMARK    2  A    between atoms: C_4  and  S_8
REMARK    3  A    between atoms: S_8  and  C_9
REMARK                            x       y       z     vdW  Elec       q    Type
REMARK                         _______ _______ _______ _____ _____    ______ ____
ROOT
ATOM      1  S   UNL     1      -1.444   5.698   0.184  0.00  0.00    +0.000 S 
ENDROOT
BRANCH   1   5
ATOM      2  C   UNL     1      -4.322   5.539  -4.277  0.00  0.00    +0.000 C 
ATOM      3  C   UNL     1      -3.333   6.254  -3.405  0.00  0.00    +0.000 A 
ATOM      4  C   UNL     1      -2.917   5.703  -2.185  0.00  0.00    +0.000 A 
ATOM      5  C   UNL     1      -1.990   6.371  -1.377  0.00  0.00    +0.000 A 
ATOM      6  C   UNL     1      -1.499   7.615  -1.783  0.00  0.00    +0.000 A 
ATOM      7  C   UNL     1      -1.908   8.172  -2.995  0.00  0.00    +0.000 A 
ATOM      8  C   UNL     1      -2.818   7.493  -3.804  0.00  0.00    +0.000 A 
ENDBRANCH   1   5
BRANCH   1   9
ATOM      9  C   UNL     1      -0.793   4.072  -0.360  0.00  0.00    +0.000 C 
ATOM     10  C   UNL     1       0.454   4.193  -1.292  0.00  0.00    +0.000 C 
ATOM     11  C   UNL     1       1.527   3.377  -0.538  0.00  0.00    +0.000 C 
ATOM     12  C   UNL     1       1.224   3.758   0.912  0.00  0.00    +0.000 C 
ATOM     13  C   UNL     1      -0.226   3.265   0.841  0.00  0.00    +0.000 C 
ATOM     14  C   UNL     1       0.041   1.859   0.340  0.00  0.00    +0.000 C 
ATOM     15  C   UNL     1       1.086   1.932  -0.499  0.00  0.00    +0.000 C 
ENDBRANCH   1   9
TORSDOF 2
