REMARK  Name = *****
REMARK  4 active torsions:
REMARK  status: ('A' for Active; 'I' for Inactive)
REMARK    1  A    between atoms: C_4  and  C_7
REMARK    2  A    between atoms: C_7  and  N_8
REMARK    3  A    between atoms: N_8  and  C_9
REMARK    4  A    between atoms: C_13  and  C_15
REMARK                            x       y       z     vdW  Elec       q    Type
REMARK                         _______ _______ _______ _____ _____    ______ ____
ROOT
ATOM      1  C   UNL     1       5.436   0.275  -0.636  0.00  0.00    +0.000 A 
ATOM      2  C   UNL     1       6.060   1.516  -0.585  0.00  0.00    +0.000 A 
ATOM      3  C   UNL     1       7.443   1.585  -0.741  0.00  0.00    +0.000 A 
ATOM      4  C   UNL     1       8.182   0.415  -0.946  0.00  0.00    +0.000 A 
ATOM      5  C   UNL     1       7.545  -0.837  -1.005  0.00  0.00    +0.000 A 
ATOM      6  C   UNL     1       6.154  -0.899  -0.839  0.00  0.00    +0.000 A 
ENDROOT
BRANCH   5   7
ATOM      7  C   UNL     1       8.341  -2.102  -1.203  0.00  0.00    +0.000 C 
ATOM      8  F   UNL     1       9.551  -1.890  -1.793  0.00  0.00    +0.000 F 
ATOM      9  F   UNL     1       8.605  -2.737  -0.028  0.00  0.00    +0.000 F 
ATOM     10  F   UNL     1       7.702  -3.015  -1.986  0.00  0.00    +0.000 F 
ENDBRANCH   5   7
BRANCH   1  11
ATOM     11  N   UNL     1       4.064   0.204  -0.475  0.00  0.00    +0.000 NA
BRANCH  11  12
ATOM     12  C   UNL     1       2.958   0.146  -0.345  0.00  0.00    +0.000 C 
BRANCH  12  16
ATOM     13  C   UNL     1      -1.230  -0.078   0.150  0.00  0.00    +0.000 A 
ATOM     14  C   UNL     1      -0.604   1.166   0.056  0.00  0.00    +0.000 A 
ATOM     15  C   UNL     1       0.780   1.240  -0.108  0.00  0.00    +0.000 A 
ATOM     16  C   UNL     1       1.540   0.070  -0.178  0.00  0.00    +0.000 A 
ATOM     17  C   UNL     1       0.912  -1.174  -0.084  0.00  0.00    +0.000 A 
ATOM     18  C   UNL     1      -0.472  -1.247   0.080  0.00  0.00    +0.000 A 
ENDBRANCH  12  16
ENDBRANCH  11  12
ENDBRANCH   1  11
TORSDOF 4
