REMARK  Name = *****
REMARK  5 active torsions:
REMARK  status: ('A' for Active; 'I' for Inactive)
REMARK    1  A    between atoms: C_1  and  C_2
REMARK    2  A    between atoms: C_3  and  C_15
REMARK    3  A    between atoms: C_5  and  C_7
REMARK    4  A    between atoms: C_7  and  C_8
REMARK    5  A    between atoms: C_8  and  C_9
REMARK                            x       y       z     vdW  Elec       q    Type
REMARK                         _______ _______ _______ _____ _____    ______ ____
ROOT
ATOM      1  C   UNL     1      -1.831   2.529   0.007  0.00  0.00    +0.000 C 
ENDROOT
BRANCH   1   6
ATOM      2  C   UNL     1       0.834  -1.120   2.001  0.00  0.00    +0.000 C 
ATOM      3  C   UNL     1       0.334  -0.289   0.874  0.00  0.00    +0.000 A 
ATOM      4  C   UNL     1       0.654  -0.425  -0.466  0.00  0.00    +0.000 A 
ATOM      5  S   UNL     1      -0.178   0.759  -1.385  0.00  0.00    +0.000 S 
ATOM      6  C   UNL     1      -0.887   1.369   0.055  0.00  0.00    +0.000 A 
ATOM      7  N   UNL     1      -0.547   0.741   1.159  0.00  0.00    +0.000 NA
ATOM      8  C   UNL     1       1.550  -1.404  -1.139  0.00  0.00    +0.000 C 
ENDBRANCH   1   6
BRANCH   1   9
ATOM      9  C   UNL     1      -3.283   2.053   0.036  0.00  0.00    +0.000 C 
BRANCH   9  10
ATOM     10  C   UNL     1      -4.249   3.211  -0.012  0.00  0.00    +0.000 A 
ATOM     11  C   UNL     1      -4.725   3.689  -1.240  0.00  0.00    +0.000 A 
ATOM     12  C   UNL     1      -5.601   4.775  -1.284  0.00  0.00    +0.000 A 
ATOM     13  C   UNL     1      -6.005   5.394  -0.102  0.00  0.00    +0.000 A 
ATOM     14  C   UNL     1      -5.533   4.929   1.124  0.00  0.00    +0.000 A 
ATOM     15  C   UNL     1      -4.657   3.844   1.170  0.00  0.00    +0.000 A 
ENDBRANCH   9  10
ENDBRANCH   1   9
TORSDOF 3
