REMARK  Name = *****
REMARK  4 active torsions:
REMARK  status: ('A' for Active; 'I' for Inactive)
REMARK    1  A    between atoms: C_3  and  C_8
REMARK    2  A    between atoms: C_8  and  C_9
REMARK    3  A    between atoms: C_9  and  C_10
REMARK    4  A    between atoms: C_10  and  C_12
REMARK                            x       y       z     vdW  Elec       q    Type
REMARK                         _______ _______ _______ _____ _____    ______ ____
ROOT
ATOM      1  C   UNL     1      -1.720   5.014   0.078  0.00  0.00    +0.000 C 
ATOM      2  O   UNL     1      -2.949   5.074   0.052  0.00  0.00    +0.000 OA
ENDROOT
BRANCH   1   3
ATOM      3  C   UNL     1      -0.947   6.291   0.137  0.00  0.00    +0.000 A 
ATOM      4  C   UNL     1       0.451   6.342   0.147  0.00  0.00    +0.000 A 
ATOM      5  C   UNL     1       1.126   7.559   0.204  0.00  0.00    +0.000 A 
ATOM      6  C   UNL     1       0.397   8.739   0.251  0.00  0.00    +0.000 A 
ATOM      7  C   UNL     1      -0.992   8.722   0.241  0.00  0.00    +0.000 A 
ATOM      8  C   UNL     1      -1.665   7.499   0.183  0.00  0.00    +0.000 A 
ATOM      9  F   UNL     1       1.042   9.911   0.306  0.00  0.00    +0.000 F 
ATOM     10  F   UNL     1       1.193   5.227   0.103  0.00  0.00    +0.000 F 
ENDBRANCH   1   3
BRANCH   1  11
ATOM     11  C   UNL     1      -0.982   3.689   0.056  0.00  0.00    +0.000 C 
BRANCH  11  12
ATOM     12  C   UNL     1      -1.950   2.506   0.027  0.00  0.00    +0.000 C 
BRANCH  12  15
ATOM     13  C   UNL     1      -0.148  -0.643   1.211  0.00  0.00    +0.000 A 
ATOM     14  C   UNL     1      -0.848   0.567   1.219  0.00  0.00    +0.000 A 
ATOM     15  C   UNL     1      -1.213   1.189   0.016  0.00  0.00    +0.000 A 
ATOM     16  C   UNL     1      -0.856   0.585  -1.196  0.00  0.00    +0.000 A 
ATOM     17  C   UNL     1      -0.159  -0.619  -1.193  0.00  0.00    +0.000 A 
ATOM     18  C   UNL     1       0.198  -1.238  -0.001  0.00  0.00    +0.000 A 
ATOM     19  F   UNL     1       0.176  -1.190  -2.357  0.00  0.00    +0.000 F 
ENDBRANCH  12  15
ENDBRANCH  11  12
ENDBRANCH   1  11
TORSDOF 4
