REMARK  Name = *****
REMARK  5 active torsions:
REMARK  status: ('A' for Active; 'I' for Inactive)
REMARK    1  A    between atoms: C_1  and  C_2
REMARK    2  A    between atoms: C_5  and  C_8
REMARK    3  A    between atoms: C_9  and  C_10
REMARK    4  A    between atoms: C_13  and  O_16
REMARK    5  A    between atoms: O_16  and  C_17
REMARK                            x       y       z     vdW  Elec       q    Type
REMARK                         _______ _______ _______ _____ _____    ______ ____
ROOT
ATOM      1  C   UNL     1      -3.263   0.033  -0.078  0.00  0.00    +0.000 C 
ATOM      2  C   UNL     1      -4.045   1.124  -0.061  0.00  0.00    +0.000 C 
ENDROOT
BRANCH   1   7
ATOM      3  C   UNL     1       2.528   0.043  -0.044  0.00  0.00    +0.000 C 
ATOM      4  C   UNL     1       1.028   0.072  -0.071  0.00  0.00    +0.000 A 
ATOM      5  C   UNL     1       0.320   0.996   0.704  0.00  0.00    +0.000 A 
ATOM      6  C   UNL     1      -1.078   1.001   0.702  0.00  0.00    +0.000 A 
ATOM      7  C   UNL     1      -1.794   0.082  -0.075  0.00  0.00    +0.000 A 
ATOM      8  C   UNL     1      -1.082  -0.863  -0.824  0.00  0.00    +0.000 A 
ATOM      9  C   UNL     1       0.316  -0.868  -0.823  0.00  0.00    +0.000 A 
ENDBRANCH   1   7
BRANCH   2  10
ATOM     10  C   UNL     1      -5.514   1.077  -0.084  0.00  0.00    +0.000 A 
ATOM     11  C   UNL     1      -6.243   0.122   0.635  0.00  0.00    +0.000 A 
ATOM     12  C   UNL     1      -7.645   0.124   0.615  0.00  0.00    +0.000 A 
ATOM     13  C   UNL     1      -8.335   1.089  -0.116  0.00  0.00    +0.000 A 
ATOM     14  C   UNL     1      -7.611   2.054  -0.820  0.00  0.00    +0.000 A 
ATOM     15  C   UNL     1      -6.213   2.053  -0.801  0.00  0.00    +0.000 A 
BRANCH  13  16
ATOM     16  O   UNL     1      -9.693   1.205  -0.220  0.00  0.00    +0.000 OA
ATOM     17  C   UNL     1     -10.474   0.233   0.465  0.00  0.00    +0.000 C 
ENDBRANCH  13  16
ENDBRANCH   2  10
TORSDOF 3
