REMARK  Name = *****
REMARK  5 active torsions:
REMARK  status: ('A' for Active; 'I' for Inactive)
REMARK    1  A    between atoms: C_1  and  C_2
REMARK    2  A    between atoms: C_7  and  C_8
REMARK    3  A    between atoms: C_8  and  O_16
REMARK    4  A    between atoms: C_9  and  C_10
REMARK    5  A    between atoms: O_16  and  C_17
REMARK                            x       y       z     vdW  Elec       q    Type
REMARK                         _______ _______ _______ _____ _____    ______ ____
ROOT
ATOM      1  C   UNL     1       0.050  -3.359  -1.038  0.00  0.00    +0.000 C 
ATOM      2  C   UNL     1      -0.013  -4.293  -0.072  0.00  0.00    +0.000 C 
ENDROOT
BRANCH   1   9
ATOM      3  C   UNL     1      -1.681  -3.270  -3.474  0.00  0.00    +0.000 C 
ATOM      4  C   UNL     1      -1.853  -2.309  -2.329  0.00  0.00    +0.000 A 
ATOM      5  C   UNL     1      -2.844  -1.316  -2.417  0.00  0.00    +0.000 A 
ATOM      6  C   UNL     1      -3.034  -0.401  -1.381  0.00  0.00    +0.000 A 
ATOM      7  C   UNL     1      -2.233  -0.459  -0.246  0.00  0.00    +0.000 A 
ATOM      8  C   UNL     1      -1.237  -1.432  -0.148  0.00  0.00    +0.000 A 
ATOM      9  C   UNL     1      -1.032  -2.361  -1.183  0.00  0.00    +0.000 A 
ENDBRANCH   1   9
BRANCH   2  10
ATOM     10  C   UNL     1       0.966  -5.366   0.161  0.00  0.00    +0.000 A 
ATOM     11  C   UNL     1       1.491  -6.139  -0.881  0.00  0.00    +0.000 A 
ATOM     12  C   UNL     1       2.391  -7.175  -0.616  0.00  0.00    +0.000 A 
ATOM     13  C   UNL     1       2.765  -7.455   0.697  0.00  0.00    +0.000 A 
ATOM     14  C   UNL     1       2.237  -6.704   1.744  0.00  0.00    +0.000 A 
ATOM     15  C   UNL     1       1.337  -5.668   1.478  0.00  0.00    +0.000 A 
ENDBRANCH   2  10
BRANCH   1  16
ATOM     16  O   UNL     1       1.054  -3.340  -1.988  0.00  0.00    +0.000 OA
ATOM     17  C   UNL     1       1.810  -2.132  -1.950  0.00  0.00    +0.000 C 
ENDBRANCH   1  16
TORSDOF 3
