REMARK  Name = *****
REMARK  4 active torsions:
REMARK  status: ('A' for Active; 'I' for Inactive)
REMARK    1  A    between atoms: C_4  and  C_7
REMARK    2  A    between atoms: C_7  and  O_8
REMARK    3  A    between atoms: O_8  and  C_9
REMARK    4  A    between atoms: C_12  and  C_15
REMARK                            x       y       z     vdW  Elec       q    Type
REMARK                         _______ _______ _______ _____ _____    ______ ____
ROOT
ATOM      1  C   UNL     1      -5.164  -0.514  -0.029  0.00  0.00    +0.000 A 
ATOM      2  C   UNL     1      -5.556   0.117  -1.210  0.00  0.00    +0.000 A 
ATOM      3  C   UNL     1      -6.844  -0.063  -1.725  0.00  0.00    +0.000 A 
ATOM      4  C   UNL     1      -7.761  -0.892  -1.071  0.00  0.00    +0.000 A 
ATOM      5  C   UNL     1      -7.366  -1.511   0.122  0.00  0.00    +0.000 A 
ATOM      6  C   UNL     1      -6.075  -1.330   0.638  0.00  0.00    +0.000 A 
ENDROOT
BRANCH   4   7
ATOM      7  C   UNL     1      -9.137  -1.087  -1.545  0.00  0.00    +0.000 C 
ATOM      8  C   UNL     1      -9.538  -1.110  -2.820  0.00  0.00    +0.000 C 
ATOM      9  F   UNL     1      -8.666  -0.958  -3.839  0.00  0.00    +0.000 F 
ATOM     10  F   UNL     1     -10.845  -1.310  -3.092  0.00  0.00    +0.000 F 
ENDBRANCH   4   7
BRANCH   1  11
ATOM     11  O   UNL     1      -3.881  -0.249   0.361  0.00  0.00    +0.000 OA
BRANCH  11  12
ATOM     12  C   UNL     1      -3.430  -0.850   1.575  0.00  0.00    +0.000 C 
BRANCH  12  16
ATOM     13  C   UNL     1       0.589   0.444   2.486  0.00  0.00    +0.000 A 
ATOM     14  C   UNL     1      -0.366   1.373   2.078  0.00  0.00    +0.000 A 
ATOM     15  C   UNL     1      -1.662   0.955   1.774  0.00  0.00    +0.000 A 
ATOM     16  C   UNL     1      -2.016  -0.400   1.865  0.00  0.00    +0.000 A 
ATOM     17  C   UNL     1      -1.049  -1.323   2.287  0.00  0.00    +0.000 A 
ATOM     18  C   UNL     1       0.248  -0.903   2.591  0.00  0.00    +0.000 A 
ENDBRANCH  12  16
ENDBRANCH  11  12
ENDBRANCH   1  11
TORSDOF 4
