REMARK  Name = *****
REMARK  5 active torsions:
REMARK  status: ('A' for Active; 'I' for Inactive)
REMARK    1  A    between atoms: C_1  and  C_2
REMARK    2  A    between atoms: C_4  and  O_8
REMARK    3  A    between atoms: O_8  and  C_9
REMARK    4  A    between atoms: C_9  and  C_11
REMARK    5  A    between atoms: C_15  and  C_18
REMARK                            x       y       z     vdW  Elec       q    Type
REMARK                         _______ _______ _______ _____ _____    ______ ____
ROOT
ATOM      1  C   UNL     1      -0.885   3.494   0.313  0.00  0.00    +0.000 C 
ATOM      2  O   UNL     1      -0.911   4.217   1.294  0.00  0.00    +0.000 OA
ENDROOT
BRANCH   1   3
ATOM      3  C   UNL     1       0.035   3.686  -0.810  0.00  0.00    +0.000 A 
ATOM      4  C   UNL     1       0.146   4.940  -1.397  0.00  0.00    +0.000 A 
ATOM      5  C   UNL     1       1.024   5.149  -2.458  0.00  0.00    +0.000 A 
ATOM      6  C   UNL     1       1.807   4.094  -2.933  0.00  0.00    +0.000 A 
ATOM      7  C   UNL     1       1.717   2.827  -2.339  0.00  0.00    +0.000 A 
ATOM      8  C   UNL     1       0.821   2.637  -1.279  0.00  0.00    +0.000 A 
ATOM      9  F   UNL     1       0.743   1.426  -0.706  0.00  0.00    +0.000 F 
ATOM     10  C   UNL     1       2.538   1.678  -2.842  0.00  0.00    +0.000 C 
ATOM     11  F   UNL     1      -0.609   5.967  -0.981  0.00  0.00    +0.000 F 
ENDBRANCH   1   3
BRANCH   1  12
ATOM     12  O   UNL     1      -1.696   2.418   0.010  0.00  0.00    +0.000 OA
BRANCH  12  16
ATOM     13  C   UNL     1      -5.871   3.468   2.443  0.00  0.00    +0.000 C 
ATOM     14  C   UNL     1      -4.681   2.591   2.190  0.00  0.00    +0.000 A 
ATOM     15  C   UNL     1      -3.728   2.947   1.228  0.00  0.00    +0.000 A 
ATOM     16  C   UNL     1      -2.635   2.111   0.999  0.00  0.00    +0.000 A 
ATOM     17  C   UNL     1      -2.494   0.901   1.674  0.00  0.00    +0.000 A 
ATOM     18  C   UNL     1      -3.450   0.537   2.620  0.00  0.00    +0.000 A 
ATOM     19  C   UNL     1      -4.538   1.376   2.875  0.00  0.00    +0.000 A 
ENDBRANCH  12  16
ENDBRANCH   1  12
TORSDOF 3
