REMARK  Name = *****
REMARK  5 active torsions:
REMARK  status: ('A' for Active; 'I' for Inactive)
REMARK    1  A    between atoms: C_1  and  O_2
REMARK    2  A    between atoms: O_2  and  C_3
REMARK    3  A    between atoms: C_8  and  N_9
REMARK    4  A    between atoms: N_9  and  S_10
REMARK    5  A    between atoms: S_10  and  C_11
REMARK                            x       y       z     vdW  Elec       q    Type
REMARK                         _______ _______ _______ _____ _____    ______ ____
ROOT
ATOM      1  N   UNL     1       4.754  -1.893   1.310  0.00  0.00    +0.000 N 
ATOM      2  H   UNL     1       4.057  -1.759   1.992  0.00  0.00    +0.000 HD
ENDROOT
BRANCH   1   8
ATOM      3  C   UNL     1       3.212  -1.352  -0.501  0.00  0.00    +0.000 A 
ATOM      4  C   UNL     1       2.778  -1.500  -1.823  0.00  0.00    +0.000 A 
ATOM      5  C   UNL     1       3.483  -2.320  -2.705  0.00  0.00    +0.000 A 
ATOM      6  C   UNL     1       4.617  -3.002  -2.272  0.00  0.00    +0.000 A 
ATOM      7  C   UNL     1       5.057  -2.859  -0.955  0.00  0.00    +0.000 A 
ATOM      8  C   UNL     1       4.380  -2.019  -0.058  0.00  0.00    +0.000 A 
BRANCH   3  10
ATOM      9  C   UNL     1       1.389   0.080   0.064  0.00  0.00    +0.000 C 
ATOM     10  O   UNL     1       2.593  -0.571   0.449  0.00  0.00    +0.000 OA
ENDBRANCH   3  10
ENDBRANCH   1   8
BRANCH   1  11
ATOM     11  S   UNL     1       6.355  -1.969   1.776  0.00  0.00    +0.000 S 
BRANCH  11  12
ATOM     12  C   UNL     1       6.147  -2.315   3.517  0.00  0.00    +0.000 A 
ATOM     13  C   UNL     1       5.257  -3.298   3.965  0.00  0.00    +0.000 A 
ATOM     14  C   UNL     1       5.123  -3.562   5.330  0.00  0.00    +0.000 A 
ATOM     15  C   UNL     1       5.881  -2.847   6.255  0.00  0.00    +0.000 A 
ATOM     16  C   UNL     1       6.775  -1.871   5.818  0.00  0.00    +0.000 A 
ATOM     17  C   UNL     1       6.910  -1.607   4.452  0.00  0.00    +0.000 A 
ENDBRANCH  11  12
ENDBRANCH   1  11
TORSDOF 4
