REMARK  Name = *****
REMARK  3 active torsions:
REMARK  status: ('A' for Active; 'I' for Inactive)
REMARK    1  A    between atoms: C_3  and  C_5
REMARK    2  A    between atoms: C_5  and  C_6
REMARK    3  A    between atoms: C_6  and  C_7
REMARK                            x       y       z     vdW  Elec       q    Type
REMARK                         _______ _______ _______ _____ _____    ______ ____
ROOT
ATOM      1  C   UNL     1       0.482  -3.356  -0.023  0.00  0.00    +0.000 C 
ENDROOT
BRANCH   1   2
ATOM      2  C   UNL     1       0.017  -4.790   0.008  0.00  0.00    +0.000 A 
ATOM      3  C   UNL     1      -0.263  -5.472  -1.184  0.00  0.00    +0.000 A 
ATOM      4  C   UNL     1      -0.711  -6.793  -1.154  0.00  0.00    +0.000 A 
ATOM      5  C   UNL     1      -0.886  -7.444   0.066  0.00  0.00    +0.000 A 
ATOM      6  C   UNL     1      -0.616  -6.773   1.257  0.00  0.00    +0.000 A 
ATOM      7  C   UNL     1      -0.169  -5.451   1.230  0.00  0.00    +0.000 A 
ENDBRANCH   1   2
BRANCH   1   8
ATOM      8  C   UNL     1      -0.685  -2.382  -0.002  0.00  0.00    +0.000 C 
BRANCH   8  11
ATOM      9  C   UNL     1       0.286   1.102  -0.107  0.00  0.00    +0.000 C 
ATOM     10  C   UNL     1       1.080  -0.217  -0.114  0.00  0.00    +0.000 C 
ATOM     11  C   UNL     1      -0.266  -0.918  -0.045  0.00  0.00    +0.000 C 
ATOM     12  C   UNL     1      -0.953   0.242  -0.036  0.00  0.00    +0.000 C 
ENDBRANCH   8  11
ENDBRANCH   1   8
TORSDOF 3
