REMARK  Name = *****
REMARK  5 active torsions:
REMARK  status: ('A' for Active; 'I' for Inactive)
REMARK    1  A    between atoms: C_1  and  O_2
REMARK    2  A    between atoms: O_2  and  N_3
REMARK    3  A    between atoms: C_4  and  C_5
REMARK    4  A    between atoms: C_10  and  C_11
REMARK    5  A    between atoms: C_12  and  C_13
REMARK                            x       y       z     vdW  Elec       q    Type
REMARK                         _______ _______ _______ _____ _____    ______ ____
ROOT
ATOM      1  C   UNL     1       5.338   0.136  -0.032  0.00  0.00    +0.000 A 
ATOM      2  C   UNL     1       4.938   0.238   1.305  0.00  0.00    +0.000 A 
ATOM      3  C   UNL     1       5.577   1.145   2.151  0.00  0.00    +0.000 A 
ATOM      4  C   UNL     1       6.617   1.937   1.666  0.00  0.00    +0.000 A 
ATOM      5  C   UNL     1       7.028   1.820   0.335  0.00  0.00    +0.000 A 
ATOM      6  C   UNL     1       6.395   0.914  -0.524  0.00  0.00    +0.000 A 
ENDROOT
BRANCH   1   8
ATOM      7  N   UNL     1       3.888  -0.645  -1.896  0.00  0.00    +0.000 NA
ATOM      8  C   UNL     1       4.645  -0.864  -0.864  0.00  0.00    +0.000 C 
BRANCH   7  10
ATOM      9  C   UNL     1       3.022   0.896  -3.355  0.00  0.00    +0.000 C 
ATOM     10  O   UNL     1       3.741   0.728  -2.140  0.00  0.00    +0.000 OA
ENDBRANCH   7  10
ENDBRANCH   1   8
BRANCH   6  11
ATOM     11  C   UNL     1       6.872   0.788  -1.869  0.00  0.00    +0.000 C 
ATOM     12  C   UNL     1       7.240   0.666  -3.006  0.00  0.00    +0.000 C 
BRANCH  12  13
ATOM     13  C   UNL     1       7.634   0.497  -4.369  0.00  0.00    +0.000 A 
ATOM     14  C   UNL     1       8.745   1.178  -4.872  0.00  0.00    +0.000 A 
ATOM     15  C   UNL     1       9.122   1.008  -6.206  0.00  0.00    +0.000 A 
ATOM     16  C   UNL     1       8.391   0.157  -7.035  0.00  0.00    +0.000 A 
ATOM     17  C   UNL     1       7.281  -0.523  -6.534  0.00  0.00    +0.000 A 
ATOM     18  C   UNL     1       6.902  -0.354  -5.201  0.00  0.00    +0.000 A 
ENDBRANCH  12  13
ENDBRANCH   6  11
TORSDOF 4
