REMARK  Name = *****
REMARK  3 active torsions:
REMARK  status: ('A' for Active; 'I' for Inactive)
REMARK    1  A    between atoms: C_1  and  C_2
REMARK    2  A    between atoms: C_2  and  S_7
REMARK    3  A    between atoms: S_7  and  C_8
REMARK                            x       y       z     vdW  Elec       q    Type
REMARK                         _______ _______ _______ _____ _____    ______ ____
ROOT
ATOM      1  C   UNL     1       2.888  -1.699   1.641  0.00  0.00    +0.000 A 
ATOM      2  N   UNL     1       3.038  -2.250   0.452  0.00  0.00    +0.000 NA
ATOM      3  C   UNL     1       3.881  -3.306   0.677  0.00  0.00    +0.000 A 
ATOM      4  C   UNL     1       4.409  -4.268  -0.194  0.00  0.00    +0.000 A 
ATOM      5  C   UNL     1       5.261  -5.247   0.342  0.00  0.00    +0.000 A 
ATOM      6  C   UNL     1       5.577  -5.264   1.707  0.00  0.00    +0.000 A 
ATOM      7  C   UNL     1       5.057  -4.307   2.588  0.00  0.00    +0.000 A 
ATOM      8  C   UNL     1       4.219  -3.358   2.017  0.00  0.00    +0.000 A 
ATOM      9  O   UNL     1       3.587  -2.327   2.644  0.00  0.00    +0.000 OA
ENDROOT
BRANCH   1  10
ATOM     10  S   UNL     1       1.912  -0.298   1.977  0.00  0.00    +0.000 S 
BRANCH  10  12
ATOM     11  C   UNL     1       1.861   0.524  -0.668  0.00  0.00    +0.000 C 
ATOM     12  C   UNL     1       0.952  -0.030   0.440  0.00  0.00    +0.000 C 
ATOM     13  C   UNL     1       0.142  -1.255  -0.009  0.00  0.00    +0.000 C 
ATOM     14  C   UNL     1      -1.039  -0.692  -0.800  0.00  0.00    +0.000 C 
ATOM     15  C   UNL     1      -1.223   0.748  -0.330  0.00  0.00    +0.000 C 
ATOM     16  C   UNL     1      -0.176   0.970   0.759  0.00  0.00    +0.000 C 
ENDBRANCH  10  12
ENDBRANCH   1  10
TORSDOF 2
