REMARK  Name = *****
REMARK  4 active torsions:
REMARK  status: ('A' for Active; 'I' for Inactive)
REMARK    1  A    between atoms: C_1  and  C_2
REMARK    2  A    between atoms: C_5  and  C_8
REMARK    3  A    between atoms: C_8  and  C_10
REMARK    4  A    between atoms: C_11  and  C_12
REMARK                            x       y       z     vdW  Elec       q    Type
REMARK                         _______ _______ _______ _____ _____    ______ ____
ROOT
ATOM      1  C   UNL     1      -3.128   0.154  -0.617  0.00  0.00    +0.000 C 
ATOM      2  O   UNL     1      -3.464  -0.547  -1.563  0.00  0.00    +0.000 OA
ENDROOT
BRANCH   1   7
ATOM      3  C   UNL     1       2.283  -0.348   1.419  0.00  0.00    +0.000 C 
ATOM      4  C   UNL     1       0.888  -0.191   0.889  0.00  0.00    +0.000 A 
ATOM      5  C   UNL     1       0.560  -0.620  -0.402  0.00  0.00    +0.000 A 
ATOM      6  C   UNL     1      -0.748  -0.495  -0.877  0.00  0.00    +0.000 A 
ATOM      7  C   UNL     1      -1.746   0.061  -0.068  0.00  0.00    +0.000 A 
ATOM      8  C   UNL     1      -1.427   0.467   1.234  0.00  0.00    +0.000 A 
ATOM      9  C   UNL     1      -0.116   0.342   1.706  0.00  0.00    +0.000 A 
ENDBRANCH   1   7
BRANCH   1  10
ATOM     10  C   UNL     1      -4.038   1.172  -0.019  0.00  0.00    +0.000 C 
ATOM     11  C   UNL     1      -5.376   1.087   0.056  0.00  0.00    +0.000 C 
BRANCH  11  12
ATOM     12  C   UNL     1      -6.243  -0.029  -0.342  0.00  0.00    +0.000 A 
ATOM     13  C   UNL     1      -5.995  -1.347   0.069  0.00  0.00    +0.000 A 
ATOM     14  C   UNL     1      -6.870  -2.376  -0.285  0.00  0.00    +0.000 A 
ATOM     15  C   UNL     1      -8.003  -2.085  -1.035  0.00  0.00    +0.000 A 
ATOM     16  C   UNL     1      -8.278  -0.784  -1.436  0.00  0.00    +0.000 A 
ATOM     17  C   UNL     1      -7.401   0.245  -1.085  0.00  0.00    +0.000 A 
ATOM     18  F   UNL     1      -8.846  -3.071  -1.369  0.00  0.00    +0.000 F 
ENDBRANCH  11  12
ENDBRANCH   1  10
TORSDOF 3
