REMARK  Name = *****
REMARK  3 active torsions:
REMARK  status: ('A' for Active; 'I' for Inactive)
REMARK    1  A    between atoms: C_1  and  C_2
REMARK    2  A    between atoms: C_7  and  C_8
REMARK    3  A    between atoms: N_10  and  C_11
REMARK                            x       y       z     vdW  Elec       q    Type
REMARK                         _______ _______ _______ _____ _____    ______ ____
ROOT
ATOM      1  C   UNL     1       2.929  -3.589  -1.115  0.00  0.00    +0.000 A 
ATOM      2  C   UNL     1       2.431  -4.894  -0.966  0.00  0.00    +0.000 A 
ATOM      3  C   UNL     1       2.764  -5.905  -1.868  0.00  0.00    +0.000 A 
ATOM      4  C   UNL     1       3.608  -5.646  -2.935  0.00  0.00    +0.000 A 
ATOM      5  C   UNL     1       4.128  -4.376  -3.103  0.00  0.00    +0.000 A 
ATOM      6  C   UNL     1       3.797  -3.366  -2.204  0.00  0.00    +0.000 A 
ATOM      7  F   UNL     1       4.313  -2.141  -2.403  0.00  0.00    +0.000 F 
ATOM      8  F   UNL     1       4.948  -4.117  -4.131  0.00  0.00    +0.000 F 
ATOM      9  F   UNL     1       3.924  -6.623  -3.797  0.00  0.00    +0.000 F 
ATOM     10  F   UNL     1       2.270  -7.140  -1.695  0.00  0.00    +0.000 F 
ATOM     11  F   UNL     1       1.628  -5.226   0.056  0.00  0.00    +0.000 F 
ENDROOT
BRANCH   1  14
ATOM     12  C   UNL     1       1.295  -1.949  -0.100  0.00  0.00    +0.000 C 
ATOM     13  C   UNL     1       2.048  -2.597   1.033  0.00  0.00    +0.000 C 
ATOM     14  N   UNL     1       2.668  -2.472  -0.276  0.00  0.00    +0.000 N 
BRANCH  12  21
ATOM     15  C   UNL     1       0.691  -1.532  -3.036  0.00  0.00    +0.000 C 
ATOM     16  C   UNL     1      -0.189  -2.376  -2.151  0.00  0.00    +0.000 A 
ATOM     17  C   UNL     1      -1.304  -2.999  -2.743  0.00  0.00    +0.000 A 
ATOM     18  C   UNL     1      -2.166  -3.789  -1.988  0.00  0.00    +0.000 A 
ATOM     19  C   UNL     1      -1.924  -3.967  -0.633  0.00  0.00    +0.000 A 
ATOM     20  C   UNL     1      -0.812  -3.365  -0.041  0.00  0.00    +0.000 A 
ATOM     21  C   UNL     1       0.099  -2.582  -0.779  0.00  0.00    +0.000 A 
ENDBRANCH  12  21
ENDBRANCH   1  14
TORSDOF 2
