REMARK  Name = *****
REMARK  2 active torsions:
REMARK  status: ('A' for Active; 'I' for Inactive)
REMARK    1  A    between atoms: C_1  and  C_2
REMARK    2  A    between atoms: C_5  and  C_8
REMARK                            x       y       z     vdW  Elec       q    Type
REMARK                         _______ _______ _______ _____ _____    ______ ____
ROOT
ATOM      1  C   UNL     1      -3.319   0.080  -0.163  0.00  0.00    +0.000 A 
ATOM      2  N   UNL     1      -4.107   1.134  -0.295  0.00  0.00    +0.000 NA
ATOM      3  C   UNL     1      -5.369   0.601  -0.313  0.00  0.00    +0.000 A 
ATOM      4  C   UNL     1      -5.300  -0.777  -0.185  0.00  0.00    +0.000 A 
ATOM      5  O   UNL     1      -3.984  -1.120  -0.088  0.00  0.00    +0.000 OA
ATOM      6  C   UNL     1      -6.395  -1.629  -0.164  0.00  0.00    +0.000 A 
ATOM      7  C   UNL     1      -7.634  -0.999  -0.287  0.00  0.00    +0.000 A 
ATOM      8  C   UNL     1      -7.760   0.386  -0.420  0.00  0.00    +0.000 A 
ATOM      9  C   UNL     1      -6.625   1.211  -0.435  0.00  0.00    +0.000 A 
ATOM     10  F   UNL     1      -8.743  -1.750  -0.277  0.00  0.00    +0.000 F 
ENDROOT
BRANCH   1  15
ATOM     11  C   UNL     1       2.463  -0.045   0.076  0.00  0.00    +0.000 C 
ATOM     12  C   UNL     1       0.964  -0.010   0.029  0.00  0.00    +0.000 A 
ATOM     13  C   UNL     1       0.275   1.203  -0.064  0.00  0.00    +0.000 A 
ATOM     14  C   UNL     1      -1.122   1.220  -0.123  0.00  0.00    +0.000 A 
ATOM     15  C   UNL     1      -1.860   0.028  -0.093  0.00  0.00    +0.000 A 
ATOM     16  C   UNL     1      -1.163  -1.185  -0.002  0.00  0.00    +0.000 A 
ATOM     17  C   UNL     1       0.235  -1.204   0.057  0.00  0.00    +0.000 A 
ENDBRANCH   1  15
TORSDOF 1
