REMARK  Name = *****
REMARK  5 active torsions:
REMARK  status: ('A' for Active; 'I' for Inactive)
REMARK    1  A    between atoms: C_1  and  C_2
REMARK    2  A    between atoms: C_5  and  S_8
REMARK    3  A    between atoms: S_8  and  C_9
REMARK    4  A    between atoms: C_9  and  C_10
REMARK    5  A    between atoms: C_9  and  C_12
REMARK                            x       y       z     vdW  Elec       q    Type
REMARK                         _______ _______ _______ _____ _____    ______ ____
ROOT
ATOM      1  C   UNL     1      -4.070   1.594  -0.589  0.00  0.00    +0.000 C 
ENDROOT
BRANCH   1   2
ATOM      2  C   UNL     1      -5.610   1.742  -0.489  0.00  0.00    +0.000 C 
ATOM      3  C   UNL     1      -6.273   1.066   0.680  0.00  0.00    +0.000 C 
ATOM      4  O   UNL     1      -6.814  -0.126   0.140  0.00  0.00    +0.000 OA
ATOM      5  C   UNL     1      -6.893   0.032  -1.212  0.00  0.00    +0.000 C 
ATOM      6  O   UNL     1      -7.449  -0.746  -1.967  0.00  0.00    +0.000 OA
ATOM      7  O   UNL     1      -6.279   1.183  -1.613  0.00  0.00    +0.000 OA
ENDBRANCH   1   2
BRANCH   1   8
ATOM      8  C   UNL     1      -3.519   2.230  -1.876  0.00  0.00    +0.000 C 
ATOM      9 CL   UNL     1      -3.770   4.001  -1.890  0.00  0.00    +0.000 Cl
ENDBRANCH   1   8
BRANCH   1  10
ATOM     10  S   UNL     1      -3.522  -0.178  -0.516  0.00  0.00    +0.000 S 
BRANCH  10  15
ATOM     11  C   UNL     1       2.472   0.391   0.437  0.00  0.00    +0.000 C 
ATOM     12  C   UNL     1       0.996   0.281   0.196  0.00  0.00    +0.000 A 
ATOM     13  C   UNL     1       0.085   0.792   1.128  0.00  0.00    +0.000 A 
ATOM     14  C   UNL     1      -1.291   0.658   0.923  0.00  0.00    +0.000 A 
ATOM     15  C   UNL     1      -1.774   0.012  -0.218  0.00  0.00    +0.000 A 
ATOM     16  C   UNL     1      -0.867  -0.529  -1.132  0.00  0.00    +0.000 A 
ATOM     17  C   UNL     1       0.508  -0.396  -0.927  0.00  0.00    +0.000 A 
ENDBRANCH  10  15
ENDBRANCH   1  10
TORSDOF 4
