REMARK  Name = *****
REMARK  2 active torsions:
REMARK  status: ('A' for Active; 'I' for Inactive)
REMARK    1  A    between atoms: C_6  and  C_7
REMARK    2  A    between atoms: C_7  and  C_8
REMARK                            x       y       z     vdW  Elec       q    Type
REMARK                         _______ _______ _______ _____ _____    ______ ____
ROOT
ATOM      1  C   UNL     1       1.102  -3.257   0.260  0.00  0.00    +0.000 C 
ENDROOT
BRANCH   1   2
ATOM      2  C   UNL     1       1.227  -4.707   0.469  0.00  0.00    +0.000 A 
ATOM      3  C   UNL     1       0.292  -5.622  -0.036  0.00  0.00    +0.000 A 
ATOM      4  C   UNL     1       0.465  -6.996   0.159  0.00  0.00    +0.000 A 
ATOM      5  C   UNL     1       1.579  -7.464   0.851  0.00  0.00    +0.000 A 
ATOM      6  C   UNL     1       2.525  -6.570   1.345  0.00  0.00    +0.000 A 
ATOM      7  C   UNL     1       2.352  -5.196   1.149  0.00  0.00    +0.000 A 
ATOM      8 CL   UNL     1       1.792  -9.154   1.090  0.00  0.00    +0.000 Cl
ENDBRANCH   1   2
BRANCH   1  14
ATOM      9  C   UNL     1      -1.295   0.851  -0.176  0.00  0.00    +0.000 C 
ATOM     10  C   UNL     1       0.089   1.331   0.225  0.00  0.00    +0.000 C 
ATOM     11  S   UNL     1       1.117  -0.100  -0.145  0.00  0.00    +0.000 S 
ATOM     12  C   UNL     1      -0.260  -1.146   0.090  0.00  0.00    +0.000 C 
ATOM     13  N   UNL     1      -1.428  -0.592   0.108  0.00  0.00    +0.000 NA
ATOM     14  C   UNL     1      -0.068  -2.601   0.285  0.00  0.00    +0.000 C 
ENDBRANCH   1  14
TORSDOF 2
