REMARK  Name = *****
REMARK  6 active torsions:
REMARK  status: ('A' for Active; 'I' for Inactive)
REMARK    1  A    between atoms: C_1  and  C_2
REMARK    2  A    between atoms: C_3  and  N_9
REMARK    3  A    between atoms: C_4  and  C_8
REMARK    4  A    between atoms: N_9  and  S_10
REMARK    5  A    between atoms: S_10  and  C_12
REMARK    6  A    between atoms: S_10  and  C_13
REMARK                            x       y       z     vdW  Elec       q    Type
REMARK                         _______ _______ _______ _____ _____    ______ ____
ROOT
ATOM      1  N   UNL     1       0.262   2.439   0.161  0.00  0.00    +0.000 NA
ENDROOT
BRANCH   1   4
ATOM      2  C   UNL     1       2.574   0.948   1.339  0.00  0.00    +0.000 C 
ATOM      3  C   UNL     1       1.392   0.288   0.682  0.00  0.00    +0.000 A 
ATOM      4  C   UNL     1       0.304   1.006   0.148  0.00  0.00    +0.000 A 
ATOM      5  C   UNL     1      -0.816   0.311  -0.357  0.00  0.00    +0.000 A 
ATOM      6  C   UNL     1      -0.788  -1.091  -0.423  0.00  0.00    +0.000 A 
ATOM      7  C   UNL     1       0.315  -1.799   0.043  0.00  0.00    +0.000 A 
ATOM      8  C   UNL     1       1.394  -1.116   0.597  0.00  0.00    +0.000 A 
ATOM      9  C   UNL     1      -2.034   1.034  -0.867  0.00  0.00    +0.000 C 
ENDBRANCH   1   4
BRANCH   1  10
ATOM     10  S   UNL     1       1.194   3.271  -0.751  0.00  0.00    +0.000 S 
ATOM     11  O   UNL     1       2.605   3.013  -0.972  0.00  0.00    +0.000 OA
ATOM     12  C   UNL     1       0.449   3.377  -2.360  0.00  0.00    +0.000 C 
BRANCH  10  13
ATOM     13  C   UNL     1       1.066   4.954  -0.165  0.00  0.00    +0.000 A 
ATOM     14  C   UNL     1      -0.187   5.468   0.186  0.00  0.00    +0.000 A 
ATOM     15  C   UNL     1      -0.290   6.786   0.629  0.00  0.00    +0.000 A 
ATOM     16  C   UNL     1       0.853   7.582   0.723  0.00  0.00    +0.000 A 
ATOM     17  C   UNL     1       2.103   7.061   0.382  0.00  0.00    +0.000 A 
ATOM     18  C   UNL     1       2.215   5.743  -0.061  0.00  0.00    +0.000 A 
ENDBRANCH  10  13
ENDBRANCH   1  10
TORSDOF 3
