REMARK  Name = *****
REMARK  1 active torsions:
REMARK  status: ('A' for Active; 'I' for Inactive)
REMARK    1  A    between atoms: C_4  and  C_7
REMARK                            x       y       z     vdW  Elec       q    Type
REMARK                         _______ _______ _______ _____ _____    ______ ____
ROOT
ATOM      1  C   UNL     1      -3.057   0.221  -0.472  0.00  0.00    +0.000 A 
ATOM      2  N   UNL     1      -3.845   1.120  -1.039  0.00  0.00    +0.000 NA
ATOM      3  C   UNL     1      -5.110   0.681  -0.741  0.00  0.00    +0.000 A 
ATOM      4  C   UNL     1      -6.368   1.206  -1.063  0.00  0.00    +0.000 A 
ATOM      5  C   UNL     1      -7.506   0.521  -0.609  0.00  0.00    +0.000 A 
ATOM      6  C   UNL     1      -7.391  -0.655   0.145  0.00  0.00    +0.000 A 
ATOM      7  C   UNL     1      -6.140  -1.192   0.473  0.00  0.00    +0.000 A 
ATOM      8  C   UNL     1      -5.040  -0.484   0.005  0.00  0.00    +0.000 A 
ATOM      9  O   UNL     1      -3.723  -0.787   0.182  0.00  0.00    +0.000 OA
ENDROOT
BRANCH   1  13
ATOM     10  C   UNL     1       1.216   0.106  -0.448  0.00  0.00    +0.000 A 
ATOM     11  C   UNL     1       0.541   1.143  -1.088  0.00  0.00    +0.000 A 
ATOM     12  C   UNL     1      -0.856   1.171  -1.090  0.00  0.00    +0.000 A 
ATOM     13  C   UNL     1      -1.597   0.163  -0.453  0.00  0.00    +0.000 A 
ATOM     14  C   UNL     1      -0.901  -0.874   0.187  0.00  0.00    +0.000 A 
ATOM     15  C   UNL     1       0.496  -0.902   0.189  0.00  0.00    +0.000 A 
ENDBRANCH   1  13
TORSDOF 1
