REMARK  Name = *****
REMARK  4 active torsions:
REMARK  status: ('A' for Active; 'I' for Inactive)
REMARK    1  A    between atoms: C_1  and  C_2
REMARK    2  A    between atoms: C_4  and  C_8
REMARK    3  A    between atoms: C_8  and  O_10
REMARK    4  A    between atoms: O_10  and  C_11
REMARK                            x       y       z     vdW  Elec       q    Type
REMARK                         _______ _______ _______ _____ _____    ______ ____
ROOT
ATOM      1  C   UNL     1      -1.887   2.433  -0.622  0.00  0.00    +0.000 C 
ATOM      2  O   UNL     1      -3.054   2.391  -0.976  0.00  0.00    +0.000 OA
ENDROOT
BRANCH   1   6
ATOM      3  C   UNL     1       2.491   0.177   0.521  0.00  0.00    +0.000 C 
ATOM      4  C   UNL     1       1.013   0.117   0.269  0.00  0.00    +0.000 A 
ATOM      5  C   UNL     1       0.292   1.284  -0.026  0.00  0.00    +0.000 A 
ATOM      6  C   UNL     1      -1.083   1.223  -0.298  0.00  0.00    +0.000 A 
ATOM      7  C   UNL     1      -1.733  -0.018  -0.285  0.00  0.00    +0.000 A 
ATOM      8  C   UNL     1      -1.019  -1.182  -0.004  0.00  0.00    +0.000 A 
ATOM      9  C   UNL     1       0.348  -1.115   0.267  0.00  0.00    +0.000 A 
ENDBRANCH   1   6
BRANCH   1  10
ATOM     10  O   UNL     1      -1.141   3.553  -0.465  0.00  0.00    +0.000 OA
BRANCH  10  11
ATOM     11  C   UNL     1      -1.799   4.788  -0.787  0.00  0.00    +0.000 C 
ATOM     12  C   UNL     1      -1.730   5.017  -2.305  0.00  0.00    +0.000 C 
ATOM     13  C   UNL     1      -1.996   6.476  -2.665  0.00  0.00    +0.000 C 
ATOM     14  C   UNL     1      -0.985   7.407  -1.991  0.00  0.00    +0.000 C 
ATOM     15  C   UNL     1      -0.715   7.043  -0.560  0.00  0.00    +0.000 C 
ATOM     16  C   UNL     1      -1.091   5.873  -0.019  0.00  0.00    +0.000 C 
ENDBRANCH  10  11
ENDBRANCH   1  10
TORSDOF 3
