REMARK  Name = *****
REMARK  1 active torsions:
REMARK  status: ('A' for Active; 'I' for Inactive)
REMARK    1  A    between atoms: C_1  and  N_2
REMARK                            x       y       z     vdW  Elec       q    Type
REMARK                         _______ _______ _______ _____ _____    ______ ____
ROOT
ATOM      1  C   UNL     1       3.154   2.121  -0.943  0.00  0.00    +0.000 C 
ATOM      2  N   UNL     1       4.364   2.212  -0.131  0.00  0.00    +0.000 N 
ATOM      3  C   UNL     1       5.374   3.095  -0.662  0.00  0.00    +0.000 A 
ATOM      4  C   UNL     1       5.509   4.441  -0.212  0.00  0.00    +0.000 A 
ATOM      5  C   UNL     1       6.472   5.278  -0.768  0.00  0.00    +0.000 A 
ATOM      6  C   UNL     1       7.285   4.784  -1.782  0.00  0.00    +0.000 A 
ATOM      7  C   UNL     1       7.148   3.479  -2.256  0.00  0.00    +0.000 A 
ATOM      8  C   UNL     1       6.185   2.633  -1.702  0.00  0.00    +0.000 A 
ATOM      9  F   UNL     1       8.209   5.584  -2.330  0.00  0.00    +0.000 F 
ATOM     10  C   UNL     1       4.582   4.929   0.763  0.00  0.00    +0.000 C 
ATOM     11  C   UNL     1       3.677   4.745   1.528  0.00  0.00    +0.000 C 
ATOM     12  C   UNL     1       2.785   3.817   2.148  0.00  0.00    +0.000 A 
ATOM     13  C   UNL     1       3.066   2.438   1.983  0.00  0.00    +0.000 A 
ATOM     14  C   UNL     1       4.315   2.046   1.266  0.00  0.00    +0.000 C 
ATOM     15  O   UNL     1       5.279   1.708   1.949  0.00  0.00    +0.000 OA
ATOM     16  C   UNL     1       2.258   1.468   2.575  0.00  0.00    +0.000 A 
ATOM     17  C   UNL     1       1.133   1.880   3.293  0.00  0.00    +0.000 A 
ATOM     18  C   UNL     1       0.848   3.241   3.427  0.00  0.00    +0.000 A 
ATOM     19  C   UNL     1       1.664   4.220   2.864  0.00  0.00    +0.000 A 
ATOM     20  F   UNL     1      -0.237   3.615   4.118  0.00  0.00    +0.000 F 
ENDROOT
TORSDOF 0
