REMARK  Name = *****
REMARK  1 active torsions:
REMARK  status: ('A' for Active; 'I' for Inactive)
REMARK    1  A    between atoms: N_3  and  C_11
REMARK                            x       y       z     vdW  Elec       q    Type
REMARK                         _______ _______ _______ _____ _____    ______ ____
ROOT
ATOM      1  C   UNL     1      -1.316   1.357   0.198  0.00  0.00    +0.000 C 
ATOM      2  C   UNL     1      -2.502   0.628  -0.439  0.00  0.00    +0.000 C 
ATOM      3  N   UNL     1      -2.633  -0.719   0.122  0.00  0.00    +0.000 N 
ATOM      4  S   UNL     1      -1.433  -1.799  -0.344  0.00  0.00    +0.000 S 
ATOM      5  C   UNL     1       0.035  -0.788  -0.133  0.00  0.00    +0.000 A 
ATOM      6  C   UNL     1       1.277  -1.433  -0.208  0.00  0.00    +0.000 A 
ATOM      7  C   UNL     1       2.464  -0.714  -0.062  0.00  0.00    +0.000 A 
ATOM      8  C   UNL     1       2.421   0.658   0.162  0.00  0.00    +0.000 A 
ATOM      9  C   UNL     1       1.192   1.313   0.236  0.00  0.00    +0.000 A 
ATOM     10  C   UNL     1      -0.011   0.603   0.077  0.00  0.00    +0.000 A 
ENDROOT
BRANCH   3  11
ATOM     11  C   UNL     1      -3.455  -0.970   1.242  0.00  0.00    +0.000 A 
ATOM     12  C   UNL     1      -3.741  -2.285   1.663  0.00  0.00    +0.000 A 
ATOM     13  C   UNL     1      -4.563  -2.557   2.764  0.00  0.00    +0.000 A 
ATOM     14  C   UNL     1      -5.132  -1.514   3.482  0.00  0.00    +0.000 A 
ATOM     15  C   UNL     1      -4.879  -0.205   3.095  0.00  0.00    +0.000 A 
ATOM     16  C   UNL     1      -4.056   0.059   1.990  0.00  0.00    +0.000 A 
ENDBRANCH   3  11
TORSDOF 1
