REMARK  Name = *****
REMARK  4 active torsions:
REMARK  status: ('A' for Active; 'I' for Inactive)
REMARK    1  A    between atoms: C_1  and  C_2
REMARK    2  A    between atoms: C_3  and  C_12
REMARK    3  A    between atoms: C_4  and  C_5
REMARK    4  A    between atoms: C_4  and  C_6
REMARK                            x       y       z     vdW  Elec       q    Type
REMARK                         _______ _______ _______ _____ _____    ______ ____
ROOT
ATOM      1  C   UNL     1       1.146   0.226  -0.004  0.00  0.00    +0.000 C 
ATOM      2  C   UNL     1       2.570  -0.164  -0.214  0.00  0.00    +0.000 C 
ATOM      3  C   UNL     1       3.492   0.494  -1.218  0.00  0.00    +0.000 C 
ATOM      4  C   UNL     1       3.019  -0.957  -1.438  0.00  0.00    +0.000 C 
ATOM      5  C   UNL     1       2.001  -1.295  -2.507  0.00  0.00    +0.000 C 
ENDROOT
BRANCH   4   6
ATOM      6  C   UNL     1       4.051  -2.066  -1.222  0.00  0.00    +0.000 A 
ATOM      7  C   UNL     1       3.817  -3.118  -0.319  0.00  0.00    +0.000 A 
ATOM      8  C   UNL     1       4.752  -4.138  -0.130  0.00  0.00    +0.000 A 
ATOM      9  C   UNL     1       5.945  -4.130  -0.847  0.00  0.00    +0.000 A 
ATOM     10  C   UNL     1       6.200  -3.105  -1.753  0.00  0.00    +0.000 A 
ATOM     11  C   UNL     1       5.261  -2.087  -1.938  0.00  0.00    +0.000 A 
ENDBRANCH   4   6
BRANCH   3  12
ATOM     12  C   UNL     1       3.071   1.631  -2.121  0.00  0.00    +0.000 A 
ATOM     13  C   UNL     1       2.512   2.812  -1.603  0.00  0.00    +0.000 A 
ATOM     14  C   UNL     1       2.156   3.880  -2.433  0.00  0.00    +0.000 A 
ATOM     15  C   UNL     1       2.369   3.795  -3.805  0.00  0.00    +0.000 A 
ATOM     16  C   UNL     1       2.945   2.649  -4.343  0.00  0.00    +0.000 A 
ATOM     17  C   UNL     1       3.298   1.587  -3.507  0.00  0.00    +0.000 A 
ENDBRANCH   3  12
TORSDOF 2
