REMARK  Name = *****
REMARK  4 active torsions:
REMARK  status: ('A' for Active; 'I' for Inactive)
REMARK    1  A    between atoms: C_1  and  C_2
REMARK    2  A    between atoms: N_7  and  C_8
REMARK    3  A    between atoms: C_8  and  C_9
REMARK    4  A    between atoms: C_8  and  C_10
REMARK                            x       y       z     vdW  Elec       q    Type
REMARK                         _______ _______ _______ _____ _____    ______ ____
ROOT
ATOM      1  C   UNL     1       1.027   2.575   0.797  0.00  0.00    +0.000 C 
ATOM      2  C   UNL     1       2.455   2.329   1.290  0.00  0.00    +0.000 C 
ENDROOT
BRANCH   1   9
ATOM      3  C   UNL     1      -0.679  -1.036   2.540  0.00  0.00    +0.000 C 
ATOM      4  C   UNL     1      -0.960  -0.653   1.099  0.00  0.00    +0.000 C 
ATOM      5  C   UNL     1      -0.629  -1.777   0.116  0.00  0.00    +0.000 C 
ATOM      6  C   UNL     1      -0.374  -1.058  -1.201  0.00  0.00    +0.000 C 
ATOM      7  C   UNL     1       0.431   0.178  -0.817  0.00  0.00    +0.000 C 
ATOM      8  C   UNL     1      -0.075   0.463   0.576  0.00  0.00    +0.000 C 
ATOM      9  N   UNL     1       0.166   1.499   1.298  0.00  0.00    +0.000 NA
ENDBRANCH   1   9
BRANCH   1  10
ATOM     10  C   UNL     1       0.526   3.930   1.273  0.00  0.00    +0.000 A 
ATOM     11  C   UNL     1       0.370   4.988   0.364  0.00  0.00    +0.000 A 
ATOM     12  C   UNL     1      -0.078   6.238   0.798  0.00  0.00    +0.000 A 
ATOM     13  C   UNL     1      -0.373   6.447   2.144  0.00  0.00    +0.000 A 
ATOM     14  C   UNL     1      -0.223   5.406   3.057  0.00  0.00    +0.000 A 
ATOM     15  C   UNL     1       0.222   4.156   2.624  0.00  0.00    +0.000 A 
ENDBRANCH   1  10
TORSDOF 2
