REMARK  Name = *****
REMARK  5 active torsions:
REMARK  status: ('A' for Active; 'I' for Inactive)
REMARK    1  A    between atoms: N_2  and  C_3
REMARK    2  A    between atoms: C_6  and  C_9
REMARK    3  A    between atoms: C_9  and  C_10
REMARK    4  A    between atoms: C_10  and  C_11
REMARK    5  A    between atoms: C_13  and  N_17
REMARK                            x       y       z     vdW  Elec       q    Type
REMARK                         _______ _______ _______ _____ _____    ______ ____
ROOT
ATOM      1  C   UNL     1       3.643   0.006   0.675  0.00  0.00    +0.000 C 
ENDROOT
BRANCH   1   5
ATOM      2  C   UNL     1      -0.568  -0.044  -0.166  0.00  0.00    +0.000 A 
ATOM      3  C   UNL     1      -0.057  -0.904   0.802  0.00  0.00    +0.000 A 
ATOM      4  C   UNL     1       1.311  -0.883   1.075  0.00  0.00    +0.000 A 
ATOM      5  C   UNL     1       2.162  -0.006   0.382  0.00  0.00    +0.000 A 
ATOM      6  C   UNL     1       1.624   0.847  -0.594  0.00  0.00    +0.000 A 
ATOM      7  C   UNL     1       0.256   0.832  -0.868  0.00  0.00    +0.000 A 
BRANCH   2   9
ATOM      8  C   UNL     1      -3.079  -0.074  -0.664  0.00  0.00    +0.000 C 
ATOM      9  N   UNL     1      -1.929  -0.060  -0.436  0.00  0.00    +0.000 NA
ENDBRANCH   2   9
ENDBRANCH   1   5
BRANCH   1  10
ATOM     10  C   UNL     1       4.369  -1.166   0.008  0.00  0.00    +0.000 C 
BRANCH  10  11
ATOM     11  C   UNL     1       5.850  -1.141   0.297  0.00  0.00    +0.000 A 
ATOM     12  C   UNL     1       6.741  -0.551  -0.607  0.00  0.00    +0.000 A 
ATOM     13  C   UNL     1       8.103  -0.523  -0.309  0.00  0.00    +0.000 A 
ATOM     14  C   UNL     1       8.604  -1.063   0.873  0.00  0.00    +0.000 A 
ATOM     15  C   UNL     1       7.719  -1.646   1.777  0.00  0.00    +0.000 A 
ATOM     16  C   UNL     1       6.350  -1.684   1.492  0.00  0.00    +0.000 A 
BRANCH  13  17
ATOM     17  N   UNL     1       8.982   0.062  -1.211  0.00  0.00    +0.000 NA
ATOM     18  C   UNL     1       9.722   0.556  -1.974  0.00  0.00    +0.000 C 
ENDBRANCH  13  17
ENDBRANCH  10  11
ENDBRANCH   1  10
TORSDOF 5
