REMARK  Name = *****
REMARK  5 active torsions:
REMARK  status: ('A' for Active; 'I' for Inactive)
REMARK    1  A    between atoms: C_1  and  C_2
REMARK    2  A    between atoms: C_5  and  C_7
REMARK    3  A    between atoms: C_7  and  C_8
REMARK    4  A    between atoms: C_8  and  C_9
REMARK    5  A    between atoms: C_9  and  C_10
REMARK                            x       y       z     vdW  Elec       q    Type
REMARK                         _______ _______ _______ _____ _____    ______ ____
ROOT
ATOM      1  C   UNL     1       3.874  -1.067   0.496  0.00  0.00    +0.000 C 
ENDROOT
BRANCH   1   2
ATOM      2  C   UNL     1       2.431  -1.460   0.822  0.00  0.00    +0.000 C 
BRANCH   2   7
ATOM      3  C   UNL     1      -2.298   0.053  -0.173  0.00  0.00    +0.000 C 
ATOM      4  C   UNL     1      -0.819   0.087  -0.032  0.00  0.00    +0.000 C 
ATOM      5  C   UNL     1      -0.025   1.164  -0.079  0.00  0.00    +0.000 C 
ATOM      6  C   UNL     1       1.406   0.808   0.153  0.00  0.00    +0.000 C 
ATOM      7  C   UNL     1       1.409  -0.715  -0.043  0.00  0.00    +0.000 C 
ATOM      8  C   UNL     1      -0.036  -1.161   0.236  0.00  0.00    +0.000 C 
ENDBRANCH   2   7
ENDBRANCH   1   2
BRANCH   1   9
ATOM      9  C   UNL     1       4.868  -1.863   1.345  0.00  0.00    +0.000 C 
BRANCH   9  10
ATOM     10  C   UNL     1       6.294  -1.475   1.043  0.00  0.00    +0.000 A 
ATOM     11  C   UNL     1       6.902  -0.415   1.728  0.00  0.00    +0.000 A 
ATOM     12  C   UNL     1       8.216  -0.045   1.435  0.00  0.00    +0.000 A 
ATOM     13  C   UNL     1       8.931  -0.727   0.453  0.00  0.00    +0.000 A 
ATOM     14  C   UNL     1       8.333  -1.779  -0.239  0.00  0.00    +0.000 A 
ATOM     15  C   UNL     1       7.020  -2.150   0.052  0.00  0.00    +0.000 A 
ENDBRANCH   9  10
ENDBRANCH   1   9
TORSDOF 4
