REMARK  Name = *****
REMARK  3 active torsions:
REMARK  status: ('A' for Active; 'I' for Inactive)
REMARK    1  A    between atoms: C_5  and  C_7
REMARK    2  A    between atoms: C_7  and  O_9
REMARK    3  A    between atoms: O_9  and  C_10
REMARK                            x       y       z     vdW  Elec       q    Type
REMARK                         _______ _______ _______ _____ _____    ______ ____
ROOT
ATOM      1  C   UNL     1       0.911  -2.166  -0.741  0.00  0.00    +0.000 C 
ATOM      2  O   UNL     1       0.493  -3.309  -0.617  0.00  0.00    +0.000 OA
ENDROOT
BRANCH   1   7
ATOM      3  C   UNL     1      -1.881  -0.085   0.695  0.00  0.00    +0.000 A 
ATOM      4  C   UNL     1      -1.273   1.160   0.852  0.00  0.00    +0.000 A 
ATOM      5  C   UNL     1       0.063   1.330   0.492  0.00  0.00    +0.000 A 
ATOM      6  C   UNL     1       0.788   0.258  -0.028  0.00  0.00    +0.000 A 
ATOM      7  C   UNL     1       0.190  -0.991  -0.199  0.00  0.00    +0.000 A 
ATOM      8  C   UNL     1      -1.153  -1.158   0.175  0.00  0.00    +0.000 A 
ATOM      9  F   UNL     1       2.075   0.470  -0.337  0.00  0.00    +0.000 F 
ENDBRANCH   1   7
BRANCH   1  10
ATOM     10  O   UNL     1       2.036  -1.770  -1.435  0.00  0.00    +0.000 OA
BRANCH  10  11
ATOM     11  C   UNL     1       2.783  -2.857  -1.906  0.00  0.00    +0.000 A 
ATOM     12  C   UNL     1       3.785  -3.434  -1.115  0.00  0.00    +0.000 A 
ATOM     13  C   UNL     1       4.526  -4.496  -1.645  0.00  0.00    +0.000 A 
ATOM     14  C   UNL     1       4.270  -4.955  -2.945  0.00  0.00    +0.000 A 
ATOM     15  C   UNL     1       3.280  -4.354  -3.726  0.00  0.00    +0.000 A 
ATOM     16  C   UNL     1       2.537  -3.296  -3.209  0.00  0.00    +0.000 A 
ATOM     17 CL   UNL     1       5.783  -5.287  -0.757  0.00  0.00    +0.000 Cl
ATOM     18 CL   UNL     1       4.090  -2.815   0.473  0.00  0.00    +0.000 Cl
ENDBRANCH  10  11
ENDBRANCH   1  10
TORSDOF 3
