REMARK  Name = *****
REMARK  4 active torsions:
REMARK  status: ('A' for Active; 'I' for Inactive)
REMARK    1  A    between atoms: C_4  and  S_7
REMARK    2  A    between atoms: S_7  and  C_8
REMARK    3  A    between atoms: C_8  and  C_10
REMARK    4  A    between atoms: C_10  and  C_11
REMARK                            x       y       z     vdW  Elec       q    Type
REMARK                         _______ _______ _______ _____ _____    ______ ____
ROOT
ATOM      1  C   UNL     1      -3.963  -0.963   0.056  0.00  0.00    +0.000 C 
ATOM      2  O   UNL     1      -3.414  -1.746   0.826  0.00  0.00    +0.000 OA
ENDROOT
BRANCH   1   3
ATOM      3  S   UNL     1      -3.213   0.551  -0.424  0.00  0.00    +0.000 S 
BRANCH   3   7
ATOM      4  C   UNL     1       0.730  -0.473  -2.556  0.00  0.00    +0.000 A 
ATOM      5  C   UNL     1      -0.076  -1.516  -2.108  0.00  0.00    +0.000 A 
ATOM      6  C   UNL     1      -1.281  -1.244  -1.451  0.00  0.00    +0.000 A 
ATOM      7  C   UNL     1      -1.693   0.075  -1.230  0.00  0.00    +0.000 A 
ATOM      8  C   UNL     1      -0.870   1.114  -1.688  0.00  0.00    +0.000 A 
ATOM      9  C   UNL     1       0.333   0.844  -2.346  0.00  0.00    +0.000 A 
ENDBRANCH   3   7
ENDBRANCH   1   3
BRANCH   1  10
ATOM     10  C   UNL     1      -5.352  -1.196  -0.495  0.00  0.00    +0.000 C 
BRANCH  10  11
ATOM     11  C   UNL     1      -6.433  -0.594   0.373  0.00  0.00    +0.000 A 
ATOM     12  C   UNL     1      -6.717  -1.206   1.608  0.00  0.00    +0.000 A 
ATOM     13  C   UNL     1      -7.690  -0.684   2.462  0.00  0.00    +0.000 A 
ATOM     14  C   UNL     1      -8.395   0.458   2.098  0.00  0.00    +0.000 A 
ATOM     15  C   UNL     1      -8.126   1.079   0.879  0.00  0.00    +0.000 A 
ATOM     16  C   UNL     1      -7.150   0.560   0.021  0.00  0.00    +0.000 A 
ATOM     17 CL   UNL     1      -6.878   1.396  -1.466  0.00  0.00    +0.000 Cl
ENDBRANCH  10  11
ENDBRANCH   1  10
TORSDOF 4
