REMARK  Name = *****
REMARK  3 active torsions:
REMARK  status: ('A' for Active; 'I' for Inactive)
REMARK    1  A    between atoms: C_5  and  C_7
REMARK    2  A    between atoms: C_7  and  S_8
REMARK    3  A    between atoms: S_8  and  C_9
REMARK                            x       y       z     vdW  Elec       q    Type
REMARK                         _______ _______ _______ _____ _____    ______ ____
ROOT
ATOM      1  C   UNL     1       1.052  -2.426   0.038  0.00  0.00    +0.000 C 
ENDROOT
BRANCH   1   6
ATOM      2  C   UNL     1      -0.745   0.647  -1.335  0.00  0.00    +0.000 A 
ATOM      3  C   UNL     1      -1.179   1.262  -0.161  0.00  0.00    +0.000 A 
ATOM      4  C   UNL     1      -0.894   0.681   1.073  0.00  0.00    +0.000 A 
ATOM      5  C   UNL     1      -0.178  -0.511   1.125  0.00  0.00    +0.000 A 
ATOM      6  C   UNL     1       0.263  -1.146  -0.039  0.00  0.00    +0.000 A 
ATOM      7  C   UNL     1      -0.025  -0.549  -1.276  0.00  0.00    +0.000 A 
ATOM      8  F   UNL     1       0.082  -1.055   2.323  0.00  0.00    +0.000 F 
ENDBRANCH   1   6
BRANCH   1   9
ATOM      9  S   UNL     1       2.846  -2.098  -0.016  0.00  0.00    +0.000 S 
BRANCH   9  10
ATOM     10  C   UNL     1       3.581  -3.728   0.054  0.00  0.00    +0.000 A 
ATOM     11  C   UNL     1       2.872  -4.932   0.049  0.00  0.00    +0.000 A 
ATOM     12  C   UNL     1       3.555  -6.151   0.088  0.00  0.00    +0.000 A 
ATOM     13  C   UNL     1       4.946  -6.190   0.135  0.00  0.00    +0.000 A 
ATOM     14  C   UNL     1       5.663  -4.998   0.144  0.00  0.00    +0.000 A 
ATOM     15  C   UNL     1       4.983  -3.777   0.104  0.00  0.00    +0.000 A 
ATOM     16 CL   UNL     1       2.664  -7.625   0.073  0.00  0.00    +0.000 Cl
ENDBRANCH   9  10
ENDBRANCH   1   9
TORSDOF 3
