REMARK  Name = *****
REMARK  3 active torsions:
REMARK  status: ('A' for Active; 'I' for Inactive)
REMARK    1  A    between atoms: C_1  and  C_2
REMARK    2  A    between atoms: C_2  and  C_8
REMARK    3  A    between atoms: C_8  and  C_9
REMARK                            x       y       z     vdW  Elec       q    Type
REMARK                         _______ _______ _______ _____ _____    ______ ____
ROOT
ATOM      1  C   UNL     1       0.914   0.217   0.181  0.00  0.00    +0.000 C 
ATOM      2  C   UNL     1       2.414   0.107  -0.166  0.00  0.00    +0.000 C 
ATOM      3  S   UNL     1       2.777   1.239  -1.567  0.00  0.00    +0.000 S 
ATOM      4  C   UNL     1       1.837   0.486  -2.922  0.00  0.00    +0.000 C 
ATOM      5  C   UNL     1       2.234  -0.953  -3.203  0.00  0.00    +0.000 C 
ATOM      6  C   UNL     1       1.873  -1.912  -2.082  0.00  0.00    +0.000 C 
ATOM      7  S   UNL     1       2.832  -1.633  -0.569  0.00  0.00    +0.000 S 
ENDROOT
BRANCH   2   8
ATOM      8  C   UNL     1       3.210   0.576   1.097  0.00  0.00    +0.000 C 
BRANCH   8   9
ATOM      9  C   UNL     1       4.715   0.247   1.241  0.00  0.00    +0.000 C 
ATOM     10  S   UNL     1       5.295   0.604   2.953  0.00  0.00    +0.000 S 
ATOM     11  C   UNL     1       5.250   2.419   2.950  0.00  0.00    +0.000 C 
ATOM     12  C   UNL     1       6.147   3.040   1.889  0.00  0.00    +0.000 C 
ATOM     13  C   UNL     1       5.717   2.734   0.462  0.00  0.00    +0.000 C 
ATOM     14  S   UNL     1       5.880   0.978   0.045  0.00  0.00    +0.000 S 
ENDBRANCH   8   9
ENDBRANCH   2   8
TORSDOF 2
