REMARK  Name = *****
REMARK  5 active torsions:
REMARK  status: ('A' for Active; 'I' for Inactive)
REMARK    1  A    between atoms: C_1  and  O_2
REMARK    2  A    between atoms: O_2  and  C_3
REMARK    3  A    between atoms: C_6  and  C_9
REMARK    4  A    between atoms: C_9  and  S_10
REMARK    5  A    between atoms: S_10  and  C_11
REMARK                            x       y       z     vdW  Elec       q    Type
REMARK                         _______ _______ _______ _____ _____    ______ ____
ROOT
ATOM      1  C   UNL     1       3.069   1.113   0.348  0.00  0.00    +0.000 A 
ATOM      2  C   UNL     1       2.398   2.012   1.176  0.00  0.00    +0.000 A 
ATOM      3  C   UNL     1       2.997   3.227   1.529  0.00  0.00    +0.000 A 
ATOM      4  C   UNL     1       4.274   3.561   1.056  0.00  0.00    +0.000 A 
ATOM      5  C   UNL     1       4.946   2.650   0.232  0.00  0.00    +0.000 A 
ATOM      6  C   UNL     1       4.343   1.439  -0.120  0.00  0.00    +0.000 A 
ENDROOT
BRANCH   1   8
ATOM      7  C   UNL     1       1.318  -0.494   0.405  0.00  0.00    +0.000 C 
ATOM      8  O   UNL     1       2.599  -0.101  -0.072  0.00  0.00    +0.000 OA
ENDBRANCH   1   8
BRANCH   4   9
ATOM      9  C   UNL     1       4.921   4.865   1.449  0.00  0.00    +0.000 C 
BRANCH   9  10
ATOM     10  S   UNL     1       5.825   4.717   3.020  0.00  0.00    +0.000 S 
BRANCH  10  11
ATOM     11  C   UNL     1       6.429   6.358   3.163  0.00  0.00    +0.000 A 
ATOM     12  C   UNL     1       7.677   6.762   2.749  0.00  0.00    +0.000 A 
ATOM     13  S   UNL     1       7.931   8.431   3.037  0.00  0.00    +0.000 S 
ATOM     14  C   UNL     1       6.376   8.604   3.733  0.00  0.00    +0.000 A 
ATOM     15  C   UNL     1       5.676   7.416   3.741  0.00  0.00    +0.000 A 
ENDBRANCH  10  11
ENDBRANCH   9  10
ENDBRANCH   4   9
TORSDOF 4
