REMARK  Name = *****
REMARK  6 active torsions:
REMARK  status: ('A' for Active; 'I' for Inactive)
REMARK    1  A    between atoms: C_1  and  C_2
REMARK    2  A    between atoms: N_4  and  C_9
REMARK    3  A    between atoms: C_5  and  S_7
REMARK    4  A    between atoms: S_7  and  C_8
REMARK    5  A    between atoms: C_9  and  C_10
REMARK    6  A    between atoms: C_10  and  C_11
REMARK                            x       y       z     vdW  Elec       q    Type
REMARK                         _______ _______ _______ _____ _____    ______ ____
ROOT
ATOM      1  C   UNL     1       3.559   3.266   0.072  0.00  0.00    +0.000 C 
ATOM      2  C   UNL     1       3.800   1.797   0.045  0.00  0.00    +0.000 C 
ATOM      3  C   UNL     1       4.990   1.107   0.004  0.00  0.00    +0.000 C 
ATOM      4  N   UNL     1       4.811  -0.268  -0.013  0.00  0.00    +0.000 N 
ATOM      5  C   UNL     1       3.539  -0.664   0.016  0.00  0.00    +0.000 C 
ATOM      6  S   UNL     1       2.493   0.697   0.064  0.00  0.00    +0.000 S 
ENDROOT
BRANCH   5   7
ATOM      7  S   UNL     1       3.030  -2.341   0.007  0.00  0.00    +0.000 S 
ATOM      8  C   UNL     1       1.225  -2.267   0.046  0.00  0.00    +0.000 C 
ENDBRANCH   5   7
BRANCH   4   9
ATOM      9  C   UNL     1       5.929  -1.238  -0.061  0.00  0.00    +0.000 C 
BRANCH   9  10
ATOM     10  C   UNL     1       7.338  -0.641  -0.105  0.00  0.00    +0.000 C 
BRANCH  10  11
ATOM     11  C   UNL     1       8.388  -1.719  -0.168  0.00  0.00    +0.000 A 
ATOM     12  C   UNL     1       8.814  -2.222  -1.406  0.00  0.00    +0.000 A 
ATOM     13  C   UNL     1       9.768  -3.239  -1.463  0.00  0.00    +0.000 A 
ATOM     14  C   UNL     1      10.301  -3.763  -0.288  0.00  0.00    +0.000 A 
ATOM     15  C   UNL     1       9.883  -3.271   0.947  0.00  0.00    +0.000 A 
ATOM     16  C   UNL     1       8.929  -2.254   1.009  0.00  0.00    +0.000 A 
ENDBRANCH  10  11
ENDBRANCH   9  10
ENDBRANCH   4   9
TORSDOF 4
