REMARK  Name = *****
REMARK  6 active torsions:
REMARK  status: ('A' for Active; 'I' for Inactive)
REMARK    1  A    between atoms: C_1  and  O_2
REMARK    2  A    between atoms: O_2  and  C_3
REMARK    3  A    between atoms: C_6  and  C_9
REMARK    4  A    between atoms: C_10  and  C_11
REMARK    5  A    between atoms: C_14  and  O_17
REMARK    6  A    between atoms: O_17  and  C_18
REMARK                            x       y       z     vdW  Elec       q    Type
REMARK                         _______ _______ _______ _____ _____    ______ ____
ROOT
ATOM      1  C   UNL     1       5.222  -2.965  -3.795  0.00  0.00    +0.000 C 
ATOM      2  C   UNL     1       6.256  -3.786  -3.538  0.00  0.00    +0.000 C 
ATOM      3  F   UNL     1       6.689  -3.935  -2.262  0.00  0.00    +0.000 F 
ATOM      4  F   UNL     1       4.791  -2.818  -5.072  0.00  0.00    +0.000 F 
ENDROOT
BRANCH   1   8
ATOM      5  C   UNL     1       3.022  -0.565  -0.979  0.00  0.00    +0.000 A 
ATOM      6  C   UNL     1       3.176  -0.162  -2.304  0.00  0.00    +0.000 A 
ATOM      7  C   UNL     1       3.901  -0.957  -3.201  0.00  0.00    +0.000 A 
ATOM      8  C   UNL     1       4.495  -2.162  -2.793  0.00  0.00    +0.000 A 
ATOM      9  C   UNL     1       4.320  -2.562  -1.463  0.00  0.00    +0.000 A 
ATOM     10  C   UNL     1       3.596  -1.768  -0.567  0.00  0.00    +0.000 A 
BRANCH   5  12
ATOM     11  C   UNL     1       1.729   1.337  -0.380  0.00  0.00    +0.000 C 
ATOM     12  O   UNL     1       2.341   0.110  -0.005  0.00  0.00    +0.000 OA
ENDBRANCH   5  12
ENDBRANCH   1   8
BRANCH   2  13
ATOM     13  C   UNL     1       6.977  -4.591  -4.543  0.00  0.00    +0.000 A 
ATOM     14  C   UNL     1       7.172  -4.175  -5.867  0.00  0.00    +0.000 A 
ATOM     15  C   UNL     1       7.884  -4.969  -6.778  0.00  0.00    +0.000 A 
ATOM     16  C   UNL     1       8.422  -6.189  -6.376  0.00  0.00    +0.000 A 
ATOM     17  C   UNL     1       8.248  -6.603  -5.055  0.00  0.00    +0.000 A 
ATOM     18  C   UNL     1       7.539  -5.812  -4.146  0.00  0.00    +0.000 A 
BRANCH  16  19
ATOM     19  O   UNL     1       9.132  -7.055  -7.159  0.00  0.00    +0.000 OA
ATOM     20  C   UNL     1       9.316  -6.688  -8.521  0.00  0.00    +0.000 C 
ENDBRANCH  16  19
ENDBRANCH   2  13
TORSDOF 4
