REMARK  Name = *****
REMARK  5 active torsions:
REMARK  status: ('A' for Active; 'I' for Inactive)
REMARK    1  A    between atoms: C_1  and  O_2
REMARK    2  A    between atoms: O_2  and  C_3
REMARK    3  A    between atoms: C_7  and  C_9
REMARK    4  A    between atoms: C_10  and  C_11
REMARK    5  A    between atoms: C_16  and  N_17
REMARK                            x       y       z     vdW  Elec       q    Type
REMARK                         _______ _______ _______ _____ _____    ______ ____
ROOT
ATOM      1  C   UNL     1       6.350  -2.720   0.285  0.00  0.00    +0.000 C 
ATOM      2  C   UNL     1       7.207  -3.670  -0.124  0.00  0.00    +0.000 C 
ENDROOT
BRANCH   1   7
ATOM      3  C   UNL     1       3.279  -0.859  -0.868  0.00  0.00    +0.000 A 
ATOM      4  C   UNL     1       2.512  -1.885  -1.418  0.00  0.00    +0.000 A 
ATOM      5  C   UNL     1       2.995  -3.195  -1.417  0.00  0.00    +0.000 A 
ATOM      6  C   UNL     1       4.248  -3.484  -0.872  0.00  0.00    +0.000 A 
ATOM      7  C   UNL     1       5.039  -2.464  -0.331  0.00  0.00    +0.000 A 
ATOM      8  C   UNL     1       4.534  -1.157  -0.325  0.00  0.00    +0.000 A 
BRANCH   3  10
ATOM      9  C   UNL     1       1.663   0.818  -1.347  0.00  0.00    +0.000 C 
ATOM     10  O   UNL     1       2.923   0.460  -0.795  0.00  0.00    +0.000 OA
ENDBRANCH   3  10
ENDBRANCH   1   7
BRANCH   2  11
ATOM     11  C   UNL     1       8.524  -3.898   0.497  0.00  0.00    +0.000 A 
ATOM     12  C   UNL     1       8.663  -3.904   1.894  0.00  0.00    +0.000 A 
ATOM     13  C   UNL     1       9.905  -4.148   2.492  0.00  0.00    +0.000 A 
ATOM     14  C   UNL     1      11.027  -4.401   1.705  0.00  0.00    +0.000 A 
ATOM     15  C   UNL     1      10.910  -4.416   0.318  0.00  0.00    +0.000 A 
ATOM     16  C   UNL     1       9.666  -4.171  -0.272  0.00  0.00    +0.000 A 
BRANCH  16  17
ATOM     17  N   UNL     1       9.599  -4.198  -1.662  0.00  0.00    +0.000 NA
ATOM     18  C   UNL     1       9.567  -4.233  -2.833  0.00  0.00    +0.000 C 
ENDBRANCH  16  17
ENDBRANCH   2  11
TORSDOF 4
