REMARK  Name = *****
REMARK  5 active torsions:
REMARK  status: ('A' for Active; 'I' for Inactive)
REMARK    1  A    between atoms: C_1  and  P_2
REMARK    2  A    between atoms: P_2  and  C_3
REMARK    3  A    between atoms: P_2  and  P_9
REMARK    4  A    between atoms: P_9  and  C_10
REMARK    5  A    between atoms: P_9  and  C_11
REMARK                            x       y       z     vdW  Elec       q    Type
REMARK                         _______ _______ _______ _____ _____    ______ ____
ROOT
ATOM      1  C   UNL     1       0.975  -0.250  -0.003  0.00  0.00    +0.000 C 
ATOM      2  P   UNL     1       2.779  -0.028   0.142  0.00  0.00    +0.000 P 
ENDROOT
BRANCH   2   3
ATOM      3  C   UNL     1       3.454  -1.699   0.395  0.00  0.00    +0.000 A 
ATOM      4  C   UNL     1       4.826  -1.923   0.190  0.00  0.00    +0.000 A 
ATOM      5  C   UNL     1       5.391  -3.187   0.384  0.00  0.00    +0.000 A 
ATOM      6  C   UNL     1       4.594  -4.249   0.800  0.00  0.00    +0.000 A 
ATOM      7  C   UNL     1       3.237  -4.043   1.028  0.00  0.00    +0.000 A 
ATOM      8  C   UNL     1       2.674  -2.778   0.833  0.00  0.00    +0.000 A 
ENDBRANCH   2   3
BRANCH   2   9
ATOM      9  P   UNL     1       3.316   0.398  -2.037  0.00  0.00    +0.000 P 
ATOM     10  C   UNL     1       2.587  -1.062  -2.848  0.00  0.00    +0.000 C 
BRANCH   9  11
ATOM     11  C   UNL     1       2.220   1.786  -2.462  0.00  0.00    +0.000 A 
ATOM     12  C   UNL     1       2.284   2.970  -1.707  0.00  0.00    +0.000 A 
ATOM     13  C   UNL     1       1.469   4.065  -2.006  0.00  0.00    +0.000 A 
ATOM     14  C   UNL     1       0.582   4.001  -3.075  0.00  0.00    +0.000 A 
ATOM     15  C   UNL     1       0.517   2.846  -3.848  0.00  0.00    +0.000 A 
ATOM     16  C   UNL     1       1.333   1.750  -3.548  0.00  0.00    +0.000 A 
ENDBRANCH   9  11
ENDBRANCH   2   9
TORSDOF 3
