REMARK  Name = *****
REMARK  2 active torsions:
REMARK  status: ('A' for Active; 'I' for Inactive)
REMARK    1  A    between atoms: C_7  and  C_8
REMARK    2  A    between atoms: C_8  and  C_9
REMARK                            x       y       z     vdW  Elec       q    Type
REMARK                         _______ _______ _______ _____ _____    ______ ____
ROOT
ATOM      1  C   UNL     1       0.719   1.144  -0.148  0.00  0.00    +0.000 C 
ATOM      2  C   UNL     1       1.378  -0.196   0.184  0.00  0.00    +0.000 C 
ATOM      3  C   UNL     1       0.540  -1.377  -0.309  0.00  0.00    +0.000 C 
ATOM      4  C   UNL     1      -0.872  -1.271   0.200  0.00  0.00    +0.000 C 
ATOM      5  C   UNL     1      -1.463  -2.235   0.880  0.00  0.00    +0.000 C 
ATOM      6  C   UNL     1      -2.651  -2.634   1.524  0.00  0.00    +0.000 C 
ATOM      7  C   UNL     1      -1.361  -3.530   1.431  0.00  0.00    +0.000 C 
ATOM      8  C   UNL     1      -1.559   0.034  -0.107  0.00  0.00    +0.000 C 
ATOM      9  C   UNL     1      -0.716   1.214   0.379  0.00  0.00    +0.000 C 
ENDROOT
BRANCH   7  10
ATOM     10  C   UNL     1      -0.600  -3.810   2.692  0.00  0.00    +0.000 C 
BRANCH  10  11
ATOM     11  C   UNL     1       0.585  -4.708   2.431  0.00  0.00    +0.000 A 
ATOM     12  C   UNL     1       1.858  -4.166   2.215  0.00  0.00    +0.000 A 
ATOM     13  C   UNL     1       2.949  -5.000   1.962  0.00  0.00    +0.000 A 
ATOM     14  C   UNL     1       2.777  -6.383   1.920  0.00  0.00    +0.000 A 
ATOM     15  C   UNL     1       1.514  -6.933   2.130  0.00  0.00    +0.000 A 
ATOM     16  C   UNL     1       0.423  -6.101   2.383  0.00  0.00    +0.000 A 
ENDBRANCH  10  11
ENDBRANCH   7  10
TORSDOF 2
