REMARK  Name = *****
REMARK  3 active torsions:
REMARK  status: ('A' for Active; 'I' for Inactive)
REMARK    1  A    between atoms: C_2  and  C_3
REMARK    2  A    between atoms: C_6  and  C_9
REMARK    3  A    between atoms: C_10  and  C_11
REMARK                            x       y       z     vdW  Elec       q    Type
REMARK                         _______ _______ _______ _____ _____    ______ ____
ROOT
ATOM      1  C   UNL     1       3.786   0.106   0.135  0.00  0.00    +0.000 A 
ATOM      2  C   UNL     1       4.475   1.318   0.008  0.00  0.00    +0.000 A 
ATOM      3  C   UNL     1       5.850   1.321  -0.246  0.00  0.00    +0.000 A 
ATOM      4  C   UNL     1       6.541   0.114  -0.372  0.00  0.00    +0.000 A 
ATOM      5  C   UNL     1       5.856  -1.097  -0.245  0.00  0.00    +0.000 A 
ATOM      6  C   UNL     1       4.481  -1.102   0.008  0.00  0.00    +0.000 A 
ENDROOT
BRANCH   1   8
ATOM      7  C   UNL     1       1.200   0.100   0.608  0.00  0.00    +0.000 C 
ATOM      8  C   UNL     1       2.374   0.102   0.394  0.00  0.00    +0.000 C 
ENDBRANCH   1   8
BRANCH   4   9
ATOM      9  C   UNL     1       7.947   0.116  -0.633  0.00  0.00    +0.000 C 
ATOM     10  C   UNL     1       9.127   0.109  -0.855  0.00  0.00    +0.000 C 
BRANCH  10  11
ATOM     11  C   UNL     1      10.528   0.095  -1.121  0.00  0.00    +0.000 A 
ATOM     12  C   UNL     1      11.312   1.218  -1.282  0.00  0.00    +0.000 A 
ATOM     13  C   UNL     1      12.677   0.889  -1.539  0.00  0.00    +0.000 A 
ATOM     14  C   UNL     1      12.882  -0.473  -1.565  0.00  0.00    +0.000 A 
ATOM     15  S   UNL     1      11.436  -1.344  -1.280  0.00  0.00    +0.000 S 
ENDBRANCH  10  11
ENDBRANCH   4   9
TORSDOF 3
