REMARK  Name = *****
REMARK  0 active torsions:
REMARK  status: ('A' for Active; 'I' for Inactive)
REMARK                            x       y       z     vdW  Elec       q    Type
REMARK                         _______ _______ _______ _____ _____    ______ ____
ROOT
ATOM      1  C   UNL     1       3.878  12.991   0.661  0.00  0.00    +0.000 C 
ATOM      2  C   UNL     1       3.051  13.878   1.233  0.00  0.00    +0.000 C 
ATOM      3  C   UNL     1       1.809  14.411   0.535  0.00  0.00    +0.000 C 
ATOM      4  C   UNL     1       1.342  13.489  -0.661  0.00  0.00    +0.000 C 
ATOM      5  C   UNL     1       0.236  12.514  -0.299  0.00  0.00    +0.000 C 
ATOM      6  C   UNL     1      -1.088  12.755  -0.350  0.00  0.00    +0.000 C 
ATOM      7  C   UNL     1      -1.768  14.066  -0.723  0.00  0.00    +0.000 C 
ATOM      8  C   UNL     1      -1.142  15.368  -0.082  0.00  0.00    +0.000 C 
ATOM      9  C   UNL     1      -0.532  15.153   1.291  0.00  0.00    +0.000 C 
ATOM     10  C   UNL     1       0.732  14.769   1.551  0.00  0.00    +0.000 C 
ATOM     11  C   UNL     1      -2.121  16.524  -0.003  0.00  0.00    +0.000 C 
ATOM     12  C   UNL     1      -3.449  16.350  -0.058  0.00  0.00    +0.000 C 
ATOM     13  C   UNL     1      -4.023  15.037  -0.194  0.00  0.00    +0.000 C 
ATOM     14  C   UNL     1      -3.271  13.973  -0.508  0.00  0.00    +0.000 C 
ATOM     15  C   UNL     1       2.481  12.716  -1.299  0.00  0.00    +0.000 C 
ATOM     16  C   UNL     1       3.645  12.499  -0.672  0.00  0.00    +0.000 C 
ENDROOT
TORSDOF 0
