REMARK  Name = *****
REMARK  4 active torsions:
REMARK  status: ('A' for Active; 'I' for Inactive)
REMARK    1  A    between atoms: C_4  and  O_7
REMARK    2  A    between atoms: O_7  and  C_8
REMARK    3  A    between atoms: C_8  and  C_9
REMARK    4  A    between atoms: C_12  and  C_15
REMARK                            x       y       z     vdW  Elec       q    Type
REMARK                         _______ _______ _______ _____ _____    ______ ____
ROOT
ATOM      1  C   UNL     1      -5.037  -0.150  -0.445  0.00  0.00    +0.000 A 
ATOM      2  C   UNL     1      -5.503   0.326  -1.678  0.00  0.00    +0.000 A 
ATOM      3  C   UNL     1      -6.795   0.852  -1.799  0.00  0.00    +0.000 A 
ATOM      4  C   UNL     1      -7.638   0.917  -0.682  0.00  0.00    +0.000 A 
ATOM      5  C   UNL     1      -7.166   0.452   0.555  0.00  0.00    +0.000 A 
ATOM      6  C   UNL     1      -5.876  -0.072   0.673  0.00  0.00    +0.000 A 
ENDROOT
BRANCH   4   7
ATOM      7  C   UNL     1      -9.029   1.473  -0.765  0.00  0.00    +0.000 C 
ATOM      8  O   UNL     1      -9.703   1.464   0.264  0.00  0.00    +0.000 OA
ATOM      9 CL   UNL     1      -9.631   2.097  -2.287  0.00  0.00    +0.000 Cl
ENDBRANCH   4   7
BRANCH   1  10
ATOM     10  C   UNL     1      -3.634  -0.695  -0.319  0.00  0.00    +0.000 C 
BRANCH  10  11
ATOM     11  O   UNL     1      -2.752   0.408  -0.132  0.00  0.00    +0.000 OA
BRANCH  11  15
ATOM     12  C   UNL     1       1.348  -0.169   0.315  0.00  0.00    +0.000 A 
ATOM     13  C   UNL     1       0.542  -1.289   0.116  0.00  0.00    +0.000 A 
ATOM     14  C   UNL     1      -0.841  -1.145  -0.039  0.00  0.00    +0.000 A 
ATOM     15  C   UNL     1      -1.422   0.124   0.005  0.00  0.00    +0.000 A 
ATOM     16  C   UNL     1      -0.607   1.241   0.205  0.00  0.00    +0.000 A 
ATOM     17  C   UNL     1       0.773   1.098   0.360  0.00  0.00    +0.000 A 
ENDBRANCH  11  15
ENDBRANCH  10  11
ENDBRANCH   1  10
TORSDOF 4
