REMARK  Name = *****
REMARK  4 active torsions:
REMARK  status: ('A' for Active; 'I' for Inactive)
REMARK    1  A    between atoms: C_1  and  C_2
REMARK    2  A    between atoms: C_3  and  C_9
REMARK    3  A    between atoms: C_10  and  C_11
REMARK    4  A    between atoms: C_12  and  C_16
REMARK                            x       y       z     vdW  Elec       q    Type
REMARK                         _______ _______ _______ _____ _____    ______ ____
ROOT
ATOM      1  C   UNL     1       2.569   2.400  -0.223  0.00  0.00    +0.000 C 
ATOM      2  C   UNL     1       2.002   3.459  -0.274  0.00  0.00    +0.000 C 
ENDROOT
BRANCH   1   5
ATOM      3  C   UNL     1       1.018  -0.081   0.100  0.00  0.00    +0.000 C 
ATOM      4  C   UNL     1       2.519  -0.066  -0.005  0.00  0.00    +0.000 A 
ATOM      5  C   UNL     1       3.238   1.135  -0.161  0.00  0.00    +0.000 A 
ATOM      6  C   UNL     1       4.636   1.113  -0.259  0.00  0.00    +0.000 A 
ATOM      7  C   UNL     1       5.326  -0.098  -0.205  0.00  0.00    +0.000 A 
ATOM      8  C   UNL     1       4.616  -1.280  -0.053  0.00  0.00    +0.000 A 
ATOM      9  C   UNL     1       3.228  -1.277   0.047  0.00  0.00    +0.000 A 
ATOM     10  F   UNL     1       5.277  -2.444  -0.001  0.00  0.00    +0.000 F 
ENDBRANCH   1   5
BRANCH   2  11
ATOM     11  C   UNL     1       1.320   4.711  -0.332  0.00  0.00    +0.000 A 
ATOM     12  C   UNL     1      -0.042   4.892  -0.480  0.00  0.00    +0.000 A 
ATOM     13  C   UNL     1      -0.402   6.273  -0.501  0.00  0.00    +0.000 A 
ATOM     14  C   UNL     1       0.694   7.097  -0.368  0.00  0.00    +0.000 A 
ATOM     15  S   UNL     1       2.147   6.208  -0.221  0.00  0.00    +0.000 S 
BRANCH  12  16
ATOM     16  C   UNL     1      -0.989   3.823  -0.600  0.00  0.00    +0.000 C 
ATOM     17  C   UNL     1      -1.785   2.930  -0.701  0.00  0.00    +0.000 C 
ENDBRANCH  12  16
ENDBRANCH   2  11
TORSDOF 3
