REMARK  Name = *****
REMARK  3 active torsions:
REMARK  status: ('A' for Active; 'I' for Inactive)
REMARK    1  A    between atoms: C_3  and  C_8
REMARK    2  A    between atoms: C_8  and  O_10
REMARK    3  A    between atoms: O_10  and  C_11
REMARK                            x       y       z     vdW  Elec       q    Type
REMARK                         _______ _______ _______ _____ _____    ______ ____
ROOT
ATOM      1  C   UNL     1      -1.716   2.320  -0.791  0.00  0.00    +0.000 C 
ATOM      2  O   UNL     1      -2.926   2.484  -0.788  0.00  0.00    +0.000 OA
ENDROOT
BRANCH   1   5
ATOM      3  C   UNL     1      -1.332  -1.133   0.689  0.00  0.00    +0.000 A 
ATOM      4  C   UNL     1      -1.888   0.049   0.193  0.00  0.00    +0.000 A 
ATOM      5  C   UNL     1      -1.063   1.085  -0.275  0.00  0.00    +0.000 A 
ATOM      6  C   UNL     1       0.327   0.925  -0.239  0.00  0.00    +0.000 A 
ATOM      7  C   UNL     1       0.866  -0.257   0.259  0.00  0.00    +0.000 A 
ATOM      8  C   UNL     1       0.052  -1.285   0.722  0.00  0.00    +0.000 A 
ATOM      9  F   UNL     1       2.197  -0.407   0.294  0.00  0.00    +0.000 F 
ENDBRANCH   1   5
BRANCH   1  10
ATOM     10  O   UNL     1      -0.753   3.201  -1.249  0.00  0.00    +0.000 OA
BRANCH  10  11
ATOM     11  C   UNL     1      -1.227   4.407  -1.782  0.00  0.00    +0.000 A 
ATOM     12  C   UNL     1      -2.051   4.428  -2.908  0.00  0.00    +0.000 A 
ATOM     13  C   UNL     1      -2.452   5.656  -3.437  0.00  0.00    +0.000 A 
ATOM     14  C   UNL     1      -2.010   6.842  -2.848  0.00  0.00    +0.000 A 
ATOM     15  C   UNL     1      -1.167   6.813  -1.736  0.00  0.00    +0.000 A 
ATOM     16  C   UNL     1      -0.766   5.588  -1.202  0.00  0.00    +0.000 A 
ATOM     17 CL   UNL     1      -2.501   8.355  -3.506  0.00  0.00    +0.000 Cl
ENDBRANCH  10  11
ENDBRANCH   1  10
TORSDOF 3
