REMARK  Name = *****
REMARK  3 active torsions:
REMARK  status: ('A' for Active; 'I' for Inactive)
REMARK    1  A    between atoms: C_3  and  O_8
REMARK    2  A    between atoms: O_8  and  C_9
REMARK    3  A    between atoms: C_9  and  C_11
REMARK                            x       y       z     vdW  Elec       q    Type
REMARK                         _______ _______ _______ _____ _____    ______ ____
ROOT
ATOM      1  O   UNL     1       2.239   2.588  -0.371  0.00  0.00    +0.000 OA
ENDROOT
BRANCH   1   4
ATOM      2  C   UNL     1       1.753  -0.975   0.373  0.00  0.00    +0.000 A 
ATOM      3  C   UNL     1       2.361   0.272   0.232  0.00  0.00    +0.000 A 
ATOM      4  C   UNL     1       1.597   1.359  -0.188  0.00  0.00    +0.000 A 
ATOM      5  C   UNL     1       0.247   1.222  -0.504  0.00  0.00    +0.000 A 
ATOM      6  C   UNL     1      -0.350  -0.028  -0.359  0.00  0.00    +0.000 A 
ATOM      7  C   UNL     1       0.395  -1.125   0.080  0.00  0.00    +0.000 A 
ATOM      8 CL   UNL     1      -2.018  -0.226  -0.734  0.00  0.00    +0.000 Cl
ENDBRANCH   1   4
BRANCH   1   9
ATOM      9  C   UNL     1       1.960   3.537   0.614  0.00  0.00    +0.000 C 
ATOM     10  O   UNL     1       1.230   3.348   1.581  0.00  0.00    +0.000 OA
BRANCH   9  11
ATOM     11  C   UNL     1       2.672   4.765   0.302  0.00  0.00    +0.000 A 
ATOM     12  C   UNL     1       3.520   5.053  -0.754  0.00  0.00    +0.000 A 
ATOM     13  C   UNL     1       4.025   6.385  -0.705  0.00  0.00    +0.000 A 
ATOM     14  C   UNL     1       3.547   7.076   0.385  0.00  0.00    +0.000 A 
ATOM     15  S   UNL     1       2.501   6.121   1.340  0.00  0.00    +0.000 S 
ENDBRANCH   9  11
ENDBRANCH   1   9
TORSDOF 3
