REMARK  Name = *****
REMARK  3 active torsions:
REMARK  status: ('A' for Active; 'I' for Inactive)
REMARK    1  A    between atoms: C_4  and  C_7
REMARK    2  A    between atoms: N_8  and  C_9
REMARK    3  A    between atoms: C_14  and  S_15
REMARK                            x       y       z     vdW  Elec       q    Type
REMARK                         _______ _______ _______ _____ _____    ______ ____
ROOT
ATOM      1  C   UNL     1      -2.927   0.295  -0.440  0.00  0.00    +0.000 C 
ATOM      2  N   UNL     1      -3.808  -0.618  -0.174  0.00  0.00    +0.000 NA
ENDROOT
BRANCH   1   6
ATOM      3  C   UNL     1       1.253  -0.310   0.130  0.00  0.00    +0.000 A 
ATOM      4  C   UNL     1       0.360  -1.335   0.445  0.00  0.00    +0.000 A 
ATOM      5  C   UNL     1      -1.011  -1.146   0.263  0.00  0.00    +0.000 A 
ATOM      6  C   UNL     1      -1.483   0.071  -0.236  0.00  0.00    +0.000 A 
ATOM      7  C   UNL     1      -0.590   1.099  -0.552  0.00  0.00    +0.000 A 
ATOM      8  C   UNL     1       0.780   0.905  -0.368  0.00  0.00    +0.000 A 
ENDBRANCH   1   6
BRANCH   2   9
ATOM      9  C   UNL     1      -5.150  -0.263  -0.422  0.00  0.00    +0.000 A 
ATOM     10  C   UNL     1      -5.867   0.421   0.567  0.00  0.00    +0.000 A 
ATOM     11  C   UNL     1      -7.199   0.784   0.360  0.00  0.00    +0.000 A 
ATOM     12  C   UNL     1      -7.831   0.455  -0.837  0.00  0.00    +0.000 A 
ATOM     13  C   UNL     1      -7.135  -0.243  -1.825  0.00  0.00    +0.000 A 
ATOM     14  C   UNL     1      -5.800  -0.613  -1.622  0.00  0.00    +0.000 A 
BRANCH  14  15
ATOM     15  S   UNL     1      -4.957  -1.522  -2.913  0.00  0.00    +0.000 S 
ATOM     16  H   UNL     1      -3.680  -1.782  -2.524  0.00  0.00    +0.000 HD
ENDBRANCH  14  15
ENDBRANCH   2   9
TORSDOF 3
