REMARK  Name = *****
REMARK  4 active torsions:
REMARK  status: ('A' for Active; 'I' for Inactive)
REMARK    1  A    between atoms: C_1  and  O_2
REMARK    2  A    between atoms: O_2  and  C_3
REMARK    3  A    between atoms: C_7  and  C_9
REMARK    4  A    between atoms: C_10  and  C_11
REMARK                            x       y       z     vdW  Elec       q    Type
REMARK                         _______ _______ _______ _____ _____    ______ ____
ROOT
ATOM      1  C   UNL     1       3.038  -1.216  -0.573  0.00  0.00    +0.000 A 
ATOM      2  C   UNL     1       2.878  -1.358  -1.952  0.00  0.00    +0.000 A 
ATOM      3  C   UNL     1       3.544  -2.380  -2.636  0.00  0.00    +0.000 A 
ATOM      4  C   UNL     1       4.371  -3.265  -1.943  0.00  0.00    +0.000 A 
ATOM      5  C   UNL     1       4.537  -3.126  -0.565  0.00  0.00    +0.000 A 
ATOM      6  C   UNL     1       3.875  -2.100   0.114  0.00  0.00    +0.000 A 
ENDROOT
BRANCH   1   8
ATOM      7  C   UNL     1       1.462   0.555  -0.408  0.00  0.00    +0.000 C 
ATOM      8  O   UNL     1       2.444  -0.265   0.211  0.00  0.00    +0.000 OA
ENDBRANCH   1   8
BRANCH   5   9
ATOM      9  C   UNL     1       5.365  -4.042   0.155  0.00  0.00    +0.000 C 
ATOM     10  C   UNL     1       6.038  -4.821   0.774  0.00  0.00    +0.000 C 
BRANCH  10  11
ATOM     11  C   UNL     1       6.808  -5.762   1.521  0.00  0.00    +0.000 C 
ATOM     12  C   UNL     1       7.687  -5.314   2.434  0.00  0.00    +0.000 C 
ATOM     13  C   UNL     1       8.538  -6.214   3.282  0.00  0.00    +0.000 C 
ATOM     14  C   UNL     1       8.530  -7.672   2.821  0.00  0.00    +0.000 C 
ATOM     15  C   UNL     1       7.129  -8.115   2.415  0.00  0.00    +0.000 C 
ATOM     16  C   UNL     1       6.580  -7.236   1.289  0.00  0.00    +0.000 C 
ENDBRANCH  10  11
ENDBRANCH   5   9
TORSDOF 3
