REMARK  Name = *****
REMARK  2 active torsions:
REMARK  status: ('A' for Active; 'I' for Inactive)
REMARK    1  A    between atoms: C_1  and  N_2
REMARK    2  A    between atoms: C_10  and  C_11
REMARK                            x       y       z     vdW  Elec       q    Type
REMARK                         _______ _______ _______ _____ _____    ______ ____
ROOT
ATOM      1  C   UNL     1       1.214  -0.078   0.491  0.00  0.00    +0.000 C 
ATOM      2  N   UNL     1       2.610  -0.052   0.103  0.00  0.00    +0.000 N 
ATOM      3  C   UNL     1       3.371   1.114  -0.019  0.00  0.00    +0.000 A 
ATOM      4  C   UNL     1       3.020   2.463   0.163  0.00  0.00    +0.000 A 
ATOM      5  C   UNL     1       4.007   3.436  -0.028  0.00  0.00    +0.000 A 
ATOM      6  C   UNL     1       5.305   3.084  -0.392  0.00  0.00    +0.000 A 
ATOM      7  C   UNL     1       5.657   1.742  -0.580  0.00  0.00    +0.000 A 
ATOM      8  C   UNL     1       4.675   0.753  -0.392  0.00  0.00    +0.000 A 
ATOM      9  P   UNL     1       4.996  -0.881  -0.603  0.00  0.00    +0.000 P 
ATOM     10  C   UNL     1       3.369  -1.174  -0.212  0.00  0.00    +0.000 A 
ENDROOT
BRANCH  10  11
ATOM     11  C   UNL     1       2.828  -2.535  -0.244  0.00  0.00    +0.000 A 
ATOM     12  C   UNL     1       3.037  -3.411   0.830  0.00  0.00    +0.000 A 
ATOM     13  C   UNL     1       2.495  -4.698   0.806  0.00  0.00    +0.000 A 
ATOM     14  C   UNL     1       1.739  -5.116  -0.289  0.00  0.00    +0.000 A 
ATOM     15  C   UNL     1       1.525  -4.251  -1.361  0.00  0.00    +0.000 A 
ATOM     16  C   UNL     1       2.066  -2.964  -1.339  0.00  0.00    +0.000 A 
ENDBRANCH  10  11
TORSDOF 1
