REMARK  Name = *****
REMARK  1 active torsions:
REMARK  status: ('A' for Active; 'I' for Inactive)
REMARK    1  A    between atoms: C_7  and  C_10
REMARK                            x       y       z     vdW  Elec       q    Type
REMARK                         _______ _______ _______ _____ _____    ______ ____
ROOT
ATOM      1  C   UNL     1       2.568   0.505  -0.246  0.00  0.00    +0.000 C 
ATOM      2  C   UNL     1       1.460   1.511   0.060  0.00  0.00    +0.000 C 
ATOM      3  C   UNL     1       0.229   0.663   0.035  0.00  0.00    +0.000 C 
ATOM      4  C   UNL     1       0.526  -0.640   0.059  0.00  0.00    +0.000 C 
ATOM      5  C   UNL     1       2.003  -0.871   0.107  0.00  0.00    +0.000 C 
ATOM      6  S   UNL     1      -0.597  -1.933   0.064  0.00  0.00    +0.000 S 
ATOM      7  C   UNL     1      -2.099  -1.071   0.042  0.00  0.00    +0.000 C 
ATOM      8  C   UNL     1      -2.238   0.265   0.023  0.00  0.00    +0.000 C 
ATOM      9  C   UNL     1      -1.128   1.270   0.017  0.00  0.00    +0.000 C 
ENDROOT
BRANCH   7  10
ATOM     10  C   UNL     1      -3.302  -1.918   0.045  0.00  0.00    +0.000 A 
ATOM     11  C   UNL     1      -3.926  -2.266  -1.161  0.00  0.00    +0.000 A 
ATOM     12  C   UNL     1      -5.082  -3.050  -1.156  0.00  0.00    +0.000 A 
ATOM     13  C   UNL     1      -5.622  -3.488   0.053  0.00  0.00    +0.000 A 
ATOM     14  C   UNL     1      -5.011  -3.143   1.257  0.00  0.00    +0.000 A 
ATOM     15  C   UNL     1      -3.855  -2.359   1.255  0.00  0.00    +0.000 A 
ENDBRANCH   7  10
TORSDOF 1
