REMARK  Name = *****
REMARK  2 active torsions:
REMARK  status: ('A' for Active; 'I' for Inactive)
REMARK    1  A    between atoms: C_5  and  C_7
REMARK    2  A    between atoms: N_8  and  C_9
REMARK                            x       y       z     vdW  Elec       q    Type
REMARK                         _______ _______ _______ _____ _____    ______ ____
ROOT
ATOM      1  C   UNL     1      -0.664  -2.404  -0.206  0.00  0.00    +0.000 C 
ATOM      2  N   UNL     1      -1.864  -2.540   0.270  0.00  0.00    +0.000 NA
ENDROOT
BRANCH   1   7
ATOM      3  C   UNL     1       0.110   1.190   0.638  0.00  0.00    +0.000 A 
ATOM      4  C   UNL     1       1.405   1.330   0.142  0.00  0.00    +0.000 A 
ATOM      5  C   UNL     1       2.036   0.247  -0.472  0.00  0.00    +0.000 A 
ATOM      6  C   UNL     1       1.375  -0.981  -0.596  0.00  0.00    +0.000 A 
ATOM      7  C   UNL     1       0.074  -1.125  -0.099  0.00  0.00    +0.000 A 
ATOM      8  C   UNL     1      -0.554  -0.032   0.519  0.00  0.00    +0.000 A 
ATOM      9 CL   UNL     1       2.236  -2.264  -1.370  0.00  0.00    +0.000 Cl
ENDBRANCH   1   7
BRANCH   2  10
ATOM     10  C   UNL     1      -2.452  -3.802   0.104  0.00  0.00    +0.000 A 
ATOM     11  C   UNL     1      -2.214  -4.822   1.028  0.00  0.00    +0.000 A 
ATOM     12  C   UNL     1      -2.818  -6.066   0.859  0.00  0.00    +0.000 A 
ATOM     13  C   UNL     1      -3.670  -6.301  -0.220  0.00  0.00    +0.000 A 
ATOM     14  C   UNL     1      -3.923  -5.280  -1.136  0.00  0.00    +0.000 A 
ATOM     15  C   UNL     1      -3.318  -4.033  -0.969  0.00  0.00    +0.000 A 
ATOM     16 CL   UNL     1      -2.513  -7.325   1.993  0.00  0.00    +0.000 Cl
ENDBRANCH   2  10
TORSDOF 2
