REMARK  Name = *****
REMARK  3 active torsions:
REMARK  status: ('A' for Active; 'I' for Inactive)
REMARK    1  A    between atoms: C_4  and  C_7
REMARK    2  A    between atoms: C_8  and  C_9
REMARK    3  A    between atoms: C_10  and  C_16
REMARK                            x       y       z     vdW  Elec       q    Type
REMARK                         _______ _______ _______ _____ _____    ______ ____
ROOT
ATOM      1  C   UNL     1      -5.137  -0.290  -0.396  0.00  0.00    +0.000 A 
ATOM      2  C   UNL     1      -5.907  -0.932  -1.387  0.00  0.00    +0.000 A 
ATOM      3  C   UNL     1      -7.290  -0.694  -1.466  0.00  0.00    +0.000 A 
ATOM      4  C   UNL     1      -7.910   0.193  -0.586  0.00  0.00    +0.000 A 
ATOM      5  C   UNL     1      -7.151   0.836   0.386  0.00  0.00    +0.000 A 
ATOM      6  C   UNL     1      -5.780   0.595   0.490  0.00  0.00    +0.000 A 
ATOM      7 CL   UNL     1      -7.910   1.926   1.480  0.00  0.00    +0.000 Cl
ENDROOT
BRANCH   2   8
ATOM      8  C   UNL     1      -5.352  -1.878  -2.392  0.00  0.00    +0.000 C 
ATOM      9  O   UNL     1      -5.976  -2.872  -2.740  0.00  0.00    +0.000 OA
ATOM     10  N   UNL     1      -4.154  -1.561  -2.965  0.00  0.00    +0.000 N 
ATOM     11  H   UNL     1      -3.666  -0.758  -2.673  0.00  0.00    +0.000 HD
ATOM     12  H   UNL     1      -3.779  -2.135  -3.671  0.00  0.00    +0.000 HD
ENDBRANCH   2   8
BRANCH   1  14
ATOM     13  C   UNL     1      -2.771   0.379  -0.124  0.00  0.00    +0.000 C 
ATOM     14  C   UNL     1      -3.709  -0.580  -0.186  0.00  0.00    +0.000 C 
BRANCH  13  18
ATOM     15  C   UNL     1       1.423  -0.278   0.415  0.00  0.00    +0.000 A 
ATOM     16  C   UNL     1       0.673  -1.199  -0.313  0.00  0.00    +0.000 A 
ATOM     17  C   UNL     1      -0.699  -1.002  -0.491  0.00  0.00    +0.000 A 
ATOM     18  C   UNL     1      -1.338   0.113   0.067  0.00  0.00    +0.000 A 
ATOM     19  C   UNL     1      -0.569   1.040   0.784  0.00  0.00    +0.000 A 
ATOM     20  C   UNL     1       0.803   0.843   0.962  0.00  0.00    +0.000 A 
ENDBRANCH  13  18
ENDBRANCH   1  14
TORSDOF 3
