REMARK  Name = *****
REMARK  3 active torsions:
REMARK  status: ('A' for Active; 'I' for Inactive)
REMARK    1  A    between atoms: C_4  and  C_7
REMARK    2  A    between atoms: C_7  and  S_8
REMARK    3  A    between atoms: S_8  and  C_9
REMARK                            x       y       z     vdW  Elec       q    Type
REMARK                         _______ _______ _______ _____ _____    ______ ____
ROOT
ATOM      1  S   UNL     1      -3.740  -1.223  -0.771  0.00  0.00    +0.000 S 
ENDROOT
BRANCH   1   2
ATOM      2  C   UNL     1      -5.409  -0.771  -0.651  0.00  0.00    +0.000 A 
ATOM      3  C   UNL     1      -5.975   0.040  -1.561  0.00  0.00    +0.000 A 
ATOM      4  C   UNL     1      -7.412   0.404  -1.424  0.00  0.00    +0.000 A 
ATOM      5  S   UNL     1      -8.235   1.417  -2.469  0.00  0.00    +0.000 S 
ATOM      6  N   UNL     1      -8.074  -0.145  -0.348  0.00  0.00    +0.000 N 
ATOM      7  C   UNL     1      -7.485  -0.986   0.561  0.00  0.00    +0.000 A 
ATOM      8  C   UNL     1      -6.193  -1.311   0.441  0.00  0.00    +0.000 A 
ATOM      9  H   UNL     1      -9.024   0.080  -0.224  0.00  0.00    +0.000 HD
ENDBRANCH   1   2
BRANCH   1  10
ATOM     10  C   UNL     1      -2.971   0.241  -0.010  0.00  0.00    +0.000 C 
BRANCH  10  14
ATOM     11  C   UNL     1       1.315  -0.185   0.218  0.00  0.00    +0.000 A 
ATOM     12  C   UNL     1       0.729   0.364  -0.920  0.00  0.00    +0.000 A 
ATOM     13  C   UNL     1      -0.658   0.504  -0.995  0.00  0.00    +0.000 A 
ATOM     14  C   UNL     1      -1.473   0.100   0.073  0.00  0.00    +0.000 A 
ATOM     15  C   UNL     1      -0.871  -0.460   1.210  0.00  0.00    +0.000 A 
ATOM     16  C   UNL     1       0.516  -0.598   1.282  0.00  0.00    +0.000 A 
ENDBRANCH  10  14
ENDBRANCH   1  10
TORSDOF 3
