REMARK  Name = *****
REMARK  3 active torsions:
REMARK  status: ('A' for Active; 'I' for Inactive)
REMARK    1  A    between atoms: C_3  and  C_8
REMARK    2  A    between atoms: C_8  and  N_10
REMARK    3  A    between atoms: N_10  and  C_11
REMARK                            x       y       z     vdW  Elec       q    Type
REMARK                         _______ _______ _______ _____ _____    ______ ____
ROOT
ATOM      1  C   UNL     1       2.732   2.228  -0.635  0.00  0.00    +0.000 C 
ATOM      2  S   UNL     1       4.275   1.833  -1.158  0.00  0.00    +0.000 S 
ENDROOT
BRANCH   1   5
ATOM      3  C   UNL     1      -0.358   0.057  -0.750  0.00  0.00    +0.000 A 
ATOM      4  C   UNL     1       0.569   1.057  -1.045  0.00  0.00    +0.000 A 
ATOM      5  C   UNL     1       1.765   1.135  -0.316  0.00  0.00    +0.000 A 
ATOM      6  C   UNL     1       2.031   0.223   0.710  0.00  0.00    +0.000 A 
ATOM      7  C   UNL     1       1.097  -0.771   0.994  0.00  0.00    +0.000 A 
ATOM      8  C   UNL     1      -0.094  -0.858   0.271  0.00  0.00    +0.000 A 
ATOM      9 CL   UNL     1       1.409  -1.899   2.255  0.00  0.00    +0.000 Cl
ENDBRANCH   1   5
BRANCH   1  10
ATOM     10  N   UNL     1       2.181   3.481  -0.393  0.00  0.00    +0.000 N 
ATOM     11  H   UNL     1       1.305   3.449   0.054  0.00  0.00    +0.000 HD
BRANCH  10  12
ATOM     12  C   UNL     1       2.634   4.794  -0.666  0.00  0.00    +0.000 A 
ATOM     13  C   UNL     1       3.697   5.125  -1.503  0.00  0.00    +0.000 A 
ATOM     14  C   UNL     1       4.032   6.463  -1.711  0.00  0.00    +0.000 A 
ATOM     15  C   UNL     1       3.322   7.491  -1.105  0.00  0.00    +0.000 A 
ATOM     16  C   UNL     1       2.250   7.178  -0.279  0.00  0.00    +0.000 A 
ATOM     17  C   UNL     1       1.907   5.838  -0.068  0.00  0.00    +0.000 A 
ATOM     18  F   UNL     1       5.053   6.766  -2.524  0.00  0.00    +0.000 F 
ENDBRANCH  10  12
ENDBRANCH   1  10
TORSDOF 3
