REMARK  Name = *****
REMARK  2 active torsions:
REMARK  status: ('A' for Active; 'I' for Inactive)
REMARK    1  A    between atoms: C_1  and  C_2
REMARK    2  A    between atoms: C_9  and  C_11
REMARK                            x       y       z     vdW  Elec       q    Type
REMARK                         _______ _______ _______ _____ _____    ______ ____
ROOT
ATOM      1  C   UNL     1       0.978  -0.077   0.061  0.00  0.00    +0.000 C 
ATOM      2  C   UNL     1       2.480  -0.013   0.092  0.00  0.00    +0.000 A 
ATOM      3  C   UNL     1       3.238  -1.194   0.024  0.00  0.00    +0.000 A 
ATOM      4  C   UNL     1       4.619  -1.036   0.051  0.00  0.00    +0.000 A 
ATOM      5  C   UNL     1       5.274   0.180   0.137  0.00  0.00    +0.000 A 
ATOM      6  C   UNL     1       4.515   1.354   0.201  0.00  0.00    +0.000 A 
ATOM      7  C   UNL     1       3.116   1.240   0.176  0.00  0.00    +0.000 A 
ATOM      8  N   UNL     1       6.631  -0.020   0.143  0.00  0.00    +0.000 NA
ATOM      9  C   UNL     1       6.756  -1.334   0.056  0.00  0.00    +0.000 A 
ATOM     10  O   UNL     1       5.565  -2.017  -0.003  0.00  0.00    +0.000 OA
ENDROOT
BRANCH   9  11
ATOM     11  C   UNL     1       7.976  -2.138   0.015  0.00  0.00    +0.000 A 
ATOM     12  C   UNL     1       9.225  -1.508   0.125  0.00  0.00    +0.000 A 
ATOM     13  C   UNL     1      10.408  -2.250   0.087  0.00  0.00    +0.000 A 
ATOM     14  C   UNL     1      10.358  -3.634  -0.063  0.00  0.00    +0.000 A 
ATOM     15  C   UNL     1       9.126  -4.276  -0.175  0.00  0.00    +0.000 A 
ATOM     16  C   UNL     1       7.943  -3.533  -0.135  0.00  0.00    +0.000 A 
ENDBRANCH   9  11
TORSDOF 1
