REMARK  Name = *****
REMARK  3 active torsions:
REMARK  status: ('A' for Active; 'I' for Inactive)
REMARK    1  A    between atoms: C_6  and  C_7
REMARK    2  A    between atoms: C_7  and  C_8
REMARK    3  A    between atoms: C_8  and  C_9
REMARK                            x       y       z     vdW  Elec       q    Type
REMARK                         _______ _______ _______ _____ _____    ______ ____
ROOT
ATOM      1  C   UNL     1      -3.988   1.506   0.098  0.00  0.00    +0.000 C 
ATOM      2  F   UNL     1      -3.592   2.335   1.114  0.00  0.00    +0.000 F 
ENDROOT
BRANCH   1   3
ATOM      3  C   UNL     1      -5.491   1.531  -0.090  0.00  0.00    +0.000 A 
ATOM      4  C   UNL     1      -6.327   2.006   0.932  0.00  0.00    +0.000 A 
ATOM      5  C   UNL     1      -7.713   2.022   0.767  0.00  0.00    +0.000 A 
ATOM      6  C   UNL     1      -8.272   1.560  -0.422  0.00  0.00    +0.000 A 
ATOM      7  C   UNL     1      -7.458   1.085  -1.448  0.00  0.00    +0.000 A 
ATOM      8  C   UNL     1      -6.071   1.071  -1.283  0.00  0.00    +0.000 A 
ATOM      9 BR   UNL     1     -10.149   1.579  -0.646  0.00  0.00    +0.000 Br
ENDBRANCH   1   3
BRANCH   1  10
ATOM     10  C   UNL     1      -3.490   0.090   0.419  0.00  0.00    +0.000 C 
BRANCH  10  16
ATOM     11  C   UNL     1      -1.374  -0.541  -0.822  0.00  0.00    +0.000 A 
ATOM     12  C   UNL     1       0.017  -0.630  -0.902  0.00  0.00    +0.000 A 
ATOM     13  C   UNL     1       0.795  -0.200   0.166  0.00  0.00    +0.000 A 
ATOM     14  C   UNL     1       0.210   0.319   1.314  0.00  0.00    +0.000 A 
ATOM     15  C   UNL     1      -1.179   0.410   1.397  0.00  0.00    +0.000 A 
ATOM     16  C   UNL     1      -1.984  -0.023   0.332  0.00  0.00    +0.000 A 
ATOM     17  F   UNL     1       2.130  -0.286   0.086  0.00  0.00    +0.000 F 
ENDBRANCH  10  16
ENDBRANCH   1  10
TORSDOF 3
