REMARK  Name = *****
REMARK  2 active torsions:
REMARK  status: ('A' for Active; 'I' for Inactive)
REMARK    1  A    between atoms: C_2  and  C_12
REMARK    2  A    between atoms: N_3  and  C_4
REMARK                            x       y       z     vdW  Elec       q    Type
REMARK                         _______ _______ _______ _____ _____    ______ ____
ROOT
ATOM      1  C   UNL     1      -0.131   0.526   0.098  0.00  0.00    +0.000 C 
ATOM      2  C   UNL     1       0.447  -0.848   0.300  0.00  0.00    +0.000 C 
ATOM      3  N   UNL     1      -0.909  -0.509   0.775  0.00  0.00    +0.000 N 
ENDROOT
BRANCH   3   4
ATOM      4  C   UNL     1      -2.038  -1.092   0.137  0.00  0.00    +0.000 A 
ATOM      5  C   UNL     1      -3.119  -1.468   0.954  0.00  0.00    +0.000 A 
ATOM      6  C   UNL     1      -4.279  -2.049   0.437  0.00  0.00    +0.000 A 
ATOM      7  C   UNL     1      -4.392  -2.272  -0.931  0.00  0.00    +0.000 A 
ATOM      8  C   UNL     1      -3.340  -1.913  -1.769  0.00  0.00    +0.000 A 
ATOM      9  C   UNL     1      -2.184  -1.332  -1.238  0.00  0.00    +0.000 A 
ATOM     10  F   UNL     1      -1.208  -1.013  -2.104  0.00  0.00    +0.000 F 
ATOM     11  F   UNL     1      -3.054  -1.276   2.282  0.00  0.00    +0.000 F 
ENDBRANCH   3   4
BRANCH   2  12
ATOM     12  C   UNL     1       1.519  -1.060   1.340  0.00  0.00    +0.000 A 
ATOM     13  C   UNL     1       1.277  -1.797   2.512  0.00  0.00    +0.000 A 
ATOM     14  C   UNL     1       2.279  -2.004   3.464  0.00  0.00    +0.000 A 
ATOM     15  C   UNL     1       3.551  -1.480   3.260  0.00  0.00    +0.000 A 
ATOM     16  C   UNL     1       3.821  -0.750   2.105  0.00  0.00    +0.000 A 
ATOM     17  C   UNL     1       2.814  -0.546   1.157  0.00  0.00    +0.000 A 
ENDBRANCH   2  12
TORSDOF 2
