REMARK  Name = *****
REMARK  5 active torsions:
REMARK  status: ('A' for Active; 'I' for Inactive)
REMARK    1  A    between atoms: C_4  and  C_7
REMARK    2  A    between atoms: C_7  and  C_8
REMARK    3  A    between atoms: C_8  and  N_10
REMARK    4  A    between atoms: N_10  and  C_11
REMARK    5  A    between atoms: N_10  and  O_17
REMARK                            x       y       z     vdW  Elec       q    Type
REMARK                         _______ _______ _______ _____ _____    ______ ____
ROOT
ATOM      1  C   UNL     1      -4.027  -0.334  -1.516  0.00  0.00    +0.000 C 
ATOM      2  S   UNL     1      -4.386  -1.019  -3.021  0.00  0.00    +0.000 S 
ENDROOT
BRANCH   1   3
ATOM      3  C   UNL     1      -2.949   0.763  -1.486  0.00  0.00    +0.000 C 
BRANCH   3   7
ATOM      4  C   UNL     1       0.530  -0.294   0.851  0.00  0.00    +0.000 A 
ATOM      5  C   UNL     1       0.146  -1.093  -0.224  0.00  0.00    +0.000 A 
ATOM      6  C   UNL     1      -0.976  -0.754  -0.982  0.00  0.00    +0.000 A 
ATOM      7  C   UNL     1      -1.730   0.385  -0.667  0.00  0.00    +0.000 A 
ATOM      8  C   UNL     1      -1.323   1.190   0.407  0.00  0.00    +0.000 A 
ATOM      9  C   UNL     1      -0.202   0.849   1.165  0.00  0.00    +0.000 A 
ENDBRANCH   3   7
ENDBRANCH   1   3
BRANCH   1  10
ATOM     10  N   UNL     1      -4.652  -0.607  -0.299  0.00  0.00    +0.000 N 
BRANCH  10  11
ATOM     11  C   UNL     1      -5.574  -1.627   0.072  0.00  0.00    +0.000 A 
ATOM     12  C   UNL     1      -5.587  -2.890  -0.530  0.00  0.00    +0.000 A 
ATOM     13  C   UNL     1      -6.486  -3.880  -0.117  0.00  0.00    +0.000 A 
ATOM     14  C   UNL     1      -7.381  -3.628   0.917  0.00  0.00    +0.000 A 
ATOM     15  C   UNL     1      -7.371  -2.388   1.546  0.00  0.00    +0.000 A 
ATOM     16  C   UNL     1      -6.470  -1.402   1.133  0.00  0.00    +0.000 A 
ENDBRANCH  10  11
BRANCH  10  17
ATOM     17  O   UNL     1      -4.495   0.406   0.683  0.00  0.00    +0.000 OA
ATOM     18  H   UNL     1      -3.857   1.065   0.368  0.00  0.00    +0.000 HD
ENDBRANCH  10  17
ENDBRANCH   1  10
TORSDOF 5
