REMARK  Name = *****
REMARK  3 active torsions:
REMARK  status: ('A' for Active; 'I' for Inactive)
REMARK    1  A    between atoms: C_4  and  N_7
REMARK    2  A    between atoms: N_7  and  C_8
REMARK    3  A    between atoms: C_8  and  C_10
REMARK                            x       y       z     vdW  Elec       q    Type
REMARK                         _______ _______ _______ _____ _____    ______ ____
ROOT
ATOM      1  N   UNL     1      -2.814   0.022  -0.198  0.00  0.00    +0.000 N 
ATOM      2  H   UNL     1      -3.137   0.952  -0.164  0.00  0.00    +0.000 HD
ENDROOT
BRANCH   1   6
ATOM      3  C   UNL     1       1.407   0.011   0.092  0.00  0.00    +0.000 A 
ATOM      4  C   UNL     1       0.747  -1.199  -0.099  0.00  0.00    +0.000 A 
ATOM      5  C   UNL     1      -0.651  -1.239  -0.201  0.00  0.00    +0.000 A 
ATOM      6  C   UNL     1      -1.406  -0.071  -0.111  0.00  0.00    +0.000 A 
ATOM      7  C   UNL     1      -0.723   1.143   0.076  0.00  0.00    +0.000 A 
ATOM      8  C   UNL     1       0.670   1.186   0.179  0.00  0.00    +0.000 A 
ENDBRANCH   1   6
BRANCH   1   9
ATOM      9  C   UNL     1      -3.843  -0.901  -0.322  0.00  0.00    +0.000 C 
ATOM     10  S   UNL     1      -3.736  -2.574  -0.372  0.00  0.00    +0.000 S 
BRANCH   9  11
ATOM     11  C   UNL     1      -5.191  -0.305  -0.396  0.00  0.00    +0.000 A 
ATOM     12  C   UNL     1      -6.442  -0.876  -0.195  0.00  0.00    +0.000 A 
ATOM     13  C   UNL     1      -7.519   0.043  -0.362  0.00  0.00    +0.000 A 
ATOM     14  C   UNL     1      -7.074   1.301  -0.689  0.00  0.00    +0.000 A 
ATOM     15  S   UNL     1      -5.374   1.371  -0.789  0.00  0.00    +0.000 S 
ENDBRANCH   9  11
ENDBRANCH   1   9
TORSDOF 3
