REMARK  Name = *****
REMARK  4 active torsions:
REMARK  status: ('A' for Active; 'I' for Inactive)
REMARK    1  A    between atoms: C_1  and  C_2
REMARK    2  A    between atoms: C_3  and  N_9
REMARK    3  A    between atoms: C_4  and  C_8
REMARK    4  A    between atoms: C_10  and  C_11
REMARK                            x       y       z     vdW  Elec       q    Type
REMARK                         _______ _______ _______ _____ _____    ______ ____
ROOT
ATOM      1  N   UNL     1       0.421   2.384   0.700  0.00  0.00    +0.000 NA
ATOM      2  C   UNL     1       0.905   3.148  -0.227  0.00  0.00    +0.000 C 
ENDROOT
BRANCH   1   5
ATOM      3  C   UNL     1       2.635   0.595   1.198  0.00  0.00    +0.000 C 
ATOM      4  C   UNL     1       1.343   0.124   0.591  0.00  0.00    +0.000 A 
ATOM      5  C   UNL     1       0.282   1.024   0.361  0.00  0.00    +0.000 A 
ATOM      6  C   UNL     1      -0.932   0.552  -0.178  0.00  0.00    +0.000 A 
ATOM      7  C   UNL     1      -1.053  -0.800  -0.530  0.00  0.00    +0.000 A 
ATOM      8  C   UNL     1       0.007  -1.681  -0.330  0.00  0.00    +0.000 A 
ATOM      9  C   UNL     1       1.198  -1.223   0.230  0.00  0.00    +0.000 A 
ATOM     10  C   UNL     1      -2.090   1.485  -0.397  0.00  0.00    +0.000 C 
ENDBRANCH   1   5
BRANCH   2  11
ATOM     11  C   UNL     1       1.107   4.594  -0.017  0.00  0.00    +0.000 A 
ATOM     12  C   UNL     1       0.761   5.196   1.198  0.00  0.00    +0.000 A 
ATOM     13  C   UNL     1       0.960   6.567   1.376  0.00  0.00    +0.000 A 
ATOM     14  C   UNL     1       1.502   7.328   0.340  0.00  0.00    +0.000 A 
ATOM     15  C   UNL     1       1.847   6.730  -0.873  0.00  0.00    +0.000 A 
ATOM     16  C   UNL     1       1.650   5.359  -1.054  0.00  0.00    +0.000 A 
ATOM     17 CL   UNL     1       1.747   9.016   0.559  0.00  0.00    +0.000 Cl
ENDBRANCH   2  11
TORSDOF 2
