REMARK  Name = *****
REMARK  6 active torsions:
REMARK  status: ('A' for Active; 'I' for Inactive)
REMARK    1  A    between atoms: C_1  and  C_2
REMARK    2  A    between atoms: C_5  and  C_8
REMARK    3  A    between atoms: C_8  and  N_9
REMARK    4  A    between atoms: N_9  and  C_10
REMARK    5  A    between atoms: N_9  and  C_11
REMARK    6  A    between atoms: C_11  and  C_12
REMARK                            x       y       z     vdW  Elec       q    Type
REMARK                         _______ _______ _______ _____ _____    ______ ____
ROOT
ATOM      1  N   UNL     1      -3.858   1.407  -0.401  0.00  0.00    +0.000 N 
ATOM      2  C   UNL     1      -3.625   1.947  -1.745  0.00  0.00    +0.000 C 
ATOM      3  H   UNL     1      -3.387   2.000   0.283  0.00  0.00    +0.000 HD
ENDROOT
BRANCH   1   4
ATOM      4  C   UNL     1      -3.292   0.048  -0.276  0.00  0.00    +0.000 C 
BRANCH   4   9
ATOM      5  C   UNL     1       2.535  -0.129  -0.529  0.00  0.00    +0.000 C 
ATOM      6  C   UNL     1       1.038  -0.060  -0.481  0.00  0.00    +0.000 A 
ATOM      7  C   UNL     1       0.392   0.701   0.500  0.00  0.00    +0.000 A 
ATOM      8  C   UNL     1      -1.003   0.739   0.561  0.00  0.00    +0.000 A 
ATOM      9  C   UNL     1      -1.779   0.013  -0.353  0.00  0.00    +0.000 A 
ATOM     10  C   UNL     1      -1.129  -0.764  -1.321  0.00  0.00    +0.000 A 
ATOM     11  C   UNL     1       0.266  -0.803  -1.382  0.00  0.00    +0.000 A 
ENDBRANCH   4   9
ENDBRANCH   1   4
BRANCH   1  12
ATOM     12  C   UNL     1      -5.305   1.401  -0.119  0.00  0.00    +0.000 C 
BRANCH  12  13
ATOM     13  C   UNL     1      -5.635   1.154   1.340  0.00  0.00    +0.000 A 
ATOM     14  C   UNL     1      -5.082   1.969   2.342  0.00  0.00    +0.000 A 
ATOM     15  C   UNL     1      -5.399   1.755   3.684  0.00  0.00    +0.000 A 
ATOM     16  C   UNL     1      -6.273   0.730   4.025  0.00  0.00    +0.000 A 
ATOM     17  C   UNL     1      -6.836  -0.085   3.050  0.00  0.00    +0.000 A 
ATOM     18  C   UNL     1      -6.521   0.128   1.706  0.00  0.00    +0.000 A 
ATOM     19  F   UNL     1      -6.579   0.524   5.313  0.00  0.00    +0.000 F 
ENDBRANCH  12  13
ENDBRANCH   1  12
TORSDOF 4
