REMARK  Name = *****
REMARK  3 active torsions:
REMARK  status: ('A' for Active; 'I' for Inactive)
REMARK    1  A    between atoms: C_4  and  C_7
REMARK    2  A    between atoms: C_8  and  C_9
REMARK    3  A    between atoms: C_8  and  C_11
REMARK                            x       y       z     vdW  Elec       q    Type
REMARK                         _______ _______ _______ _____ _____    ______ ____
ROOT
ATOM      1  C   UNL     1      -2.837   0.195  -0.386  0.00  0.00    +0.000 C 
ATOM      2  C   UNL     1      -3.741  -0.786  -0.184  0.00  0.00    +0.000 C 
ENDROOT
BRANCH   1   6
ATOM      3  C   UNL     1       1.395  -0.048   0.123  0.00  0.00    +0.000 A 
ATOM      4  C   UNL     1       0.762  -0.894  -0.785  0.00  0.00    +0.000 A 
ATOM      5  C   UNL     1      -0.623  -0.827  -0.957  0.00  0.00    +0.000 A 
ATOM      6  C   UNL     1      -1.383   0.083  -0.212  0.00  0.00    +0.000 A 
ATOM      7  C   UNL     1      -0.737   0.938   0.689  0.00  0.00    +0.000 A 
ATOM      8  C   UNL     1       0.647   0.869   0.858  0.00  0.00    +0.000 A 
ENDBRANCH   1   6
BRANCH   2   9
ATOM      9  C   UNL     1      -5.173  -0.480  -0.390  0.00  0.00    +0.000 A 
ATOM     10  C   UNL     1      -5.641  -0.037  -1.637  0.00  0.00    +0.000 A 
ATOM     11  C   UNL     1      -6.996   0.247  -1.826  0.00  0.00    +0.000 A 
ATOM     12  C   UNL     1      -7.895   0.089  -0.774  0.00  0.00    +0.000 A 
ATOM     13  C   UNL     1      -7.444  -0.354   0.467  0.00  0.00    +0.000 A 
ATOM     14  C   UNL     1      -6.090  -0.639   0.660  0.00  0.00    +0.000 A 
ENDBRANCH   2   9
BRANCH   2  15
ATOM     15  C   UNL     1      -3.376  -2.094   0.266  0.00  0.00    +0.000 C 
ATOM     16  N   UNL     1      -3.096  -3.161   0.628  0.00  0.00    +0.000 NA
ENDBRANCH   2  15
TORSDOF 3
