REMARK  Name = *****
REMARK  5 active torsions:
REMARK  status: ('A' for Active; 'I' for Inactive)
REMARK    1  A    between atoms: C_1  and  C_2
REMARK    2  A    between atoms: C_2  and  C_3
REMARK    3  A    between atoms: C_2  and  O_8
REMARK    4  A    between atoms: O_8  and  C_9
REMARK    5  A    between atoms: C_9  and  C_11
REMARK                            x       y       z     vdW  Elec       q    Type
REMARK                         _______ _______ _______ _____ _____    ______ ____
ROOT
ATOM      1  C   UNL     1       3.264  -0.220  -1.951  0.00  0.00    +0.000 C 
ATOM      2  O   UNL     1       3.927   0.788  -2.113  0.00  0.00    +0.000 OA
ENDROOT
BRANCH   1   3
ATOM      3  C   UNL     1       3.202  -1.346  -2.911  0.00  0.00    +0.000 A 
ATOM      4  C   UNL     1       3.464  -1.103  -4.261  0.00  0.00    +0.000 A 
ATOM      5  C   UNL     1       3.430  -2.147  -5.179  0.00  0.00    +0.000 A 
ATOM      6  C   UNL     1       3.138  -3.437  -4.755  0.00  0.00    +0.000 A 
ATOM      7  C   UNL     1       2.877  -3.701  -3.414  0.00  0.00    +0.000 A 
ATOM      8  C   UNL     1       2.909  -2.655  -2.488  0.00  0.00    +0.000 A 
ATOM      9  F   UNL     1       3.104  -4.444  -5.638  0.00  0.00    +0.000 F 
ATOM     10  F   UNL     1       3.674  -1.908  -6.475  0.00  0.00    +0.000 F 
ATOM     11  F   UNL     1       3.728   0.135  -4.704  0.00  0.00    +0.000 F 
ENDBRANCH   1   3
BRANCH   1  12
ATOM     12  O   UNL     1       2.471  -0.501  -0.887  0.00  0.00    +0.000 OA
BRANCH  12  14
ATOM     13  C   UNL     1       0.913   0.807   0.358  0.00  0.00    +0.000 C 
ATOM     14  C   UNL     1       2.392   0.493   0.155  0.00  0.00    +0.000 C 
BRANCH  14  15
ATOM     15  C   UNL     1       3.046  -0.034   1.442  0.00  0.00    +0.000 C 
ATOM     16  C   UNL     1       4.535  -0.350   1.292  0.00  0.00    +0.000 C 
ATOM     17  C   UNL     1       4.857  -1.137   2.555  0.00  0.00    +0.000 C 
ATOM     18  C   UNL     1       3.580  -1.906   2.892  0.00  0.00    +0.000 C 
ATOM     19  C   UNL     1       2.494  -1.364   1.963  0.00  0.00    +0.000 C 
ENDBRANCH  14  15
ENDBRANCH  12  14
ENDBRANCH   1  12
TORSDOF 4
