REMARK  Name = *****
REMARK  7 active torsions:
REMARK  status: ('A' for Active; 'I' for Inactive)
REMARK    1  A    between atoms: C_1  and  C_2
REMARK    2  A    between atoms: C_5  and  S_8
REMARK    3  A    between atoms: S_8  and  C_9
REMARK    4  A    between atoms: C_9  and  C_10
REMARK    5  A    between atoms: C_10  and  C_18
REMARK    6  A    between atoms: C_12  and  O_16
REMARK    7  A    between atoms: O_16  and  C_17
REMARK                            x       y       z     vdW  Elec       q    Type
REMARK                         _______ _______ _______ _____ _____    ______ ____
ROOT
ATOM      1  C   UNL     1      -4.427   1.460   0.336  0.00  0.00    +0.000 C 
ENDROOT
BRANCH   1   2
ATOM      2  C   UNL     1      -5.981   1.502   0.247  0.00  0.00    +0.000 C 
ATOM      3  C   UNL     1      -6.586   0.401  -0.673  0.00  0.00    +0.000 C 
ATOM      4  C   UNL     1      -6.463   0.693  -2.174  0.00  0.00    +0.000 C 
ATOM      5  C   UNL     1      -7.098   2.053  -2.519  0.00  0.00    +0.000 C 
ATOM      6  C   UNL     1      -6.871   3.120  -1.487  0.00  0.00    +0.000 C 
ATOM      7  C   UNL     1      -6.368   2.884  -0.267  0.00  0.00    +0.000 C 
ATOM      8  C   UNL     1      -6.598   1.339   1.654  0.00  0.00    +0.000 C 
BRANCH   4   9
ATOM      9  O   UNL     1      -5.081   0.647  -2.546  0.00  0.00    +0.000 OA
ATOM     10  C   UNL     1      -4.873   0.300  -3.908  0.00  0.00    +0.000 C 
ENDBRANCH   4   9
ENDBRANCH   1   2
BRANCH   1  11
ATOM     11  S   UNL     1      -3.714  -0.104   0.984  0.00  0.00    +0.000 S 
BRANCH  11  16
ATOM     12  C   UNL     1       2.225   1.271   1.034  0.00  0.00    +0.000 C 
ATOM     13  C   UNL     1       0.757   0.964   1.019  0.00  0.00    +0.000 A 
ATOM     14  C   UNL     1       0.036   1.005  -0.180  0.00  0.00    +0.000 A 
ATOM     15  C   UNL     1      -1.325   0.686  -0.200  0.00  0.00    +0.000 A 
ATOM     16  C   UNL     1      -1.983   0.321   0.977  0.00  0.00    +0.000 A 
ATOM     17  C   UNL     1      -1.258   0.250   2.169  0.00  0.00    +0.000 A 
ATOM     18  C   UNL     1       0.103   0.569   2.191  0.00  0.00    +0.000 A 
ENDBRANCH  11  16
ENDBRANCH   1  11
TORSDOF 4
