REMARK  Name = *****
REMARK  2 active torsions:
REMARK  status: ('A' for Active; 'I' for Inactive)
REMARK    1  A    between atoms: C_4  and  S_7
REMARK    2  A    between atoms: S_7  and  P_8
REMARK                            x       y       z     vdW  Elec       q    Type
REMARK                         _______ _______ _______ _____ _____    ______ ____
ROOT
ATOM      1  P   UNL     1      -4.152  -1.082  -0.175  0.00  0.00    +0.000 P 
ATOM      2  S   UNL     1      -3.519   0.058   1.279  0.00  0.00    +0.000 S 
ATOM      3  O   UNL     1      -5.417  -0.414  -1.001  0.00  0.00    +0.000 OA
ATOM      4  C   UNL     1      -6.498  -1.241  -0.896  0.00  0.00    +0.000 A 
ATOM      5  C   UNL     1      -7.723  -1.026  -1.488  0.00  0.00    +0.000 A 
ATOM      6  C   UNL     1      -8.721  -1.980  -1.272  0.00  0.00    +0.000 A 
ATOM      7  C   UNL     1      -8.473  -3.114  -0.475  0.00  0.00    +0.000 A 
ATOM      8  C   UNL     1      -7.223  -3.311   0.119  0.00  0.00    +0.000 A 
ATOM      9  C   UNL     1      -6.253  -2.359  -0.109  0.00  0.00    +0.000 A 
ATOM     10  O   UNL     1      -4.983  -2.393   0.393  0.00  0.00    +0.000 OA
ENDROOT
BRANCH   1  11
ATOM     11  S   UNL     1      -2.796  -1.843  -1.614  0.00  0.00    +0.000 S 
BRANCH  11  15
ATOM     12  C   UNL     1      -2.149   2.082  -3.871  0.00  0.00    +0.000 A 
ATOM     13  C   UNL     1      -3.132   1.188  -4.292  0.00  0.00    +0.000 A 
ATOM     14  C   UNL     1      -3.325  -0.012  -3.604  0.00  0.00    +0.000 A 
ATOM     15  C   UNL     1      -2.542  -0.317  -2.487  0.00  0.00    +0.000 A 
ATOM     16  C   UNL     1      -1.548   0.576  -2.079  0.00  0.00    +0.000 A 
ATOM     17  C   UNL     1      -1.356   1.776  -2.767  0.00  0.00    +0.000 A 
ENDBRANCH  11  15
ENDBRANCH   1  11
TORSDOF 2
