REMARK  Name = *****
REMARK  6 active torsions:
REMARK  status: ('A' for Active; 'I' for Inactive)
REMARK    1  A    between atoms: C_1  and  C_2
REMARK    2  A    between atoms: C_2  and  O_3
REMARK    3  A    between atoms: O_3  and  C_4
REMARK    4  A    between atoms: C_4  and  C_5
REMARK    5  A    between atoms: C_4  and  S_11
REMARK    6  A    between atoms: S_11  and  C_12
REMARK                            x       y       z     vdW  Elec       q    Type
REMARK                         _______ _______ _______ _____ _____    ______ ____
ROOT
ATOM      1  C   UNL     1       4.242  -0.759  -1.278  0.00  0.00    +0.000 C 
ENDROOT
BRANCH   1   2
ATOM      2  C   UNL     1       4.926  -1.656  -0.258  0.00  0.00    +0.000 A 
ATOM      3  C   UNL     1       4.477  -2.966  -0.023  0.00  0.00    +0.000 A 
ATOM      4  C   UNL     1       5.117  -3.782   0.911  0.00  0.00    +0.000 A 
ATOM      5  C   UNL     1       6.217  -3.302   1.618  0.00  0.00    +0.000 A 
ATOM      6  C   UNL     1       6.681  -2.008   1.391  0.00  0.00    +0.000 A 
ATOM      7  C   UNL     1       6.042  -1.189   0.457  0.00  0.00    +0.000 A 
ENDBRANCH   1   2
BRANCH   1   8
ATOM      8  O   UNL     1       2.821  -0.940  -1.224  0.00  0.00    +0.000 OA
BRANCH   8  10
ATOM      9  C   UNL     1       0.714  -0.386  -0.260  0.00  0.00    +0.000 C 
ATOM     10  C   UNL     1       2.201  -0.095  -0.259  0.00  0.00    +0.000 C 
ENDBRANCH   8  10
ENDBRANCH   1   8
BRANCH   1  11
ATOM     11  S   UNL     1       4.874  -1.134  -2.962  0.00  0.00    +0.000 S 
BRANCH  11  12
ATOM     12  C   UNL     1       4.278   0.304  -3.829  0.00  0.00    +0.000 A 
ATOM     13  C   UNL     1       5.192   1.251  -4.301  0.00  0.00    +0.000 A 
ATOM     14  C   UNL     1       4.743   2.382  -4.987  0.00  0.00    +0.000 A 
ATOM     15  C   UNL     1       3.380   2.567  -5.211  0.00  0.00    +0.000 A 
ATOM     16  C   UNL     1       2.465   1.619  -4.756  0.00  0.00    +0.000 A 
ATOM     17  C   UNL     1       2.913   0.488  -4.071  0.00  0.00    +0.000 A 
ENDBRANCH  11  12
ENDBRANCH   1  11
TORSDOF 5
