REMARK  Name = *****
REMARK  1 active torsions:
REMARK  status: ('A' for Active; 'I' for Inactive)
REMARK    1  A    between atoms: C_9  and  C_10
REMARK                            x       y       z     vdW  Elec       q    Type
REMARK                         _______ _______ _______ _____ _____    ______ ____
ROOT
ATOM      1  C   UNL     1       1.570   0.728  -0.495  0.00  0.00    +0.000 C 
ATOM      2  C   UNL     1       1.525  -0.821  -0.476  0.00  0.00    +0.000 C 
ATOM      3  C   UNL     1       0.292  -1.123   0.408  0.00  0.00    +0.000 C 
ATOM      4  C   UNL     1       0.416   0.011   1.446  0.00  0.00    +0.000 C 
ATOM      5  C   UNL     1       0.356   1.122   0.378  0.00  0.00    +0.000 C 
ATOM      6  C   UNL     1      -0.899   0.799  -0.421  0.00  0.00    +0.000 C 
ATOM      7  C   UNL     1      -0.945  -0.752  -0.399  0.00  0.00    +0.000 C 
ATOM      8  C   UNL     1      -1.993   0.064   0.078  0.00  0.00    +0.000 C 
ATOM      9  C   UNL     1      -3.188   0.075   0.633  0.00  0.00    +0.000 C 
ENDROOT
BRANCH   9  10
ATOM     10  C   UNL     1      -3.931   1.287   1.001  0.00  0.00    +0.000 A 
ATOM     11  C   UNL     1      -3.809   2.493   0.300  0.00  0.00    +0.000 A 
ATOM     12  C   UNL     1      -4.558   3.614   0.671  0.00  0.00    +0.000 A 
ATOM     13  C   UNL     1      -5.445   3.539   1.742  0.00  0.00    +0.000 A 
ATOM     14  C   UNL     1      -5.587   2.342   2.440  0.00  0.00    +0.000 A 
ATOM     15  C   UNL     1      -4.839   1.222   2.068  0.00  0.00    +0.000 A 
ENDBRANCH   9  10
TORSDOF 1
