REMARK  Name = *****
REMARK  5 active torsions:
REMARK  status: ('A' for Active; 'I' for Inactive)
REMARK    1  A    between atoms: C_1  and  C_2
REMARK    2  A    between atoms: C_5  and  C_8
REMARK    3  A    between atoms: C_8  and  N_9
REMARK    4  A    between atoms: N_9  and  C_10
REMARK    5  A    between atoms: C_10  and  C_11
REMARK                            x       y       z     vdW  Elec       q    Type
REMARK                         _______ _______ _______ _____ _____    ______ ____
ROOT
ATOM      1  C   UNL     1      -3.232   0.205  -0.107  0.00  0.00    +0.000 C 
ENDROOT
BRANCH   1   6
ATOM      2  C   UNL     1       2.529  -0.174   0.095  0.00  0.00    +0.000 C 
ATOM      3  C   UNL     1       1.032  -0.070   0.072  0.00  0.00    +0.000 A 
ATOM      4  C   UNL     1       0.408   1.184   0.100  0.00  0.00    +0.000 A 
ATOM      5  C   UNL     1      -0.984   1.282   0.046  0.00  0.00    +0.000 A 
ATOM      6  C   UNL     1      -1.759   0.125  -0.048  0.00  0.00    +0.000 A 
ATOM      7  C   UNL     1      -1.148  -1.130  -0.091  0.00  0.00    +0.000 A 
ATOM      8  C   UNL     1       0.245  -1.225  -0.036  0.00  0.00    +0.000 A 
ENDBRANCH   1   6
BRANCH   1   9
ATOM      9  N   UNL     1      -3.856   1.333  -0.068  0.00  0.00    +0.000 NA
BRANCH   9  10
ATOM     10  C   UNL     1      -5.315   1.195  -0.139  0.00  0.00    +0.000 C 
BRANCH  10  11
ATOM     11  C   UNL     1      -5.986   2.574  -0.028  0.00  0.00    +0.000 C 
ATOM     12  C   UNL     1      -5.596   3.501  -1.191  0.00  0.00    +0.000 C 
ATOM     13  C   UNL     1      -6.280   4.861  -1.077  0.00  0.00    +0.000 C 
ATOM     14  C   UNL     1      -6.003   5.520   0.271  0.00  0.00    +0.000 C 
ATOM     15  C   UNL     1      -6.384   4.606   1.432  0.00  0.00    +0.000 C 
ATOM     16  C   UNL     1      -5.700   3.245   1.325  0.00  0.00    +0.000 C 
ENDBRANCH  10  11
ENDBRANCH   9  10
ENDBRANCH   1   9
TORSDOF 4
