REMARK  Name = *****
REMARK  4 active torsions:
REMARK  status: ('A' for Active; 'I' for Inactive)
REMARK    1  A    between atoms: C_3  and  N_16
REMARK    2  A    between atoms: C_6  and  C_7
REMARK    3  A    between atoms: C_7  and  C_8
REMARK    4  A    between atoms: C_8  and  C_9
REMARK                            x       y       z     vdW  Elec       q    Type
REMARK                         _______ _______ _______ _____ _____    ______ ____
ROOT
ATOM      1  C   UNL     1      -1.094  -0.006  -1.115  0.00  0.00    +0.000 A 
ATOM      2  C   UNL     1       0.304   0.019  -1.091  0.00  0.00    +0.000 A 
ATOM      3  C   UNL     1       0.998   0.088   0.119  0.00  0.00    +0.000 A 
ATOM      4  C   UNL     1       0.270   0.026   1.309  0.00  0.00    +0.000 A 
ATOM      5  C   UNL     1      -1.128   0.001   1.293  0.00  0.00    +0.000 A 
ATOM      6  C   UNL     1      -1.823  -0.011   0.079  0.00  0.00    +0.000 A 
ENDROOT
BRANCH   3   7
ATOM      7  N   UNL     1       2.394  -0.013   0.140  0.00  0.00    +0.000 N 
ATOM      8  H   UNL     1       2.903   0.032  -0.702  0.00  0.00    +0.000 HD
ATOM      9  H   UNL     1       2.867  -0.128   0.995  0.00  0.00    +0.000 HD
ENDBRANCH   3   7
BRANCH   6  10
ATOM     10  C   UNL     1      -3.331  -0.022   0.059  0.00  0.00    +0.000 C 
BRANCH  10  11
ATOM     11  C   UNL     1      -3.903   1.398   0.056  0.00  0.00    +0.000 C 
BRANCH  11  12
ATOM     12  C   UNL     1      -5.413   1.390   0.066  0.00  0.00    +0.000 A 
ATOM     13  C   UNL     1      -6.113   1.376   1.281  0.00  0.00    +0.000 A 
ATOM     14  C   UNL     1      -7.510   1.348   1.291  0.00  0.00    +0.000 A 
ATOM     15  C   UNL     1      -8.210   1.330   0.088  0.00  0.00    +0.000 A 
ATOM     16  C   UNL     1      -7.528   1.338  -1.127  0.00  0.00    +0.000 A 
ATOM     17  C   UNL     1      -6.131   1.365  -1.138  0.00  0.00    +0.000 A 
ATOM     18 CL   UNL     1      -9.931   1.295   0.101  0.00  0.00    +0.000 Cl
ENDBRANCH  11  12
ENDBRANCH  10  11
ENDBRANCH   6  10
TORSDOF 4
