REMARK  Name = *****
REMARK  4 active torsions:
REMARK  status: ('A' for Active; 'I' for Inactive)
REMARK    1  A    between atoms: C_1  and  C_2
REMARK    2  A    between atoms: C_2  and  O_8
REMARK    3  A    between atoms: O_8  and  C_9
REMARK    4  A    between atoms: C_9  and  C_11
REMARK                            x       y       z     vdW  Elec       q    Type
REMARK                         _______ _______ _______ _____ _____    ______ ____
ROOT
ATOM      1  C   UNL     1       1.310   1.379   2.507  0.00  0.00    +0.000 C 
ATOM      2  O   UNL     1       1.932   2.313   2.024  0.00  0.00    +0.000 OA
ENDROOT
BRANCH   1   3
ATOM      3  C   UNL     1       1.015   1.209   3.984  0.00  0.00    +0.000 C 
ATOM      4  C   UNL     1      -0.514   1.095   4.274  0.00  0.00    +0.000 C 
ATOM      5  C   UNL     1      -0.769   2.268   5.244  0.00  0.00    +0.000 C 
ATOM      6  C   UNL     1       0.158   3.337   4.664  0.00  0.00    +0.000 C 
ATOM      7  C   UNL     1       1.413   2.464   4.801  0.00  0.00    +0.000 C 
ATOM      8  C   UNL     1       1.283   2.106   6.267  0.00  0.00    +0.000 C 
ATOM      9  C   UNL     1      -0.027   1.982   6.529  0.00  0.00    +0.000 C 
ENDBRANCH   1   3
BRANCH   1  10
ATOM     10  O   UNL     1       0.814   0.315   1.820  0.00  0.00    +0.000 OA
BRANCH  10  12
ATOM     11  C   UNL     1       2.438   0.145  -0.016  0.00  0.00    +0.000 C 
ATOM     12  C   UNL     1       0.956   0.216   0.376  0.00  0.00    +0.000 C 
ATOM     13  C   UNL     1       0.229   1.364  -0.353  0.00  0.00    +0.000 C 
ATOM     14  C   UNL     1      -1.274   1.376  -0.070  0.00  0.00    +0.000 C 
ATOM     15  C   UNL     1      -1.921   0.039  -0.413  0.00  0.00    +0.000 C 
ATOM     16  C   UNL     1      -1.220  -1.124   0.280  0.00  0.00    +0.000 C 
ATOM     17  C   UNL     1       0.284  -1.125  -0.003  0.00  0.00    +0.000 C 
ENDBRANCH  10  12
ENDBRANCH   1  10
TORSDOF 3
