REMARK  Name = *****
REMARK  2 active torsions:
REMARK  status: ('A' for Active; 'I' for Inactive)
REMARK    1  A    between atoms: N_9  and  C_10
REMARK    2  A    between atoms: C_10  and  C_11
REMARK                            x       y       z     vdW  Elec       q    Type
REMARK                         _______ _______ _______ _____ _____    ______ ____
ROOT
ATOM      1  C   UNL     1       0.569  -2.198   2.075  0.00  0.00    +0.000 A 
ATOM      2  C   UNL     1       1.059  -1.117   2.811  0.00  0.00    +0.000 A 
ATOM      3  C   UNL     1       1.432   0.080   2.187  0.00  0.00    +0.000 A 
ATOM      4  C   UNL     1       1.289   0.141   0.797  0.00  0.00    +0.000 A 
ATOM      5  C   UNL     1       0.807  -0.925   0.043  0.00  0.00    +0.000 A 
ATOM      6  C   UNL     1       0.438  -2.117   0.683  0.00  0.00    +0.000 A 
ATOM      7  N   UNL     1       0.787  -0.583  -1.281  0.00  0.00    +0.000 NA
ATOM      8  N   UNL     1       1.244   0.656  -1.393  0.00  0.00    +0.000 NA
ATOM      9  N   UNL     1       1.528   1.103  -0.152  0.00  0.00    +0.000 N 
ENDROOT
BRANCH   9  10
ATOM     10  C   UNL     1       2.084   2.432   0.029  0.00  0.00    +0.000 C 
BRANCH  10  11
ATOM     11  C   UNL     1       1.009   3.485   0.067  0.00  0.00    +0.000 A 
ATOM     12  C   UNL     1       0.404   3.792   1.292  0.00  0.00    +0.000 A 
ATOM     13  C   UNL     1      -0.621   4.729   1.398  0.00  0.00    +0.000 A 
ATOM     14  C   UNL     1      -1.070   5.388   0.260  0.00  0.00    +0.000 A 
ATOM     15  C   UNL     1      -0.482   5.108  -0.973  0.00  0.00    +0.000 A 
ATOM     16  C   UNL     1       0.550   4.165  -1.070  0.00  0.00    +0.000 A 
ATOM     17 CL   UNL     1       1.240   3.910  -2.633  0.00  0.00    +0.000 Cl
ATOM     18  F   UNL     1       0.825   3.184   2.410  0.00  0.00    +0.000 F 
ENDBRANCH  10  11
ENDBRANCH   9  10
TORSDOF 2
