REMARK  Name = *****
REMARK  3 active torsions:
REMARK  status: ('A' for Active; 'I' for Inactive)
REMARK    1  A    between atoms: C_1  and  C_2
REMARK    2  A    between atoms: C_3  and  C_7
REMARK    3  A    between atoms: C_8  and  C_9
REMARK                            x       y       z     vdW  Elec       q    Type
REMARK                         _______ _______ _______ _____ _____    ______ ____
ROOT
ATOM      1  C   UNL     1      -0.431  -2.406   0.010  0.00  0.00    +0.000 C 
ATOM      2  C   UNL     1      -1.675  -2.905  -0.061  0.00  0.00    +0.000 C 
ENDROOT
BRANCH   1   5
ATOM      3  C   UNL     1       2.375  -0.896   0.156  0.00  0.00    +0.000 C 
ATOM      4  C   UNL     1       1.016  -0.309   0.020  0.00  0.00    +0.000 A 
ATOM      5  C   UNL     1      -0.198  -1.001  -0.041  0.00  0.00    +0.000 A 
ATOM      6  O   UNL     1      -1.204  -0.066  -0.165  0.00  0.00    +0.000 OA
ATOM      7  C   UNL     1      -0.650   1.167  -0.183  0.00  0.00    +0.000 A 
ATOM      8  C   UNL     1       0.711   1.079  -0.073  0.00  0.00    +0.000 A 
ENDBRANCH   1   5
BRANCH   2   9
ATOM      9  C   UNL     1      -1.985  -4.341  -0.027  0.00  0.00    +0.000 A 
ATOM     10  C   UNL     1      -1.310  -5.234   0.816  0.00  0.00    +0.000 A 
ATOM     11  C   UNL     1      -1.656  -6.588   0.840  0.00  0.00    +0.000 A 
ATOM     12  C   UNL     1      -2.686  -7.060   0.030  0.00  0.00    +0.000 A 
ATOM     13  C   UNL     1      -3.376  -6.179  -0.800  0.00  0.00    +0.000 A 
ATOM     14  C   UNL     1      -3.031  -4.825  -0.823  0.00  0.00    +0.000 A 
ENDBRANCH   2   9
TORSDOF 2
