REMARK  Name = *****
REMARK  5 active torsions:
REMARK  status: ('A' for Active; 'I' for Inactive)
REMARK    1  A    between atoms: C_1  and  C_11
REMARK    2  A    between atoms: C_2  and  C_3
REMARK    3  A    between atoms: C_6  and  O_9
REMARK    4  A    between atoms: O_9  and  C_10
REMARK    5  A    between atoms: C_14  and  C_17
REMARK                            x       y       z     vdW  Elec       q    Type
REMARK                         _______ _______ _______ _____ _____    ______ ____
ROOT
ATOM      1  C   UNL     1       2.248   0.011  -0.088  0.00  0.00    +0.000 C 
ATOM      2  C   UNL     1       2.808   0.681   0.933  0.00  0.00    +0.000 C 
ENDROOT
BRANCH   2   3
ATOM      3  C   UNL     1       2.079   1.632   1.784  0.00  0.00    +0.000 A 
ATOM      4  C   UNL     1       0.759   1.411   2.195  0.00  0.00    +0.000 A 
ATOM      5  C   UNL     1       0.104   2.325   3.032  0.00  0.00    +0.000 A 
ATOM      6  C   UNL     1       0.767   3.468   3.477  0.00  0.00    +0.000 A 
ATOM      7  C   UNL     1       2.089   3.683   3.084  0.00  0.00    +0.000 A 
ATOM      8  C   UNL     1       2.743   2.772   2.249  0.00  0.00    +0.000 A 
BRANCH   6   9
ATOM      9  O   UNL     1       0.248   4.435   4.292  0.00  0.00    +0.000 OA
ATOM     10  C   UNL     1      -1.105   4.273   4.701  0.00  0.00    +0.000 C 
ENDBRANCH   6   9
ENDBRANCH   2   3
BRANCH   1  11
ATOM     11  C   UNL     1       2.981  -0.926  -0.952  0.00  0.00    +0.000 A 
ATOM     12  C   UNL     1       3.954  -1.799  -0.453  0.00  0.00    +0.000 A 
ATOM     13  C   UNL     1       4.608  -2.699  -1.301  0.00  0.00    +0.000 A 
ATOM     14  C   UNL     1       4.298  -2.745  -2.668  0.00  0.00    +0.000 A 
ATOM     15  C   UNL     1       3.305  -1.888  -3.162  0.00  0.00    +0.000 A 
ATOM     16  C   UNL     1       2.653  -0.990  -2.312  0.00  0.00    +0.000 A 
BRANCH  14  17
ATOM     17  C   UNL     1       4.987  -3.732  -3.578  0.00  0.00    +0.000 C 
ATOM     18  F   UNL     1       6.275  -3.986  -3.212  0.00  0.00    +0.000 F 
ATOM     19  F   UNL     1       4.360  -4.940  -3.601  0.00  0.00    +0.000 F 
ATOM     20  F   UNL     1       5.046  -3.316  -4.874  0.00  0.00    +0.000 F 
ENDBRANCH  14  17
ENDBRANCH   1  11
TORSDOF 4
