REMARK  Name = *****
REMARK  5 active torsions:
REMARK  status: ('A' for Active; 'I' for Inactive)
REMARK    1  A    between atoms: C_1  and  C_2
REMARK    2  A    between atoms: C_3  and  O_11
REMARK    3  A    between atoms: C_5  and  C_8
REMARK    4  A    between atoms: O_11  and  C_12
REMARK    5  A    between atoms: C_12  and  C_13
REMARK                            x       y       z     vdW  Elec       q    Type
REMARK                         _______ _______ _______ _____ _____    ______ ____
ROOT
ATOM      1  C   UNL     1       2.009  -0.705  -2.063  0.00  0.00    +0.000 C 
ATOM      2  C   UNL     1       0.744  -0.419  -1.305  0.00  0.00    +0.000 A 
ATOM      3  C   UNL     1       0.442   0.879  -0.876  0.00  0.00    +0.000 A 
ATOM      4  C   UNL     1      -0.751   1.160  -0.202  0.00  0.00    +0.000 A 
ATOM      5  C   UNL     1      -1.646   0.124   0.094  0.00  0.00    +0.000 A 
ATOM      6  C   UNL     1      -1.333  -1.184  -0.307  0.00  0.00    +0.000 A 
ATOM      7  C   UNL     1      -0.151  -1.452  -1.004  0.00  0.00    +0.000 A 
ENDROOT
BRANCH   5   8
ATOM      8  C   UNL     1      -2.934   0.370   0.822  0.00  0.00    +0.000 C 
ATOM      9  O   UNL     1      -3.660  -0.602   1.026  0.00  0.00    +0.000 OA
ATOM     10 CL   UNL     1      -3.344   1.989   1.350  0.00  0.00    +0.000 Cl
ENDBRANCH   5   8
BRANCH   3  11
ATOM     11  O   UNL     1       1.309   1.890  -1.203  0.00  0.00    +0.000 OA
BRANCH  11  12
ATOM     12  C   UNL     1       1.904   2.478  -0.039  0.00  0.00    +0.000 C 
BRANCH  12  13
ATOM     13  C   UNL     1       3.095   3.305  -0.461  0.00  0.00    +0.000 A 
ATOM     14  C   UNL     1       2.967   4.278  -1.464  0.00  0.00    +0.000 A 
ATOM     15  C   UNL     1       4.061   5.061  -1.837  0.00  0.00    +0.000 A 
ATOM     16  C   UNL     1       5.292   4.884  -1.209  0.00  0.00    +0.000 A 
ATOM     17  C   UNL     1       5.430   3.926  -0.206  0.00  0.00    +0.000 A 
ATOM     18  C   UNL     1       4.337   3.142   0.168  0.00  0.00    +0.000 A 
ENDBRANCH  12  13
ENDBRANCH  11  12
ENDBRANCH   3  11
TORSDOF 4
