REMARK  Name = *****
REMARK  4 active torsions:
REMARK  status: ('A' for Active; 'I' for Inactive)
REMARK    1  A    between atoms: C_1  and  O_2
REMARK    2  A    between atoms: O_2  and  C_3
REMARK    3  A    between atoms: C_7  and  C_9
REMARK    4  A    between atoms: C_11  and  C_12
REMARK                            x       y       z     vdW  Elec       q    Type
REMARK                         _______ _______ _______ _____ _____    ______ ____
ROOT
ATOM      1  C   UNL     1       6.435  -1.026   2.088  0.00  0.00    +0.000 C 
ATOM      2  C   UNL     1       7.658  -1.624   1.441  0.00  0.00    +0.000 C 
ATOM      3  C   UNL     1       7.352  -1.948   2.881  0.00  0.00    +0.000 C 
ENDROOT
BRANCH   1   8
ATOM      4  C   UNL     1       6.068   2.269   4.025  0.00  0.00    +0.000 A 
ATOM      5  C   UNL     1       6.270   3.208   3.015  0.00  0.00    +0.000 A 
ATOM      6  C   UNL     1       6.524   2.782   1.711  0.00  0.00    +0.000 A 
ATOM      7  C   UNL     1       6.580   1.418   1.415  0.00  0.00    +0.000 A 
ATOM      8  C   UNL     1       6.391   0.449   2.411  0.00  0.00    +0.000 A 
ATOM      9  C   UNL     1       6.126   0.906   3.713  0.00  0.00    +0.000 A 
BRANCH   4  11
ATOM     10  C   UNL     1       5.755   3.916   5.710  0.00  0.00    +0.000 C 
ATOM     11  O   UNL     1       5.807   2.544   5.339  0.00  0.00    +0.000 OA
ENDBRANCH   4  11
ENDBRANCH   1   8
BRANCH   3  12
ATOM     12  C   UNL     1       6.877  -3.330   3.264  0.00  0.00    +0.000 A 
ATOM     13  C   UNL     1       7.627  -4.474   2.946  0.00  0.00    +0.000 A 
ATOM     14  C   UNL     1       7.199  -5.753   3.312  0.00  0.00    +0.000 A 
ATOM     15  C   UNL     1       6.007  -5.913   4.013  0.00  0.00    +0.000 A 
ATOM     16  C   UNL     1       5.249  -4.795   4.350  0.00  0.00    +0.000 A 
ATOM     17  C   UNL     1       5.684  -3.519   3.982  0.00  0.00    +0.000 A 
ENDBRANCH   3  12
TORSDOF 3
