REMARK  Name = *****
REMARK  2 active torsions:
REMARK  status: ('A' for Active; 'I' for Inactive)
REMARK    1  A    between atoms: C_6  and  C_7
REMARK    2  A    between atoms: C_8  and  C_10
REMARK                            x       y       z     vdW  Elec       q    Type
REMARK                         _______ _______ _______ _____ _____    ______ ____
ROOT
ATOM      1  C   UNL     1      -3.423  -0.186  -0.067  0.00  0.00    +0.000 C 
ATOM      2  C   UNL     1      -4.237   0.624  -1.065  0.00  0.00    +0.000 C 
ATOM      3  O   UNL     1      -4.221   0.938   0.337  0.00  0.00    +0.000 OA
ENDROOT
BRANCH   1   9
ATOM      4  C   UNL     1      -1.118  -0.583  -1.046  0.00  0.00    +0.000 A 
ATOM      5  C   UNL     1       0.274  -0.461  -1.011  0.00  0.00    +0.000 A 
ATOM      6  C   UNL     1       0.875   0.209   0.045  0.00  0.00    +0.000 A 
ATOM      7  C   UNL     1       0.111   0.757   1.066  0.00  0.00    +0.000 A 
ATOM      8  C   UNL     1      -1.279   0.632   1.026  0.00  0.00    +0.000 A 
ATOM      9  C   UNL     1      -1.925  -0.036  -0.030  0.00  0.00    +0.000 A 
ATOM     10  F   UNL     1       2.209   0.326   0.080  0.00  0.00    +0.000 F 
ENDBRANCH   1   9
BRANCH   2  11
ATOM     11  C   UNL     1      -5.496   0.030  -1.643  0.00  0.00    +0.000 A 
ATOM     12  C   UNL     1      -6.770   0.416  -1.190  0.00  0.00    +0.000 A 
ATOM     13  C   UNL     1      -7.935  -0.136  -1.730  0.00  0.00    +0.000 A 
ATOM     14  C   UNL     1      -7.843  -1.085  -2.742  0.00  0.00    +0.000 A 
ATOM     15  C   UNL     1      -6.597  -1.483  -3.217  0.00  0.00    +0.000 A 
ATOM     16  C   UNL     1      -5.436  -0.927  -2.671  0.00  0.00    +0.000 A 
ATOM     17 CL   UNL     1      -9.272  -1.769  -3.410  0.00  0.00    +0.000 Cl
ENDBRANCH   2  11
TORSDOF 2
