REMARK  Name = *****
REMARK  7 active torsions:
REMARK  status: ('A' for Active; 'I' for Inactive)
REMARK    1  A    between atoms: C_1  and  C_2
REMARK    2  A    between atoms: C_4  and  C_19
REMARK    3  A    between atoms: C_5  and  C_10
REMARK    4  A    between atoms: C_6  and  C_9
REMARK    5  A    between atoms: C_7  and  C_8
REMARK    6  A    between atoms: C_10  and  C_11
REMARK    7  A    between atoms: C_11  and  C_13
REMARK                            x       y       z     vdW  Elec       q    Type
REMARK                         _______ _______ _______ _____ _____    ______ ____
ROOT
ATOM      1  C   UNL     1       0.920   0.119  -0.115  0.00  0.00    +0.000 C 
ATOM      2  C   UNL     1       2.424   0.068  -0.092  0.00  0.00    +0.000 A 
ATOM      3  C   UNL     1       3.043  -1.173   0.095  0.00  0.00    +0.000 A 
ATOM      4  C   UNL     1       4.438  -1.305   0.139  0.00  0.00    +0.000 A 
ATOM      5  C   UNL     1       5.253  -0.166  -0.050  0.00  0.00    +0.000 A 
ATOM      6  C   UNL     1       4.639   1.107  -0.234  0.00  0.00    +0.000 A 
ATOM      7  C   UNL     1       3.220   1.226  -0.210  0.00  0.00    +0.000 A 
ATOM      8  C   UNL     1       2.566   2.582  -0.355  0.00  0.00    +0.000 C 
ATOM      9  C   UNL     1       5.475   2.363  -0.372  0.00  0.00    +0.000 C 
ATOM     10  C   UNL     1       5.009  -2.678   0.381  0.00  0.00    +0.000 C 
ENDROOT
BRANCH   5  11
ATOM     11  C   UNL     1       6.770  -0.308  -0.044  0.00  0.00    +0.000 C 
BRANCH  11  12
ATOM     12  C   UNL     1       7.443   0.198   1.224  0.00  0.00    +0.000 C 
ATOM     13  O   UNL     1       6.839   0.399   2.276  0.00  0.00    +0.000 OA
BRANCH  12  14
ATOM     14  C   UNL     1       8.919   0.440   1.192  0.00  0.00    +0.000 A 
ATOM     15  C   UNL     1       9.501   1.141   2.258  0.00  0.00    +0.000 A 
ATOM     16  C   UNL     1      10.874   1.393   2.275  0.00  0.00    +0.000 A 
ATOM     17  C   UNL     1      11.676   0.944   1.228  0.00  0.00    +0.000 A 
ATOM     18  C   UNL     1      11.108   0.241   0.167  0.00  0.00    +0.000 A 
ATOM     19  C   UNL     1       9.734  -0.014   0.147  0.00  0.00    +0.000 A 
ENDBRANCH  12  14
ENDBRANCH  11  12
ENDBRANCH   5  11
TORSDOF 3
