REMARK  Name = *****
REMARK  2 active torsions:
REMARK  status: ('A' for Active; 'I' for Inactive)
REMARK    1  A    between atoms: C_4  and  C_6
REMARK    2  A    between atoms: C_7  and  C_8
REMARK                            x       y       z     vdW  Elec       q    Type
REMARK                         _______ _______ _______ _____ _____    ______ ____
ROOT
ATOM      1  C   UNL     1      -0.743  -4.925  -0.083  0.00  0.00    +0.000 A 
ATOM      2  C   UNL     1       0.034  -5.960  -0.627  0.00  0.00    +0.000 A 
ATOM      3  C   UNL     1      -0.438  -7.270  -0.683  0.00  0.00    +0.000 A 
ATOM      4  C   UNL     1      -1.695  -7.576  -0.186  0.00  0.00    +0.000 A 
ATOM      5  C   UNL     1      -2.476  -6.577   0.372  0.00  0.00    +0.000 A 
ATOM      6  C   UNL     1      -2.004  -5.266   0.429  0.00  0.00    +0.000 A 
ATOM      7  F   UNL     1      -2.784  -4.335   1.000  0.00  0.00    +0.000 F 
ATOM      8  F   UNL     1      -3.687  -6.871   0.864  0.00  0.00    +0.000 F 
ATOM      9  F   UNL     1      -2.151  -8.835  -0.239  0.00  0.00    +0.000 F 
ATOM     10  F   UNL     1       0.325  -8.234  -1.216  0.00  0.00    +0.000 F 
ATOM     11  F   UNL     1       1.257  -5.696  -1.112  0.00  0.00    +0.000 F 
ENDROOT
BRANCH   1  13
ATOM     12  C   UNL     1      -0.886  -2.426  -0.042  0.00  0.00    +0.000 C 
ATOM     13  C   UNL     1      -0.175  -3.565  -0.028  0.00  0.00    +0.000 C 
BRANCH  12  17
ATOM     14  C   UNL     1       0.231   1.061   0.051  0.00  0.00    +0.000 A 
ATOM     15  C   UNL     1       1.396   0.339   0.089  0.00  0.00    +0.000 A 
ATOM     16  O   UNL     1       1.130  -0.988   0.060  0.00  0.00    +0.000 OA
ATOM     17  C   UNL     1      -0.237  -1.160   0.002  0.00  0.00    +0.000 A 
ATOM     18  C   UNL     1      -0.812   0.107  -0.004  0.00  0.00    +0.000 A 
ENDBRANCH  12  17
ENDBRANCH   1  13
TORSDOF 2
