REMARK  Name = *****
REMARK  6 active torsions:
REMARK  status: ('A' for Active; 'I' for Inactive)
REMARK    1  A    between atoms: C_1  and  C_2
REMARK    2  A    between atoms: C_2  and  N_3
REMARK    3  A    between atoms: N_3  and  C_4
REMARK    4  A    between atoms: N_3  and  C_10
REMARK    5  A    between atoms: C_4  and  C_5
REMARK    6  A    between atoms: C_14  and  C_16
REMARK                            x       y       z     vdW  Elec       q    Type
REMARK                         _______ _______ _______ _____ _____    ______ ____
ROOT
ATOM      1  N   UNL     1       3.290   0.968  -1.155  0.00  0.00    +0.000 N 
ENDROOT
BRANCH   1   2
ATOM      2  C   UNL     1       4.664   1.058  -1.374  0.00  0.00    +0.000 A 
ATOM      3  C   UNL     1       5.602   0.427  -0.538  0.00  0.00    +0.000 A 
ATOM      4  C   UNL     1       6.984   0.523  -0.750  0.00  0.00    +0.000 A 
ATOM      5  C   UNL     1       7.480   1.261  -1.817  0.00  0.00    +0.000 A 
ATOM      6  C   UNL     1       6.593   1.898  -2.681  0.00  0.00    +0.000 A 
ATOM      7  C   UNL     1       5.208   1.796  -2.444  0.00  0.00    +0.000 A 
ATOM      8  C   UNL     1       7.099   2.734  -3.819  0.00  0.00    +0.000 C 
ENDBRANCH   1   2
BRANCH   1  10
ATOM      9  C   UNL     1       2.637   0.905   1.227  0.00  0.00    +0.000 C 
ATOM     10  C   UNL     1       2.723   0.138  -0.085  0.00  0.00    +0.000 C 
ENDBRANCH   1  10
BRANCH   1  11
ATOM     11  C   UNL     1       2.321   1.695  -1.998  0.00  0.00    +0.000 C 
BRANCH  11  12
ATOM     12  C   UNL     1       2.201   3.184  -1.778  0.00  0.00    +0.000 A 
ATOM     13  C   UNL     1       2.831   3.996  -0.853  0.00  0.00    +0.000 A 
ATOM     14  C   UNL     1       2.450   5.363  -0.973  0.00  0.00    +0.000 A 
ATOM     15  C   UNL     1       1.538   5.555  -1.985  0.00  0.00    +0.000 A 
ATOM     16  S   UNL     1       1.147   4.096  -2.784  0.00  0.00    +0.000 S 
ENDBRANCH  11  12
ENDBRANCH   1  11
TORSDOF 4
