REMARK  Name = *****
REMARK  3 active torsions:
REMARK  status: ('A' for Active; 'I' for Inactive)
REMARK    1  A    between atoms: C_4  and  N_7
REMARK    2  A    between atoms: N_7  and  C_8
REMARK    3  A    between atoms: C_8  and  C_10
REMARK                            x       y       z     vdW  Elec       q    Type
REMARK                         _______ _______ _______ _____ _____    ______ ____
ROOT
ATOM      1  C   UNL     1      -3.796  -1.020  -0.141  0.00  0.00    +0.000 C 
ATOM      2  S   UNL     1      -3.646  -2.628  -0.592  0.00  0.00    +0.000 S 
ENDROOT
BRANCH   1   3
ATOM      3  C   UNL     1      -5.157  -0.463   0.129  0.00  0.00    +0.000 A 
ATOM      4  C   UNL     1      -5.439   0.050   1.399  0.00  0.00    +0.000 A 
ATOM      5  C   UNL     1      -6.695   0.590   1.644  0.00  0.00    +0.000 A 
ATOM      6  C   UNL     1      -7.669   0.631   0.651  0.00  0.00    +0.000 A 
ATOM      7  C   UNL     1      -7.386   0.121  -0.617  0.00  0.00    +0.000 A 
ATOM      8  C   UNL     1      -6.128  -0.425  -0.882  0.00  0.00    +0.000 A 
ATOM      9  F   UNL     1      -6.972   1.085   2.857  0.00  0.00    +0.000 F 
ENDBRANCH   1   3
BRANCH   1  10
ATOM     10  N   UNL     1      -2.814  -0.047   0.002  0.00  0.00    +0.000 N 
ATOM     11  H   UNL     1      -3.174   0.855   0.162  0.00  0.00    +0.000 HD
BRANCH  10  15
ATOM     12  C   UNL     1       1.415   0.065  -0.072  0.00  0.00    +0.000 A 
ATOM     13  C   UNL     1       0.777  -1.171  -0.066  0.00  0.00    +0.000 A 
ATOM     14  C   UNL     1      -0.621  -1.249  -0.043  0.00  0.00    +0.000 A 
ATOM     15  C   UNL     1      -1.400  -0.093  -0.036  0.00  0.00    +0.000 A 
ATOM     16  C   UNL     1      -0.741   1.148  -0.027  0.00  0.00    +0.000 A 
ATOM     17  C   UNL     1       0.655   1.228  -0.050  0.00  0.00    +0.000 A 
ENDBRANCH  10  15
ENDBRANCH   1  10
TORSDOF 3
