REMARK  Name = *****
REMARK  3 active torsions:
REMARK  status: ('A' for Active; 'I' for Inactive)
REMARK    1  A    between atoms: C_6  and  C_7
REMARK    2  A    between atoms: N_9  and  C_10
REMARK    3  A    between atoms: N_9  and  N_17
REMARK                            x       y       z     vdW  Elec       q    Type
REMARK                         _______ _______ _______ _____ _____    ______ ____
ROOT
ATOM      1  C   UNL     1       3.869   0.123  -0.072  0.00  0.00    +0.000 C 
ATOM      2  O   UNL     1       4.432  -0.927   0.254  0.00  0.00    +0.000 OA
ATOM      3  N   UNL     1       4.539   1.362  -0.062  0.00  0.00    +0.000 N 
ENDROOT
BRANCH   1   9
ATOM      4  C   UNL     1       2.098   0.692  -1.766  0.00  0.00    +0.000 A 
ATOM      5  C   UNL     1       0.796   0.549  -2.251  0.00  0.00    +0.000 A 
ATOM      6  C   UNL     1      -0.107  -0.279  -1.584  0.00  0.00    +0.000 A 
ATOM      7  C   UNL     1       0.282  -0.975  -0.440  0.00  0.00    +0.000 A 
ATOM      8  C   UNL     1       1.583  -0.834   0.049  0.00  0.00    +0.000 A 
ATOM      9  C   UNL     1       2.486   0.019  -0.599  0.00  0.00    +0.000 A 
ATOM     10 CL   UNL     1      -1.710  -0.452  -2.185  0.00  0.00    +0.000 Cl
ENDBRANCH   1   9
BRANCH   3  11
ATOM     11  C   UNL     1       3.968   2.669   0.035  0.00  0.00    +0.000 A 
ATOM     12  C   UNL     1       2.693   2.892   0.576  0.00  0.00    +0.000 A 
ATOM     13  C   UNL     1       2.165   4.186   0.666  0.00  0.00    +0.000 A 
ATOM     14  C   UNL     1       2.913   5.275   0.229  0.00  0.00    +0.000 A 
ATOM     15  C   UNL     1       4.189   5.082  -0.287  0.00  0.00    +0.000 A 
ATOM     16  C   UNL     1       4.714   3.788  -0.374  0.00  0.00    +0.000 A 
ATOM     17 CL   UNL     1       2.262   6.862   0.340  0.00  0.00    +0.000 Cl
ENDBRANCH   3  11
BRANCH   3  18
ATOM     18  N   UNL     1       5.965   1.286   0.038  0.00  0.00    +0.000 NA
ATOM     19  H   UNL     1       6.260   0.313  -0.045  0.00  0.00    +0.000 HD
ATOM     20  H   UNL     1       6.263   1.656   0.940  0.00  0.00    +0.000 HD
ENDBRANCH   3  18
TORSDOF 3
