REMARK  Name = *****
REMARK  4 active torsions:
REMARK  status: ('A' for Active; 'I' for Inactive)
REMARK    1  A    between atoms: C_4  and  O_7
REMARK    2  A    between atoms: O_7  and  C_8
REMARK    3  A    between atoms: C_8  and  C_10
REMARK    4  A    between atoms: C_15  and  C_16
REMARK                            x       y       z     vdW  Elec       q    Type
REMARK                         _______ _______ _______ _____ _____    ______ ____
ROOT
ATOM      1  C   UNL     1      -5.057  -0.569  -0.665  0.00  0.00    +0.000 A 
ATOM      2  C   UNL     1      -5.511   0.146  -1.787  0.00  0.00    +0.000 A 
ATOM      3  C   UNL     1      -6.859   0.483  -1.910  0.00  0.00    +0.000 A 
ATOM      4  C   UNL     1      -7.762   0.103  -0.922  0.00  0.00    +0.000 A 
ATOM      5  C   UNL     1      -7.319  -0.611   0.193  0.00  0.00    +0.000 A 
ATOM      6  C   UNL     1      -5.960  -0.953   0.343  0.00  0.00    +0.000 A 
ENDROOT
BRANCH   6   7
ATOM      7  C   UNL     1      -5.515  -1.706   1.574  0.00  0.00    +0.000 C 
ATOM      8  F   UNL     1      -4.396  -1.185   2.146  0.00  0.00    +0.000 F 
ATOM      9  F   UNL     1      -6.457  -1.679   2.564  0.00  0.00    +0.000 F 
ATOM     10  F   UNL     1      -5.281  -3.024   1.344  0.00  0.00    +0.000 F 
ENDBRANCH   6   7
BRANCH   1  11
ATOM     11  C   UNL     1      -3.625  -0.950  -0.588  0.00  0.00    +0.000 C 
ATOM     12  O   UNL     1      -3.244  -2.034  -0.184  0.00  0.00    +0.000 OA
BRANCH  11  13
ATOM     13  O   UNL     1      -2.866   0.126  -1.009  0.00  0.00    +0.000 OA
BRANCH  13  17
ATOM     14  C   UNL     1       1.298  -0.207  -1.070  0.00  0.00    +0.000 A 
ATOM     15  C   UNL     1       0.530  -1.167  -1.734  0.00  0.00    +0.000 A 
ATOM     16  C   UNL     1      -0.862  -1.083  -1.716  0.00  0.00    +0.000 A 
ATOM     17  C   UNL     1      -1.474  -0.046  -1.013  0.00  0.00    +0.000 A 
ATOM     18  C   UNL     1      -0.716   0.928  -0.365  0.00  0.00    +0.000 A 
ATOM     19  C   UNL     1       0.676   0.840  -0.388  0.00  0.00    +0.000 A 
ENDBRANCH  13  17
ENDBRANCH  11  13
ENDBRANCH   1  11
TORSDOF 4
