REMARK  Name = *****
REMARK  4 active torsions:
REMARK  status: ('A' for Active; 'I' for Inactive)
REMARK    1  A    between atoms: C_4  and  C_7
REMARK    2  A    between atoms: C_7  and  C_8
REMARK    3  A    between atoms: C_8  and  C_9
REMARK    4  A    between atoms: C_9  and  C_10
REMARK                            x       y       z     vdW  Elec       q    Type
REMARK                         _______ _______ _______ _____ _____    ______ ____
ROOT
ATOM      1  C   UNL     1      -3.588  -0.872  -0.327  0.00  0.00    +0.000 C 
ENDROOT
BRANCH   1   2
ATOM      2  C   UNL     1      -2.836   0.449  -0.160  0.00  0.00    +0.000 C 
BRANCH   2   6
ATOM      3  C   UNL     1       1.385  -0.165   0.484  0.00  0.00    +0.000 A 
ATOM      4  C   UNL     1       0.881  -0.076  -0.812  0.00  0.00    +0.000 A 
ATOM      5  C   UNL     1      -0.484   0.123  -1.020  0.00  0.00    +0.000 A 
ATOM      6  C   UNL     1      -1.358   0.243   0.069  0.00  0.00    +0.000 A 
ATOM      7  C   UNL     1      -0.844   0.141   1.368  0.00  0.00    +0.000 A 
ATOM      8  C   UNL     1       0.522  -0.060   1.574  0.00  0.00    +0.000 A 
ENDBRANCH   2   6
ENDBRANCH   1   2
BRANCH   1   9
ATOM      9  C   UNL     1      -5.087  -0.618  -0.510  0.00  0.00    +0.000 C 
BRANCH   9  10
ATOM     10  C   UNL     1      -5.863  -1.907  -0.723  0.00  0.00    +0.000 C 
ATOM     11  C   UNL     1      -6.354  -2.571   0.425  0.00  0.00    +0.000 C 
ATOM     12  C   UNL     1      -7.064  -3.760   0.316  0.00  0.00    +0.000 C 
ATOM     13  C   UNL     1      -7.283  -4.297  -0.942  0.00  0.00    +0.000 C 
ATOM     14  C   UNL     1      -6.788  -3.640  -2.076  0.00  0.00    +0.000 C 
ATOM     15  C   UNL     1      -6.061  -2.432  -2.030  0.00  0.00    +0.000 C 
ATOM     16  O   UNL     1      -5.630  -1.881  -3.100  0.00  0.00    +0.000 OA
ENDBRANCH   9  10
ENDBRANCH   1   9
TORSDOF 4
