REMARK  Name = *****
REMARK  6 active torsions:
REMARK  status: ('A' for Active; 'I' for Inactive)
REMARK    1  A    between atoms: C_1  and  C_2
REMARK    2  A    between atoms: C_5  and  O_8
REMARK    3  A    between atoms: O_8  and  C_9
REMARK    4  A    between atoms: C_9  and  O_11
REMARK    5  A    between atoms: O_11  and  C_12
REMARK    6  A    between atoms: C_12  and  C_13
REMARK                            x       y       z     vdW  Elec       q    Type
REMARK                         _______ _______ _______ _____ _____    ______ ____
ROOT
ATOM      1  C   UNL     1      -0.473  -0.214   0.593  0.00  0.00    +0.000 C 
ATOM      2  O   UNL     1      -1.192   0.691   0.195  0.00  0.00    +0.000 OA
ENDROOT
BRANCH   1   3
ATOM      3  O   UNL     1       0.870  -0.358   0.382  0.00  0.00    +0.000 OA
BRANCH   3   8
ATOM      4  C   UNL     1       2.285   1.878  -3.793  0.00  0.00    +0.000 C 
ATOM      5  C   UNL     1       1.971   1.961  -2.333  0.00  0.00    +0.000 C 
ATOM      6  C   UNL     1       3.153   1.933  -1.366  0.00  0.00    +0.000 C 
ATOM      7  C   UNL     1       2.733   1.001  -0.257  0.00  0.00    +0.000 C 
ATOM      8  C   UNL     1       1.482   0.561  -0.478  0.00  0.00    +0.000 C 
ATOM      9  C   UNL     1       0.890   1.074  -1.729  0.00  0.00    +0.000 C 
ATOM     10  C   UNL     1       0.646   2.549  -1.895  0.00  0.00    +0.000 C 
ENDBRANCH   3   8
ENDBRANCH   1   3
BRANCH   1  11
ATOM     11  O   UNL     1      -0.881  -1.259   1.361  0.00  0.00    +0.000 OA
BRANCH  11  12
ATOM     12  C   UNL     1      -2.278  -1.287   1.662  0.00  0.00    +0.000 C 
BRANCH  12  13
ATOM     13  C   UNL     1      -3.008  -2.112   0.634  0.00  0.00    +0.000 A 
ATOM     14  C   UNL     1      -2.937  -3.511   0.666  0.00  0.00    +0.000 A 
ATOM     15  C   UNL     1      -3.599  -4.275  -0.297  0.00  0.00    +0.000 A 
ATOM     16  C   UNL     1      -4.330  -3.648  -1.304  0.00  0.00    +0.000 A 
ATOM     17  C   UNL     1      -4.396  -2.257  -1.353  0.00  0.00    +0.000 A 
ATOM     18  C   UNL     1      -3.736  -1.491  -0.391  0.00  0.00    +0.000 A 
ENDBRANCH  12  13
ENDBRANCH  11  12
ENDBRANCH   1  11
TORSDOF 5
