REMARK  Name = *****
REMARK  5 active torsions:
REMARK  status: ('A' for Active; 'I' for Inactive)
REMARK    1  A    between atoms: C_1  and  C_2
REMARK    2  A    between atoms: C_2  and  C_4
REMARK    3  A    between atoms: C_4  and  C_5
REMARK    4  A    between atoms: C_4  and  C_13
REMARK    5  A    between atoms: C_5  and  C_6
REMARK                            x       y       z     vdW  Elec       q    Type
REMARK                         _______ _______ _______ _____ _____    ______ ____
ROOT
ATOM      1  C   UNL     1       3.290   1.169  -0.236  0.00  0.00    +0.000 C 
ENDROOT
BRANCH   1   2
ATOM      2  C   UNL     1       4.791   0.969  -0.378  0.00  0.00    +0.000 A 
ATOM      3  C   UNL     1       5.414   1.199  -1.614  0.00  0.00    +0.000 A 
ATOM      4  C   UNL     1       6.792   1.028  -1.757  0.00  0.00    +0.000 A 
ATOM      5  C   UNL     1       7.563   0.631  -0.667  0.00  0.00    +0.000 A 
ATOM      6  C   UNL     1       6.959   0.407   0.568  0.00  0.00    +0.000 A 
ATOM      7  C   UNL     1       5.582   0.578   0.714  0.00  0.00    +0.000 A 
ENDBRANCH   1   2
BRANCH   1   9
ATOM      8  C   UNL     1       2.289  -1.181  -0.636  0.00  0.00    +0.000 C 
ATOM      9  C   UNL     1       2.626  -0.084   0.343  0.00  0.00    +0.000 C 
ATOM     10  O   UNL     1       2.411  -0.230   1.548  0.00  0.00    +0.000 OA
ENDBRANCH   1   9
BRANCH   1  11
ATOM     11  C   UNL     1       2.978   2.423   0.604  0.00  0.00    +0.000 C 
BRANCH  11  12
ATOM     12  C   UNL     1       1.551   2.907   0.430  0.00  0.00    +0.000 A 
ATOM     13  C   UNL     1       0.592   2.545   1.392  0.00  0.00    +0.000 A 
ATOM     14  C   UNL     1      -0.737   2.952   1.268  0.00  0.00    +0.000 A 
ATOM     15  C   UNL     1      -1.131   3.726   0.180  0.00  0.00    +0.000 A 
ATOM     16  C   UNL     1      -0.194   4.092  -0.785  0.00  0.00    +0.000 A 
ATOM     17  C   UNL     1       1.138   3.685  -0.664  0.00  0.00    +0.000 A 
ATOM     18 CL   UNL     1       2.237   4.167  -1.909  0.00  0.00    +0.000 Cl
ENDBRANCH  11  12
ENDBRANCH   1  11
TORSDOF 4
