REMARK  Name = *****
REMARK  2 active torsions:
REMARK  status: ('A' for Active; 'I' for Inactive)
REMARK    1  A    between atoms: C_4  and  C_7
REMARK    2  A    between atoms: C_7  and  C_8
REMARK                            x       y       z     vdW  Elec       q    Type
REMARK                         _______ _______ _______ _____ _____    ______ ____
ROOT
ATOM      1  C   UNL     1      -3.107   0.542  -0.048  0.00  0.00    +0.000 C 
ATOM      2  F   UNL     1      -3.436   1.386  -1.080  0.00  0.00    +0.000 F 
ATOM      3  F   UNL     1      -3.759  -0.625  -0.362  0.00  0.00    +0.000 F 
ENDROOT
BRANCH   1   4
ATOM      4  C   UNL     1      -3.648   1.090   1.252  0.00  0.00    +0.000 A 
ATOM      5  N   UNL     1      -4.062   0.445   2.336  0.00  0.00    +0.000 NA
ATOM      6  C   UNL     1      -4.480   1.445   3.177  0.00  0.00    +0.000 A 
ATOM      7  C   UNL     1      -5.037   1.397   4.461  0.00  0.00    +0.000 A 
ATOM      8  C   UNL     1      -5.383   2.610   5.078  0.00  0.00    +0.000 A 
ATOM      9  C   UNL     1      -5.176   3.836   4.432  0.00  0.00    +0.000 A 
ATOM     10  C   UNL     1      -4.616   3.899   3.150  0.00  0.00    +0.000 A 
ATOM     11  C   UNL     1      -4.292   2.677   2.574  0.00  0.00    +0.000 A 
ATOM     12  O   UNL     1      -3.750   2.463   1.342  0.00  0.00    +0.000 OA
ENDBRANCH   1   4
BRANCH   1  16
ATOM     13  C   UNL     1       1.174  -0.070   0.127  0.00  0.00    +0.000 A 
ATOM     14  C   UNL     1       0.308  -1.110   0.460  0.00  0.00    +0.000 A 
ATOM     15  C   UNL     1      -1.073  -0.913   0.410  0.00  0.00    +0.000 A 
ATOM     16  C   UNL     1      -1.602   0.328   0.018  0.00  0.00    +0.000 A 
ATOM     17  C   UNL     1      -0.717   1.369  -0.309  0.00  0.00    +0.000 A 
ATOM     18  C   UNL     1       0.663   1.169  -0.256  0.00  0.00    +0.000 A 
ENDBRANCH   1  16
TORSDOF 2
