REMARK  Name = *****
REMARK  6 active torsions:
REMARK  status: ('A' for Active; 'I' for Inactive)
REMARK    1  A    between atoms: C_1  and  C_2
REMARK    2  A    between atoms: C_2  and  C_3
REMARK    3  A    between atoms: C_4  and  C_16
REMARK    4  A    between atoms: C_6  and  C_8
REMARK    5  A    between atoms: C_8  and  C_9
REMARK    6  A    between atoms: C_9  and  C_10
REMARK                            x       y       z     vdW  Elec       q    Type
REMARK                         _______ _______ _______ _____ _____    ______ ____
ROOT
ATOM      1  C   UNL     1       3.029  -1.053  -0.821  0.00  0.00    +0.000 C 
ATOM      2  C   UNL     1       2.596  -2.329  -0.815  0.00  0.00    +0.000 C 
ATOM      3  C   UNL     1       3.093  -3.039  -2.047  0.00  0.00    +0.000 C 
ATOM      4  C   UNL     1       3.867  -1.954  -2.750  0.00  0.00    +0.000 C 
ATOM      5  C   UNL     1       3.810  -0.827  -2.022  0.00  0.00    +0.000 C 
ATOM      6  C   UNL     1       1.765  -3.048   0.184  0.00  0.00    +0.000 C 
ENDROOT
BRANCH   1   8
ATOM      7  C   UNL     1       3.990   0.317   1.042  0.00  0.00    +0.000 C 
ATOM      8  C   UNL     1       2.777   0.044   0.163  0.00  0.00    +0.000 C 
ENDBRANCH   1   8
BRANCH   4   9
ATOM      9  C   UNL     1       4.544  -2.235  -4.055  0.00  0.00    +0.000 C 
BRANCH   9  10
ATOM     10  C   UNL     1       5.312  -1.053  -4.661  0.00  0.00    +0.000 C 
BRANCH  10  11
ATOM     11  C   UNL     1       5.957  -1.423  -5.975  0.00  0.00    +0.000 A 
ATOM     12  C   UNL     1       5.273  -1.227  -7.182  0.00  0.00    +0.000 A 
ATOM     13  C   UNL     1       5.862  -1.586  -8.395  0.00  0.00    +0.000 A 
ATOM     14  C   UNL     1       7.137  -2.149  -8.412  0.00  0.00    +0.000 A 
ATOM     15  C   UNL     1       7.823  -2.355  -7.217  0.00  0.00    +0.000 A 
ATOM     16  C   UNL     1       7.235  -1.996  -6.003  0.00  0.00    +0.000 A 
ENDBRANCH  10  11
ENDBRANCH   9  10
ENDBRANCH   4   9
TORSDOF 4
