REMARK  Name = *****
REMARK  5 active torsions:
REMARK  status: ('A' for Active; 'I' for Inactive)
REMARK    1  A    between atoms: C_1  and  C_2
REMARK    2  A    between atoms: C_5  and  C_8
REMARK    3  A    between atoms: C_8  and  C_9
REMARK    4  A    between atoms: C_8  and  O_17
REMARK    5  A    between atoms: C_9  and  C_10
REMARK                            x       y       z     vdW  Elec       q    Type
REMARK                         _______ _______ _______ _____ _____    ______ ____
ROOT
ATOM      1  C   UNL     1      -3.352   0.350   0.161  0.00  0.00    +0.000 C 
ENDROOT
BRANCH   1   6
ATOM      2  C   UNL     1       2.479   0.088   0.162  0.00  0.00    +0.000 C 
ATOM      3  C   UNL     1       0.980   0.135   0.182  0.00  0.00    +0.000 A 
ATOM      4  C   UNL     1       0.310   0.989   1.065  0.00  0.00    +0.000 A 
ATOM      5  C   UNL     1      -1.085   1.058   1.062  0.00  0.00    +0.000 A 
ATOM      6  C   UNL     1      -1.838   0.282   0.169  0.00  0.00    +0.000 A 
ATOM      7  C   UNL     1      -1.163  -0.560  -0.725  0.00  0.00    +0.000 A 
ATOM      8  C   UNL     1       0.233  -0.628  -0.722  0.00  0.00    +0.000 A 
ENDBRANCH   1   6
BRANCH   1   9
ATOM      9  O   UNL     1      -3.747   1.713  -0.036  0.00  0.00    +0.000 OA
ATOM     10  H   UNL     1      -3.408   2.256   0.693  0.00  0.00    +0.000 HD
ENDBRANCH   1   9
BRANCH   1  11
ATOM     11  C   UNL     1      -3.959  -0.193   1.468  0.00  0.00    +0.000 C 
BRANCH  11  12
ATOM     12  C   UNL     1      -5.416  -0.582   1.319  0.00  0.00    +0.000 A 
ATOM     13  C   UNL     1      -6.409   0.404   1.229  0.00  0.00    +0.000 A 
ATOM     14  C   UNL     1      -7.752   0.047   1.084  0.00  0.00    +0.000 A 
ATOM     15  C   UNL     1      -8.107  -1.298   1.030  0.00  0.00    +0.000 A 
ATOM     16  C   UNL     1      -7.133  -2.289   1.118  0.00  0.00    +0.000 A 
ATOM     17  C   UNL     1      -5.790  -1.933   1.261  0.00  0.00    +0.000 A 
ATOM     18 CL   UNL     1      -9.761  -1.739   0.852  0.00  0.00    +0.000 Cl
ENDBRANCH  11  12
ENDBRANCH   1  11
TORSDOF 4
