REMARK  Name = *****
REMARK  4 active torsions:
REMARK  status: ('A' for Active; 'I' for Inactive)
REMARK    1  A    between atoms: C_5  and  C_8
REMARK    2  A    between atoms: C_8  and  O_10
REMARK    3  A    between atoms: O_10  and  C_11
REMARK    4  A    between atoms: C_11  and  C_12
REMARK                            x       y       z     vdW  Elec       q    Type
REMARK                         _______ _______ _______ _____ _____    ______ ____
ROOT
ATOM      1  C   UNL     1      -1.792  -1.222  -1.561  0.00  0.00    +0.000 C 
ATOM      2  O   UNL     1      -2.264  -0.433  -2.368  0.00  0.00    +0.000 OA
ENDROOT
BRANCH   1   7
ATOM      3  C   UNL     1       1.728   0.297  -0.013  0.00  0.00    +0.000 C 
ATOM      4  C   UNL     1       0.784   1.400   0.453  0.00  0.00    +0.000 C 
ATOM      5  C   UNL     1      -0.513   1.520  -0.341  0.00  0.00    +0.000 C 
ATOM      6  C   UNL     1      -1.620   0.603   0.186  0.00  0.00    +0.000 C 
ATOM      7  C   UNL     1      -1.457  -0.896  -0.106  0.00  0.00    +0.000 C 
ATOM      8  C   UNL     1      -0.106  -1.475   0.347  0.00  0.00    +0.000 C 
ATOM      9  C   UNL     1       1.093  -1.010  -0.477  0.00  0.00    +0.000 C 
ENDBRANCH   1   7
BRANCH   1  10
ATOM     10  O   UNL     1      -1.544  -2.533  -1.824  0.00  0.00    +0.000 OA
BRANCH  10  11
ATOM     11  C   UNL     1      -1.807  -2.922  -3.174  0.00  0.00    +0.000 C 
BRANCH  11  12
ATOM     12  C   UNL     1      -1.185  -4.277  -3.386  0.00  0.00    +0.000 A 
ATOM     13  C   UNL     1      -1.928  -5.447  -3.175  0.00  0.00    +0.000 A 
ATOM     14  C   UNL     1      -1.339  -6.700  -3.351  0.00  0.00    +0.000 A 
ATOM     15  C   UNL     1      -0.001  -6.796  -3.731  0.00  0.00    +0.000 A 
ATOM     16  C   UNL     1       0.750  -5.640  -3.931  0.00  0.00    +0.000 A 
ATOM     17  C   UNL     1       0.163  -4.386  -3.755  0.00  0.00    +0.000 A 
ENDBRANCH  11  12
ENDBRANCH  10  11
ENDBRANCH   1  10
TORSDOF 4
