REMARK  Name = *****
REMARK  5 active torsions:
REMARK  status: ('A' for Active; 'I' for Inactive)
REMARK    1  A    between atoms: C_1  and  C_2
REMARK    2  A    between atoms: C_2  and  C_4
REMARK    3  A    between atoms: C_4  and  C_5
REMARK    4  A    between atoms: C_4  and  C_13
REMARK    5  A    between atoms: C_5  and  C_6
REMARK                            x       y       z     vdW  Elec       q    Type
REMARK                         _______ _______ _______ _____ _____    ______ ____
ROOT
ATOM      1  C   UNL     1       3.048   1.131  -0.523  0.00  0.00    +0.000 C 
ENDROOT
BRANCH   1   2
ATOM      2  C   UNL     1       4.536   0.854  -0.364  0.00  0.00    +0.000 A 
ATOM      3  C   UNL     1       5.408   1.085  -1.438  0.00  0.00    +0.000 A 
ATOM      4  C   UNL     1       6.772   0.847  -1.296  0.00  0.00    +0.000 A 
ATOM      5  C   UNL     1       7.299   0.386  -0.096  0.00  0.00    +0.000 A 
ATOM      6  C   UNL     1       6.447   0.161   0.982  0.00  0.00    +0.000 A 
ATOM      7  C   UNL     1       5.076   0.394   0.851  0.00  0.00    +0.000 A 
ATOM      8  F   UNL     1       7.590   1.071  -2.333  0.00  0.00    +0.000 F 
ENDBRANCH   1   2
BRANCH   1  10
ATOM      9  C   UNL     1       2.430  -1.393  -0.519  0.00  0.00    +0.000 C 
ATOM     10  C   UNL     1       2.152   0.001  -0.002  0.00  0.00    +0.000 C 
ATOM     11  O   UNL     1       1.192   0.196   0.745  0.00  0.00    +0.000 OA
ENDBRANCH   1  10
BRANCH   1  12
ATOM     12  C   UNL     1       2.621   2.539  -0.043  0.00  0.00    +0.000 C 
BRANCH  12  13
ATOM     13  C   UNL     1       3.017   2.948   1.360  0.00  0.00    +0.000 A 
ATOM     14  C   UNL     1       4.221   3.634   1.584  0.00  0.00    +0.000 A 
ATOM     15  C   UNL     1       4.599   4.005   2.876  0.00  0.00    +0.000 A 
ATOM     16  C   UNL     1       3.772   3.698   3.953  0.00  0.00    +0.000 A 
ATOM     17  C   UNL     1       2.570   3.026   3.748  0.00  0.00    +0.000 A 
ATOM     18  C   UNL     1       2.194   2.655   2.455  0.00  0.00    +0.000 A 
ATOM     19 CL   UNL     1       4.239   4.151   5.546  0.00  0.00    +0.000 Cl
ENDBRANCH  12  13
ENDBRANCH   1  12
TORSDOF 4
