REMARK  Name = *****
REMARK  3 active torsions:
REMARK  status: ('A' for Active; 'I' for Inactive)
REMARK    1  A    between atoms: C_1  and  C_2
REMARK    2  A    between atoms: C_2  and  C_13
REMARK    3  A    between atoms: N_3  and  C_4
REMARK                            x       y       z     vdW  Elec       q    Type
REMARK                         _______ _______ _______ _____ _____    ______ ____
ROOT
ATOM      1  C   UNL     1       1.160   0.940   0.171  0.00  0.00    +0.000 C 
ATOM      2  C   UNL     1       2.453   0.151   0.069  0.00  0.00    +0.000 C 
ATOM      3  N   UNL     1       2.949  -0.560   1.043  0.00  0.00    +0.000 NA
ENDROOT
BRANCH   3   4
ATOM      4  C   UNL     1       2.286  -0.652   2.269  0.00  0.00    +0.000 A 
ATOM      5  C   UNL     1       1.268  -1.592   2.457  0.00  0.00    +0.000 A 
ATOM      6  C   UNL     1       0.641  -1.695   3.695  0.00  0.00    +0.000 A 
ATOM      7  C   UNL     1       1.025  -0.884   4.753  0.00  0.00    +0.000 A 
ATOM      8  C   UNL     1       2.051   0.034   4.572  0.00  0.00    +0.000 A 
ATOM      9  C   UNL     1       2.688   0.151   3.340  0.00  0.00    +0.000 A 
ATOM     10  F   UNL     1       2.438   0.819   5.586  0.00  0.00    +0.000 F 
ATOM     11  F   UNL     1       0.414  -0.988   5.941  0.00  0.00    +0.000 F 
ATOM     12  F   UNL     1      -0.343  -2.591   3.857  0.00  0.00    +0.000 F 
ENDBRANCH   3   4
BRANCH   2  13
ATOM     13  C   UNL     1       3.192   0.183  -1.231  0.00  0.00    +0.000 A 
ATOM     14  C   UNL     1       2.525   0.379  -2.446  0.00  0.00    +0.000 A 
ATOM     15  C   UNL     1       3.245   0.399  -3.644  0.00  0.00    +0.000 A 
ATOM     16  C   UNL     1       4.628   0.217  -3.634  0.00  0.00    +0.000 A 
ATOM     17  C   UNL     1       5.294   0.008  -2.428  0.00  0.00    +0.000 A 
ATOM     18  C   UNL     1       4.579  -0.014  -1.230  0.00  0.00    +0.000 A 
ENDBRANCH   2  13
TORSDOF 2
