REMARK  Name = *****
REMARK  3 active torsions:
REMARK  status: ('A' for Active; 'I' for Inactive)
REMARK    1  A    between atoms: C_1  and  C_2
REMARK    2  A    between atoms: C_7  and  C_8
REMARK    3  A    between atoms: C_9  and  C_10
REMARK                            x       y       z     vdW  Elec       q    Type
REMARK                         _______ _______ _______ _____ _____    ______ ____
ROOT
ATOM      1  C   UNL     1       1.013  -0.068  -0.016  0.00  0.00    +0.000 C 
ATOM      2  C   UNL     1       2.514  -0.101  -0.099  0.00  0.00    +0.000 A 
ATOM      3  C   UNL     1       3.235   1.103  -0.067  0.00  0.00    +0.000 A 
ATOM      4  C   UNL     1       4.629   1.103  -0.142  0.00  0.00    +0.000 A 
ATOM      5  C   UNL     1       5.321  -0.101  -0.249  0.00  0.00    +0.000 A 
ATOM      6  C   UNL     1       4.619  -1.305  -0.283  0.00  0.00    +0.000 A 
ATOM      7  C   UNL     1       3.220  -1.312  -0.208  0.00  0.00    +0.000 A 
ENDROOT
BRANCH   7   8
ATOM      8  C   UNL     1       2.540  -2.573  -0.248  0.00  0.00    +0.000 C 
ATOM      9  C   UNL     1       1.967  -3.629  -0.283  0.00  0.00    +0.000 C 
BRANCH   9  10
ATOM     10  C   UNL     1       1.278  -4.880  -0.327  0.00  0.00    +0.000 A 
ATOM     11  C   UNL     1       1.922  -6.094  -0.239  0.00  0.00    +0.000 A 
ATOM     12  S   UNL     1       0.827  -7.409  -0.322  0.00  0.00    +0.000 S 
ATOM     13  C   UNL     1      -0.512  -6.354  -0.476  0.00  0.00    +0.000 A 
ATOM     14  C   UNL     1      -0.131  -5.029  -0.464  0.00  0.00    +0.000 A 
ENDBRANCH   9  10
ENDBRANCH   7   8
TORSDOF 2
