REMARK  Name = *****
REMARK  5 active torsions:
REMARK  status: ('A' for Active; 'I' for Inactive)
REMARK    1  A    between atoms: C_1  and  C_2
REMARK    2  A    between atoms: C_2  and  C_16
REMARK    3  A    between atoms: C_6  and  C_8
REMARK    4  A    between atoms: C_8  and  C_9
REMARK    5  A    between atoms: C_9  and  C_10
REMARK                            x       y       z     vdW  Elec       q    Type
REMARK                         _______ _______ _______ _____ _____    ______ ____
ROOT
ATOM      1  C   UNL     1       1.208   0.431   0.476  0.00  0.00    +0.000 C 
ATOM      2  C   UNL     1       2.697   0.162   0.215  0.00  0.00    +0.000 C 
ATOM      3  C   UNL     1       3.292   1.142  -0.813  0.00  0.00    +0.000 C 
ATOM      4  C   UNL     1       2.782   1.015  -2.240  0.00  0.00    +0.000 C 
ATOM      5  S   UNL     1       3.336  -0.520  -3.020  0.00  0.00    +0.000 S 
ATOM      6  C   UNL     1       2.490  -1.735  -1.970  0.00  0.00    +0.000 C 
ATOM      7  S   UNL     1       2.978  -1.607  -0.217  0.00  0.00    +0.000 S 
ATOM      8  C   UNL     1       3.442   0.371   1.553  0.00  0.00    +0.000 C 
ENDROOT
BRANCH   6   9
ATOM      9  C   UNL     1       0.973  -1.818  -2.189  0.00  0.00    +0.000 C 
BRANCH   9  10
ATOM     10  C   UNL     1       0.610  -2.414  -3.558  0.00  0.00    +0.000 C 
BRANCH  10  11
ATOM     11  C   UNL     1      -0.885  -2.527  -3.728  0.00  0.00    +0.000 A 
ATOM     12  C   UNL     1      -1.619  -1.465  -4.274  0.00  0.00    +0.000 A 
ATOM     13  C   UNL     1      -3.004  -1.561  -4.412  0.00  0.00    +0.000 A 
ATOM     14  C   UNL     1      -3.669  -2.715  -4.002  0.00  0.00    +0.000 A 
ATOM     15  C   UNL     1      -2.949  -3.774  -3.451  0.00  0.00    +0.000 A 
ATOM     16  C   UNL     1      -1.563  -3.680  -3.312  0.00  0.00    +0.000 A 
ENDBRANCH  10  11
ENDBRANCH   9  10
ENDBRANCH   6   9
TORSDOF 3
