REMARK  Name = *****
REMARK  2 active torsions:
REMARK  status: ('A' for Active; 'I' for Inactive)
REMARK    1  A    between atoms: C_4  and  O_7
REMARK    2  A    between atoms: O_7  and  C_8
REMARK                            x       y       z     vdW  Elec       q    Type
REMARK                         _______ _______ _______ _____ _____    ______ ____
ROOT
ATOM      1  C   UNL     1      -3.914   0.861  -0.794  0.00  0.00    +0.000 A 
ATOM      2  N   UNL     1      -3.377   1.489  -1.869  0.00  0.00    +0.000 NA
ATOM      3  C   UNL     1      -4.198   1.707  -2.913  0.00  0.00    +0.000 A 
ATOM      4  C   UNL     1      -5.528   1.321  -2.943  0.00  0.00    +0.000 A 
ATOM      5  C   UNL     1      -6.067   0.660  -1.833  0.00  0.00    +0.000 A 
ATOM      6  C   UNL     1      -7.409   0.244  -1.811  0.00  0.00    +0.000 A 
ATOM      7  C   UNL     1      -7.935  -0.416  -0.700  0.00  0.00    +0.000 A 
ATOM      8  C   UNL     1      -7.129  -0.672   0.405  0.00  0.00    +0.000 A 
ATOM      9  C   UNL     1      -5.794  -0.265   0.399  0.00  0.00    +0.000 A 
ATOM     10  C   UNL     1      -5.244   0.407  -0.716  0.00  0.00    +0.000 A 
ENDROOT
BRANCH   1  11
ATOM     11  O   UNL     1      -3.076   0.585   0.281  0.00  0.00    +0.000 OA
BRANCH  11  15
ATOM     12  C   UNL     1      -0.392   3.471   1.621  0.00  0.00    +0.000 A 
ATOM     13  C   UNL     1      -1.699   3.853   1.315  0.00  0.00    +0.000 A 
ATOM     14  C   UNL     1      -2.613   2.908   0.847  0.00  0.00    +0.000 A 
ATOM     15  C   UNL     1      -2.211   1.581   0.671  0.00  0.00    +0.000 A 
ATOM     16  C   UNL     1      -0.910   1.195   0.996  0.00  0.00    +0.000 A 
ATOM     17  C   UNL     1       0.002   2.142   1.464  0.00  0.00    +0.000 A 
ENDBRANCH  11  15
ENDBRANCH   1  11
TORSDOF 2
