REMARK  Name = *****
REMARK  4 active torsions:
REMARK  status: ('A' for Active; 'I' for Inactive)
REMARK    1  A    between atoms: C_4  and  C_7
REMARK    2  A    between atoms: C_7  and  C_8
REMARK    3  A    between atoms: C_8  and  C_9
REMARK    4  A    between atoms: C_9  and  C_11
REMARK                            x       y       z     vdW  Elec       q    Type
REMARK                         _______ _______ _______ _____ _____    ______ ____
ROOT
ATOM      1  C   UNL     1      -3.036   1.367  -1.435  0.00  0.00    +0.000 C 
ATOM      2 CL   UNL     1      -2.120   2.901  -1.241  0.00  0.00    +0.000 Cl
ENDROOT
BRANCH   1   3
ATOM      3  C   UNL     1      -4.522   1.553  -1.797  0.00  0.00    +0.000 C 
ATOM      4 CL   UNL     1      -4.705   2.368  -3.394  0.00  0.00    +0.000 Cl
BRANCH   3   8
ATOM      5  C   UNL     1      -7.106   3.351   1.182  0.00  0.00    +0.000 A 
ATOM      6  C   UNL     1      -6.197   4.146   0.490  0.00  0.00    +0.000 A 
ATOM      7  C   UNL     1      -5.363   3.580  -0.477  0.00  0.00    +0.000 A 
ATOM      8  C   UNL     1      -5.420   2.207  -0.763  0.00  0.00    +0.000 A 
ATOM      9  C   UNL     1      -6.345   1.420  -0.054  0.00  0.00    +0.000 A 
ATOM     10  C   UNL     1      -7.182   1.988   0.909  0.00  0.00    +0.000 A 
ENDBRANCH   3   8
ENDBRANCH   1   3
BRANCH   1  11
ATOM     11  C   UNL     1      -2.878   0.526  -0.174  0.00  0.00    +0.000 C 
ATOM     12  O   UNL     1      -2.718   1.021   0.942  0.00  0.00    +0.000 OA
BRANCH  11  13
ATOM     13  C   UNL     1      -2.943  -0.971  -0.271  0.00  0.00    +0.000 A 
ATOM     14  C   UNL     1      -2.816  -1.709   0.917  0.00  0.00    +0.000 A 
ATOM     15  C   UNL     1      -2.865  -3.104   0.900  0.00  0.00    +0.000 A 
ATOM     16  C   UNL     1      -3.045  -3.778  -0.304  0.00  0.00    +0.000 A 
ATOM     17  C   UNL     1      -3.173  -3.059  -1.490  0.00  0.00    +0.000 A 
ATOM     18  C   UNL     1      -3.121  -1.661  -1.478  0.00  0.00    +0.000 A 
ENDBRANCH  11  13
ENDBRANCH   1  11
TORSDOF 4
