REMARK  Name = *****
REMARK  4 active torsions:
REMARK  status: ('A' for Active; 'I' for Inactive)
REMARK    1  A    between atoms: C_1  and  C_2
REMARK    2  A    between atoms: C_7  and  C_8
REMARK    3  A    between atoms: C_8  and  C_9
REMARK    4  A    between atoms: C_9  and  C_11
REMARK                            x       y       z     vdW  Elec       q    Type
REMARK                         _______ _______ _______ _____ _____    ______ ____
ROOT
ATOM      1  C   UNL     1       2.921  -3.040   0.749  0.00  0.00    +0.000 C 
ATOM      2  O   UNL     1       3.861  -2.426   1.240  0.00  0.00    +0.000 OA
ENDROOT
BRANCH   1   3
ATOM      3  C   UNL     1       2.877  -4.521   0.831  0.00  0.00    +0.000 C 
ATOM      4  C   UNL     1       4.080  -5.408   0.607  0.00  0.00    +0.000 C 
ATOM      5  C   UNL     1       2.934  -5.452  -0.365  0.00  0.00    +0.000 C 
ATOM      6  C   UNL     1       3.606  -5.214  -1.717  0.00  0.00    +0.000 C 
ATOM      7  C   UNL     1       4.406  -6.499  -2.054  0.00  0.00    +0.000 C 
ATOM      8  C   UNL     1       5.587  -6.436  -1.049  0.00  0.00    +0.000 C 
ATOM      9  C   UNL     1       5.296  -5.128  -0.273  0.00  0.00    +0.000 C 
ATOM     10  C   UNL     1       4.764  -4.258  -1.417  0.00  0.00    +0.000 C 
ENDBRANCH   1   3
BRANCH   1  11
ATOM     11  C   UNL     1       1.730  -2.398   0.068  0.00  0.00    +0.000 C 
BRANCH  11  18
ATOM     12  C   UNL     1       0.325  -2.556   2.746  0.00  0.00    +0.000 C 
ATOM     13  C   UNL     1       0.535  -1.251   2.027  0.00  0.00    +0.000 A 
ATOM     14  C   UNL     1       0.090  -0.069   2.643  0.00  0.00    +0.000 A 
ATOM     15  C   UNL     1       0.282   1.172   2.036  0.00  0.00    +0.000 A 
ATOM     16  C   UNL     1       0.929   1.250   0.809  0.00  0.00    +0.000 A 
ATOM     17  C   UNL     1       1.389   0.088   0.190  0.00  0.00    +0.000 A 
ATOM     18  C   UNL     1       1.203  -1.173   0.786  0.00  0.00    +0.000 A 
ENDBRANCH  11  18
ENDBRANCH   1  11
TORSDOF 3
