REMARK  Name = *****
REMARK  5 active torsions:
REMARK  status: ('A' for Active; 'I' for Inactive)
REMARK    1  A    between atoms: C_1  and  C_2
REMARK    2  A    between atoms: C_4  and  O_8
REMARK    3  A    between atoms: O_8  and  C_9
REMARK    4  A    between atoms: C_9  and  C_11
REMARK    5  A    between atoms: C_11  and  C_12
REMARK                            x       y       z     vdW  Elec       q    Type
REMARK                         _______ _______ _______ _____ _____    ______ ____
ROOT
ATOM      1  C   UNL     1      -1.808   4.404   0.881  0.00  0.00    +0.000 C 
ATOM      2  O   UNL     1      -1.026   4.109   1.777  0.00  0.00    +0.000 OA
ENDROOT
BRANCH   1   3
ATOM      3  O   UNL     1      -2.779   3.584   0.314  0.00  0.00    +0.000 OA
BRANCH   3   7
ATOM      4  C   UNL     1      -4.167   0.478   3.890  0.00  0.00    +0.000 C 
ATOM      5  C   UNL     1      -3.491   0.755   2.580  0.00  0.00    +0.000 A 
ATOM      6  C   UNL     1      -3.428   2.060   2.077  0.00  0.00    +0.000 A 
ATOM      7  C   UNL     1      -2.808   2.295   0.849  0.00  0.00    +0.000 A 
ATOM      8  C   UNL     1      -2.289   1.253   0.087  0.00  0.00    +0.000 A 
ATOM      9  C   UNL     1      -2.365  -0.049   0.577  0.00  0.00    +0.000 A 
ATOM     10  C   UNL     1      -2.966  -0.297   1.815  0.00  0.00    +0.000 A 
ENDBRANCH   3   7
ENDBRANCH   1   3
BRANCH   1  11
ATOM     11  C   UNL     1      -1.843   5.752   0.202  0.00  0.00    +0.000 C 
BRANCH  11  12
ATOM     12  C   UNL     1      -1.107   5.759  -1.114  0.00  0.00    +0.000 A 
ATOM     13  C   UNL     1      -1.812   5.701  -2.326  0.00  0.00    +0.000 A 
ATOM     14  C   UNL     1      -1.124   5.691  -3.540  0.00  0.00    +0.000 A 
ATOM     15  C   UNL     1       0.265   5.735  -3.543  0.00  0.00    +0.000 A 
ATOM     16  C   UNL     1       0.981   5.785  -2.353  0.00  0.00    +0.000 A 
ATOM     17  C   UNL     1       0.296   5.795  -1.138  0.00  0.00    +0.000 A 
ATOM     18  F   UNL     1       0.923   5.725  -4.709  0.00  0.00    +0.000 F 
ENDBRANCH  11  12
ENDBRANCH   1  11
TORSDOF 4
