REMARK  Name = *****
REMARK  3 active torsions:
REMARK  status: ('A' for Active; 'I' for Inactive)
REMARK    1  A    between atoms: C_4  and  C_7
REMARK    2  A    between atoms: C_7  and  N_9
REMARK    3  A    between atoms: N_9  and  C_10
REMARK                            x       y       z     vdW  Elec       q    Type
REMARK                         _______ _______ _______ _____ _____    ______ ____
ROOT
ATOM      1  N   UNL     1      -3.620  -0.130  -0.630  0.00  0.00    +0.000 N 
ATOM      2  H   UNL     1      -3.313  -0.958  -0.195  0.00  0.00    +0.000 HD
ENDROOT
BRANCH   1   3
ATOM      3  C   UNL     1      -4.975  -0.167  -1.034  0.00  0.00    +0.000 A 
ATOM      4  C   UNL     1      -5.583   0.730  -1.912  0.00  0.00    +0.000 A 
ATOM      5  C   UNL     1      -6.935   0.589  -2.262  0.00  0.00    +0.000 A 
ATOM      6  C   UNL     1      -7.691  -0.463  -1.739  0.00  0.00    +0.000 A 
ATOM      7  C   UNL     1      -7.088  -1.377  -0.876  0.00  0.00    +0.000 A 
ATOM      8  C   UNL     1      -5.740  -1.232  -0.534  0.00  0.00    +0.000 A 
ATOM      9 CL   UNL     1      -9.357  -0.698  -2.126  0.00  0.00    +0.000 Cl
ATOM     10 CL   UNL     1      -7.606   1.744  -3.362  0.00  0.00    +0.000 Cl
ENDBRANCH   1   3
BRANCH   1  11
ATOM     11  C   UNL     1      -2.637   0.849  -0.729  0.00  0.00    +0.000 C 
ATOM     12  S   UNL     1      -2.791   2.456  -1.182  0.00  0.00    +0.000 S 
BRANCH  11  16
ATOM     13  C   UNL     1       1.148  -0.724   0.506  0.00  0.00    +0.000 A 
ATOM     14  C   UNL     1       0.569   0.323   1.225  0.00  0.00    +0.000 A 
ATOM     15  C   UNL     1      -0.659   0.851   0.825  0.00  0.00    +0.000 A 
ATOM     16  C   UNL     1      -1.305   0.327  -0.301  0.00  0.00    +0.000 A 
ATOM     17  C   UNL     1      -0.726  -0.727  -1.020  0.00  0.00    +0.000 A 
ATOM     18  C   UNL     1       0.502  -1.249  -0.615  0.00  0.00    +0.000 A 
ENDBRANCH  11  16
ENDBRANCH   1  11
TORSDOF 3
