REMARK  Name = *****
REMARK  3 active torsions:
REMARK  status: ('A' for Active; 'I' for Inactive)
REMARK    1  A    between atoms: C_4  and  C_7
REMARK    2  A    between atoms: C_7  and  C_8
REMARK    3  A    between atoms: C_9  and  C_10
REMARK                            x       y       z     vdW  Elec       q    Type
REMARK                         _______ _______ _______ _____ _____    ______ ____
ROOT
ATOM      1  C   UNL     1      -3.491  -0.978  -0.271  0.00  0.00    +0.000 C 
ATOM      2  C   UNL     1      -4.795  -1.016  -0.588  0.00  0.00    +0.000 C 
ENDROOT
BRANCH   2   3
ATOM      3  C   UNL     1      -5.595  -2.248  -0.617  0.00  0.00    +0.000 A 
ATOM      4  C   UNL     1      -5.461  -3.244   0.359  0.00  0.00    +0.000 A 
ATOM      5  C   UNL     1      -6.261  -4.389   0.319  0.00  0.00    +0.000 A 
ATOM      6  C   UNL     1      -7.209  -4.544  -0.691  0.00  0.00    +0.000 A 
ATOM      7  C   UNL     1      -7.361  -3.552  -1.658  0.00  0.00    +0.000 A 
ATOM      8  C   UNL     1      -6.562  -2.407  -1.617  0.00  0.00    +0.000 A 
ENDBRANCH   2   3
BRANCH   1   9
ATOM      9  C   UNL     1      -2.674   0.283  -0.240  0.00  0.00    +0.000 C 
BRANCH   9  13
ATOM     10  C   UNL     1      -0.893   0.946   3.635  0.00  0.00    +0.000 A 
ATOM     11  C   UNL     1      -0.124   0.430   2.593  0.00  0.00    +0.000 A 
ATOM     12  C   UNL     1      -0.697   0.217   1.338  0.00  0.00    +0.000 A 
ATOM     13  C   UNL     1      -2.046   0.524   1.112  0.00  0.00    +0.000 A 
ATOM     14  C   UNL     1      -2.812   1.036   2.169  0.00  0.00    +0.000 A 
ATOM     15  C   UNL     1      -2.237   1.247   3.423  0.00  0.00    +0.000 A 
ENDBRANCH   9  13
ENDBRANCH   1   9
TORSDOF 3
