REMARK  Name = *****
REMARK  1 active torsions:
REMARK  status: ('A' for Active; 'I' for Inactive)
REMARK    1  A    between atoms: C_10  and  C_11
REMARK                            x       y       z     vdW  Elec       q    Type
REMARK                         _______ _______ _______ _____ _____    ______ ____
ROOT
ATOM      1  C   UNL     1       2.398  -1.062   0.564  0.00  0.00    +0.000 C 
ATOM      2  C   UNL     1       3.918  -1.132   0.757  0.00  0.00    +0.000 C 
ATOM      3  C   UNL     1       4.414  -0.127   1.808  0.00  0.00    +0.000 C 
ATOM      4  C   UNL     1       3.753   1.202   1.651  0.00  0.00    +0.000 C 
ATOM      5  C   UNL     1       2.657   1.400   0.897  0.00  0.00    +0.000 C 
ATOM      6  C   UNL     1       1.931   0.341   0.147  0.00  0.00    +0.000 C 
ATOM      7  C   UNL     1       2.283   2.859   0.899  0.00  0.00    +0.000 C 
ATOM      8  C   UNL     1       3.325   3.517   1.789  0.00  0.00    +0.000 C 
ATOM      9  C   UNL     1       4.269   2.431   2.272  0.00  0.00    +0.000 C 
ATOM     10  C   UNL     1       4.793   3.558   1.406  0.00  0.00    +0.000 C 
ENDROOT
BRANCH  10  11
ATOM     11  C   UNL     1       5.698   4.604   2.013  0.00  0.00    +0.000 A 
ATOM     12  C   UNL     1       6.898   4.248   2.650  0.00  0.00    +0.000 A 
ATOM     13  C   UNL     1       7.747   5.213   3.199  0.00  0.00    +0.000 A 
ATOM     14  C   UNL     1       7.412   6.562   3.116  0.00  0.00    +0.000 A 
ATOM     15  C   UNL     1       6.234   6.943   2.481  0.00  0.00    +0.000 A 
ATOM     16  C   UNL     1       5.390   5.973   1.934  0.00  0.00    +0.000 A 
ENDBRANCH  10  11
TORSDOF 1
