REMARK  Name = *****
REMARK  4 active torsions:
REMARK  status: ('A' for Active; 'I' for Inactive)
REMARK    1  A    between atoms: C_5  and  C_7
REMARK    2  A    between atoms: C_7  and  C_8
REMARK    3  A    between atoms: C_8  and  S_9
REMARK    4  A    between atoms: S_9  and  C_10
REMARK                            x       y       z     vdW  Elec       q    Type
REMARK                         _______ _______ _______ _____ _____    ______ ____
ROOT
ATOM      1  S   UNL     1      -1.397  -5.317  -0.184  0.00  0.00    +0.000 S 
ENDROOT
BRANCH   1   2
ATOM      2  C   UNL     1      -0.065  -6.499   0.009  0.00  0.00    +0.000 A 
ATOM      3  C   UNL     1       0.401  -6.948   1.257  0.00  0.00    +0.000 A 
ATOM      4  C   UNL     1       1.443  -7.880   1.326  0.00  0.00    +0.000 A 
ATOM      5  C   UNL     1       2.024  -8.372   0.156  0.00  0.00    +0.000 A 
ATOM      6  C   UNL     1       1.560  -7.932  -1.081  0.00  0.00    +0.000 A 
ATOM      7  C   UNL     1       0.521  -7.005  -1.160  0.00  0.00    +0.000 A 
ATOM      8 CL   UNL     1       2.276  -8.539  -2.523  0.00  0.00    +0.000 Cl
ATOM      9 CL   UNL     1      -0.263  -6.390   2.753  0.00  0.00    +0.000 Cl
ENDBRANCH   1   2
BRANCH   1  10
ATOM     10  C   UNL     1      -0.421  -3.778  -0.057  0.00  0.00    +0.000 C 
BRANCH  10  11
ATOM     11  C   UNL     1      -1.339  -2.565  -0.160  0.00  0.00    +0.000 C 
BRANCH  11  16
ATOM     12  C   UNL     1       0.243   0.583   1.236  0.00  0.00    +0.000 A 
ATOM     13  C   UNL     1       0.968   0.995   0.125  0.00  0.00    +0.000 A 
ATOM     14  C   UNL     1       0.900   0.224  -1.022  0.00  0.00    +0.000 A 
ATOM     15  N   UNL     1       0.169  -0.908  -1.124  0.00  0.00    +0.000 NA
ATOM     16  C   UNL     1      -0.540  -1.293  -0.035  0.00  0.00    +0.000 A 
ATOM     17  C   UNL     1      -0.523  -0.577   1.159  0.00  0.00    +0.000 A 
ENDBRANCH  11  16
ENDBRANCH  10  11
ENDBRANCH   1  10
TORSDOF 4
