REMARK  Name = *****
REMARK  3 active torsions:
REMARK  status: ('A' for Active; 'I' for Inactive)
REMARK    1  A    between atoms: C_5  and  O_7
REMARK    2  A    between atoms: O_7  and  C_8
REMARK    3  A    between atoms: C_8  and  C_10
REMARK                            x       y       z     vdW  Elec       q    Type
REMARK                         _______ _______ _______ _____ _____    ______ ____
ROOT
ATOM      1  O   UNL     1      -1.842  -1.589   0.732  0.00  0.00    +0.000 OA
ENDROOT
BRANCH   1   6
ATOM      2  C   UNL     1       0.109   1.323  -0.683  0.00  0.00    +0.000 C 
ATOM      3  C   UNL     1       1.467   0.930  -0.110  0.00  0.00    +0.000 C 
ATOM      4  C   UNL     1       1.689  -0.578  -0.182  0.00  0.00    +0.000 C 
ATOM      5  C   UNL     1       0.554  -1.343   0.498  0.00  0.00    +0.000 C 
ATOM      6  C   UNL     1      -0.822  -0.956  -0.070  0.00  0.00    +0.000 C 
ATOM      7  C   UNL     1      -1.023   0.564  -0.001  0.00  0.00    +0.000 C 
ATOM      8 CL   UNL     1       0.838  -3.106   0.307  0.00  0.00    +0.000 Cl
ENDBRANCH   1   6
BRANCH   1   9
ATOM      9  C   UNL     1      -3.023  -1.829   0.110  0.00  0.00    +0.000 C 
ATOM     10  O   UNL     1      -3.303  -1.517  -1.036  0.00  0.00    +0.000 OA
BRANCH   9  11
ATOM     11  C   UNL     1      -3.965  -2.527   1.027  0.00  0.00    +0.000 A 
ATOM     12  C   UNL     1      -5.255  -2.813   0.558  0.00  0.00    +0.000 A 
ATOM     13  C   UNL     1      -6.174  -3.467   1.380  0.00  0.00    +0.000 A 
ATOM     14  C   UNL     1      -5.811  -3.840   2.673  0.00  0.00    +0.000 A 
ATOM     15  C   UNL     1      -4.529  -3.562   3.147  0.00  0.00    +0.000 A 
ATOM     16  C   UNL     1      -3.606  -2.908   2.328  0.00  0.00    +0.000 A 
ENDBRANCH   9  11
ENDBRANCH   1   9
TORSDOF 3
