REMARK  Name = *****
REMARK  3 active torsions:
REMARK  status: ('A' for Active; 'I' for Inactive)
REMARK    1  A    between atoms: C_5  and  C_7
REMARK    2  A    between atoms: C_8  and  C_9
REMARK    3  A    between atoms: C_12  and  C_15
REMARK                            x       y       z     vdW  Elec       q    Type
REMARK                         _______ _______ _______ _____ _____    ______ ____
ROOT
ATOM      1  C   UNL     1      -1.307  -4.978  -0.002  0.00  0.00    +0.000 A 
ATOM      2  C   UNL     1      -2.462  -5.175  -0.767  0.00  0.00    +0.000 A 
ATOM      3  C   UNL     1      -3.111  -6.414  -0.770  0.00  0.00    +0.000 A 
ATOM      4  C   UNL     1      -2.614  -7.482  -0.009  0.00  0.00    +0.000 A 
ATOM      5  C   UNL     1      -1.443  -7.290   0.737  0.00  0.00    +0.000 A 
ATOM      6  C   UNL     1      -0.795  -6.051   0.737  0.00  0.00    +0.000 A 
ENDROOT
BRANCH   4   7
ATOM      7  C   UNL     1      -3.298  -8.827  -0.026  0.00  0.00    +0.000 C 
ATOM      8  F   UNL     1      -4.622  -8.754  -0.340  0.00  0.00    +0.000 F 
ATOM      9  F   UNL     1      -2.746  -9.678  -0.935  0.00  0.00    +0.000 F 
ATOM     10  F   UNL     1      -3.237  -9.471   1.173  0.00  0.00    +0.000 F 
ENDBRANCH   4   7
BRANCH   1  12
ATOM     11  C   UNL     1      -1.177  -2.498   0.037  0.00  0.00    +0.000 C 
ATOM     12  C   UNL     1      -0.580  -3.702   0.004  0.00  0.00    +0.000 C 
BRANCH  11  17
ATOM     13  C   UNL     1      -0.428   1.176   0.127  0.00  0.00    +0.000 A 
ATOM     14  C   UNL     1       0.960   1.138   0.090  0.00  0.00    +0.000 A 
ATOM     15  C   UNL     1       1.576  -0.100   0.037  0.00  0.00    +0.000 A 
ATOM     16  N   UNL     1       0.908  -1.274   0.020  0.00  0.00    +0.000 NA
ATOM     17  C   UNL     1      -0.445  -1.222   0.057  0.00  0.00    +0.000 A 
ATOM     18  C   UNL     1      -1.144  -0.020   0.110  0.00  0.00    +0.000 A 
ENDBRANCH  11  17
ENDBRANCH   1  12
TORSDOF 3
