REMARK  Name = *****
REMARK  4 active torsions:
REMARK  status: ('A' for Active; 'I' for Inactive)
REMARK    1  A    between atoms: C_4  and  C_7
REMARK    2  A    between atoms: C_8  and  C_9
REMARK    3  A    between atoms: C_9  and  C_10
REMARK    4  A    between atoms: C_10  and  C_11
REMARK                            x       y       z     vdW  Elec       q    Type
REMARK                         _______ _______ _______ _____ _____    ______ ____
ROOT
ATOM      1  C   UNL     1       1.400  -0.157   0.170  0.00  0.00    +0.000 A 
ATOM      2  C   UNL     1       0.671  -1.039  -0.624  0.00  0.00    +0.000 A 
ATOM      3  C   UNL     1      -0.711  -0.881  -0.761  0.00  0.00    +0.000 A 
ATOM      4  C   UNL     1      -1.380   0.155  -0.096  0.00  0.00    +0.000 A 
ATOM      5  C   UNL     1      -0.632   1.046   0.686  0.00  0.00    +0.000 A 
ATOM      6  C   UNL     1       0.749   0.888   0.823  0.00  0.00    +0.000 A 
ENDROOT
BRANCH   4   7
ATOM      7  C   UNL     1      -2.826   0.377  -0.238  0.00  0.00    +0.000 C 
ATOM      8  C   UNL     1      -3.736  -0.604  -0.344  0.00  0.00    +0.000 C 
BRANCH   8   9
ATOM      9  C   UNL     1      -5.211  -0.358  -0.483  0.00  0.00    +0.000 C 
BRANCH   9  10
ATOM     10  C   UNL     1      -5.988  -0.952   0.693  0.00  0.00    +0.000 C 
BRANCH  10  11
ATOM     11  C   UNL     1      -7.482  -0.700   0.536  0.00  0.00    +0.000 C 
ATOM     12 CL   UNL     1      -8.378  -1.403   1.903  0.00  0.00    +0.000 Cl
ENDBRANCH  10  11
ENDBRANCH   9  10
ENDBRANCH   8   9
ENDBRANCH   4   7
TORSDOF 4
