REMARK  Name = *****
REMARK  5 active torsions:
REMARK  status: ('A' for Active; 'I' for Inactive)
REMARK    1  A    between atoms: C_1  and  C_2
REMARK    2  A    between atoms: C_3  and  O_16
REMARK    3  A    between atoms: C_4  and  C_8
REMARK    4  A    between atoms: C_9  and  C_10
REMARK    5  A    between atoms: O_16  and  C_17
REMARK                            x       y       z     vdW  Elec       q    Type
REMARK                         _______ _______ _______ _____ _____    ______ ____
ROOT
ATOM      1  C   UNL     1       2.546  -0.243   0.670  0.00  0.00    +0.000 C 
ATOM      2  C   UNL     1       1.089  -0.152   0.315  0.00  0.00    +0.000 A 
ATOM      3  C   UNL     1       0.400   1.074   0.295  0.00  0.00    +0.000 A 
ATOM      4  C   UNL     1      -0.984   1.131   0.031  0.00  0.00    +0.000 A 
ATOM      5  C   UNL     1      -1.642  -0.056  -0.324  0.00  0.00    +0.000 A 
ATOM      6  C   UNL     1      -0.955  -1.270  -0.365  0.00  0.00    +0.000 A 
ATOM      7  C   UNL     1       0.399  -1.319  -0.041  0.00  0.00    +0.000 A 
ENDROOT
BRANCH   4   8
ATOM      8  C   UNL     1      -1.719   2.410   0.073  0.00  0.00    +0.000 C 
ATOM      9  C   UNL     1      -2.971   2.541   0.543  0.00  0.00    +0.000 C 
BRANCH   9  10
ATOM     10  C   UNL     1      -3.687   3.824   0.603  0.00  0.00    +0.000 A 
ATOM     11  C   UNL     1      -3.623   4.762  -0.435  0.00  0.00    +0.000 A 
ATOM     12  C   UNL     1      -4.344   5.957  -0.358  0.00  0.00    +0.000 A 
ATOM     13  C   UNL     1      -5.142   6.220   0.753  0.00  0.00    +0.000 A 
ATOM     14  C   UNL     1      -5.225   5.288   1.785  0.00  0.00    +0.000 A 
ATOM     15  C   UNL     1      -4.506   4.093   1.707  0.00  0.00    +0.000 A 
ENDBRANCH   9  10
ENDBRANCH   4   8
BRANCH   3  16
ATOM     16  O   UNL     1       1.073   2.229   0.625  0.00  0.00    +0.000 OA
ATOM     17  C   UNL     1       1.704   2.785  -0.530  0.00  0.00    +0.000 C 
ENDBRANCH   3  16
TORSDOF 3
