REMARK  Name = *****
REMARK  3 active torsions:
REMARK  status: ('A' for Active; 'I' for Inactive)
REMARK    1  A    between atoms: C_1  and  C_2
REMARK    2  A    between atoms: C_7  and  N_8
REMARK    3  A    between atoms: C_9  and  C_10
REMARK                            x       y       z     vdW  Elec       q    Type
REMARK                         _______ _______ _______ _____ _____    ______ ____
ROOT
ATOM      1  N   UNL     1       1.206  -2.340  -0.261  0.00  0.00    +0.000 NA
ATOM      2  C   UNL     1       1.904  -2.755   0.749  0.00  0.00    +0.000 C 
ENDROOT
BRANCH   1   9
ATOM      3  C   UNL     1       2.418   0.211  -0.946  0.00  0.00    +0.000 C 
ATOM      4  C   UNL     1       1.031   0.101  -0.381  0.00  0.00    +0.000 A 
ATOM      5  C   UNL     1       0.272   1.260  -0.154  0.00  0.00    +0.000 A 
ATOM      6  C   UNL     1      -1.021   1.174   0.364  0.00  0.00    +0.000 A 
ATOM      7  C   UNL     1      -1.570  -0.071   0.661  0.00  0.00    +0.000 A 
ATOM      8  C   UNL     1      -0.821  -1.228   0.447  0.00  0.00    +0.000 A 
ATOM      9  C   UNL     1       0.484  -1.153  -0.056  0.00  0.00    +0.000 A 
ENDBRANCH   1   9
BRANCH   2  10
ATOM     10  C   UNL     1       2.717  -3.985   0.686  0.00  0.00    +0.000 A 
ATOM     11  C   UNL     1       2.750  -4.763  -0.475  0.00  0.00    +0.000 A 
ATOM     12  C   UNL     1       3.527  -5.921  -0.511  0.00  0.00    +0.000 A 
ATOM     13  C   UNL     1       4.269  -6.299   0.609  0.00  0.00    +0.000 A 
ATOM     14  C   UNL     1       4.236  -5.521   1.767  0.00  0.00    +0.000 A 
ATOM     15  C   UNL     1       3.460  -4.361   1.809  0.00  0.00    +0.000 A 
ENDBRANCH   2  10
TORSDOF 2
