REMARK  Name = *****
REMARK  4 active torsions:
REMARK  status: ('A' for Active; 'I' for Inactive)
REMARK    1  A    between atoms: C_4  and  C_7
REMARK    2  A    between atoms: C_7  and  N_8
REMARK    3  A    between atoms: N_8  and  C_9
REMARK    4  A    between atoms: C_9  and  C_10
REMARK                            x       y       z     vdW  Elec       q    Type
REMARK                         _______ _______ _______ _____ _____    ______ ____
ROOT
ATOM      1  C   UNL     1      -4.712  -1.018  -0.731  0.00  0.00    +0.000 C 
ENDROOT
BRANCH   1   2
ATOM      2  C   UNL     1      -5.571  -2.216  -0.664  0.00  0.00    +0.000 A 
ATOM      3  C   UNL     1      -5.094  -3.404  -0.102  0.00  0.00    +0.000 A 
ATOM      4  C   UNL     1      -5.926  -4.521  -0.054  0.00  0.00    +0.000 A 
ATOM      5  C   UNL     1      -7.223  -4.462  -0.559  0.00  0.00    +0.000 A 
ATOM      6  C   UNL     1      -7.687  -3.272  -1.117  0.00  0.00    +0.000 A 
ATOM      7  C   UNL     1      -6.869  -2.144  -1.173  0.00  0.00    +0.000 A 
ATOM      8 CL   UNL     1      -9.287  -3.192  -1.744  0.00  0.00    +0.000 Cl
ATOM      9 CL   UNL     1      -5.348  -5.987   0.636  0.00  0.00    +0.000 Cl
ENDBRANCH   1   2
BRANCH   1  10
ATOM     10  N   UNL     1      -3.497  -1.037  -0.301  0.00  0.00    +0.000 NA
BRANCH  10  11
ATOM     11  C   UNL     1      -2.800   0.247  -0.456  0.00  0.00    +0.000 C 
BRANCH  11  15
ATOM     12  C   UNL     1       1.451  -0.016   0.267  0.00  0.00    +0.000 A 
ATOM     13  C   UNL     1       0.796  -1.043  -0.410  0.00  0.00    +0.000 A 
ATOM     14  C   UNL     1      -0.580  -0.965  -0.634  0.00  0.00    +0.000 A 
ATOM     15  C   UNL     1      -1.319   0.135  -0.174  0.00  0.00    +0.000 A 
ATOM     16  C   UNL     1      -0.644   1.167   0.494  0.00  0.00    +0.000 A 
ATOM     17  C   UNL     1       0.732   1.089   0.717  0.00  0.00    +0.000 A 
ENDBRANCH  11  15
ENDBRANCH  10  11
ENDBRANCH   1  10
TORSDOF 4
