REMARK  Name = *****
REMARK  7 active torsions:
REMARK  status: ('A' for Active; 'I' for Inactive)
REMARK    1  A    between atoms: C_1  and  C_2
REMARK    2  A    between atoms: C_5  and  C_8
REMARK    3  A    between atoms: C_8  and  C_9
REMARK    4  A    between atoms: C_9  and  C_10
REMARK    5  A    between atoms: C_10  and  C_12
REMARK    6  A    between atoms: C_13  and  C_19
REMARK    7  A    between atoms: C_17  and  C_18
REMARK                            x       y       z     vdW  Elec       q    Type
REMARK                         _______ _______ _______ _____ _____    ______ ____
ROOT
ATOM      1  C   UNL     1      -5.168   1.545  -0.031  0.00  0.00    +0.000 C 
ATOM      2  O   UNL     1      -5.793   0.854   0.768  0.00  0.00    +0.000 OA
ENDROOT
BRANCH   1   3
ATOM      3  C   UNL     1      -5.898   2.508  -0.892  0.00  0.00    +0.000 A 
ATOM      4  C   UNL     1      -5.722   3.895  -0.712  0.00  0.00    +0.000 A 
ATOM      5  C   UNL     1      -6.397   4.774  -1.571  0.00  0.00    +0.000 A 
ATOM      6  C   UNL     1      -7.251   4.288  -2.560  0.00  0.00    +0.000 A 
ATOM      7  C   UNL     1      -7.441   2.915  -2.711  0.00  0.00    +0.000 A 
ATOM      8  C   UNL     1      -6.765   2.006  -1.886  0.00  0.00    +0.000 A 
ATOM      9  C   UNL     1      -7.000   0.532  -2.066  0.00  0.00    +0.000 C 
ATOM     10  C   UNL     1      -4.828   4.467   0.353  0.00  0.00    +0.000 C 
ENDBRANCH   1   3
BRANCH   1  11
ATOM     11  C   UNL     1      -3.667   1.466  -0.202  0.00  0.00    +0.000 C 
BRANCH  11  12
ATOM     12  C   UNL     1      -3.203   0.012  -0.193  0.00  0.00    +0.000 C 
BRANCH  12  17
ATOM     13  C   UNL     1       2.564  -0.268  -0.963  0.00  0.00    +0.000 C 
ATOM     14  C   UNL     1       1.079  -0.228  -0.759  0.00  0.00    +0.000 A 
ATOM     15  C   UNL     1       0.538  -0.097   0.525  0.00  0.00    +0.000 A 
ATOM     16  C   UNL     1      -0.845  -0.030   0.707  0.00  0.00    +0.000 A 
ATOM     17  C   UNL     1      -1.711  -0.088  -0.391  0.00  0.00    +0.000 A 
ATOM     18  C   UNL     1      -1.169  -0.200  -1.677  0.00  0.00    +0.000 A 
ATOM     19  C   UNL     1       0.214  -0.267  -1.859  0.00  0.00    +0.000 A 
ENDBRANCH  12  17
ENDBRANCH  11  12
ENDBRANCH   1  11
TORSDOF 4
