REMARK  Name = *****
REMARK  5 active torsions:
REMARK  status: ('A' for Active; 'I' for Inactive)
REMARK    1  A    between atoms: C_1  and  O_2
REMARK    2  A    between atoms: O_2  and  C_3
REMARK    3  A    between atoms: C_6  and  C_9
REMARK    4  A    between atoms: C_10  and  C_11
REMARK    5  A    between atoms: C_14  and  N_17
REMARK                            x       y       z     vdW  Elec       q    Type
REMARK                         _______ _______ _______ _____ _____    ______ ____
ROOT
ATOM      1  C   UNL     1       5.266   3.303   3.417  0.00  0.00    +0.000 C 
ATOM      2  C   UNL     1       4.900   3.614   4.672  0.00  0.00    +0.000 C 
ENDROOT
BRANCH   1   6
ATOM      3  C   UNL     1       3.123   0.712   0.746  0.00  0.00    +0.000 A 
ATOM      4  C   UNL     1       2.424   1.470   1.682  0.00  0.00    +0.000 A 
ATOM      5  C   UNL     1       3.115   2.307   2.569  0.00  0.00    +0.000 A 
ATOM      6  C   UNL     1       4.513   2.387   2.543  0.00  0.00    +0.000 A 
ATOM      7  C   UNL     1       5.207   1.628   1.595  0.00  0.00    +0.000 A 
ATOM      8  C   UNL     1       4.516   0.795   0.709  0.00  0.00    +0.000 A 
BRANCH   3  10
ATOM      9  C   UNL     1       1.155  -0.216  -0.213  0.00  0.00    +0.000 C 
ATOM     10  O   UNL     1       2.574  -0.130  -0.180  0.00  0.00    +0.000 OA
ENDBRANCH   3  10
ENDBRANCH   1   6
BRANCH   2  11
ATOM     11  C   UNL     1       5.608   4.563   5.542  0.00  0.00    +0.000 A 
ATOM     12  C   UNL     1       6.294   5.678   5.035  0.00  0.00    +0.000 A 
ATOM     13  C   UNL     1       6.900   6.599   5.894  0.00  0.00    +0.000 A 
ATOM     14  C   UNL     1       6.805   6.404   7.274  0.00  0.00    +0.000 A 
ATOM     15  C   UNL     1       6.121   5.308   7.805  0.00  0.00    +0.000 A 
ATOM     16  C   UNL     1       5.523   4.395   6.934  0.00  0.00    +0.000 A 
BRANCH  14  17
ATOM     17  N   UNL     1       7.389   7.329   8.135  0.00  0.00    +0.000 NA
ATOM     18  N   UNL     1       7.843   8.054   8.808  0.00  0.00    +0.000 NA
ENDBRANCH  14  17
ENDBRANCH   2  11
TORSDOF 4
