REMARK  Name = *****
REMARK  2 active torsions:
REMARK  status: ('A' for Active; 'I' for Inactive)
REMARK    1  A    between atoms: C_3  and  N_8
REMARK    2  A    between atoms: C_9  and  C_10
REMARK                            x       y       z     vdW  Elec       q    Type
REMARK                         _______ _______ _______ _____ _____    ______ ____
ROOT
ATOM      1  N   UNL     1      -1.892   2.478   0.489  0.00  0.00    +0.000 NA
ATOM      2  C   UNL     1      -1.489   3.505  -0.191  0.00  0.00    +0.000 C 
ENDROOT
BRANCH   1   5
ATOM      3  C   UNL     1      -1.010  -0.870  -0.836  0.00  0.00    +0.000 A 
ATOM      4  C   UNL     1      -1.689   0.333  -0.622  0.00  0.00    +0.000 A 
ATOM      5  C   UNL     1      -1.190   1.284   0.273  0.00  0.00    +0.000 A 
ATOM      6  C   UNL     1      -0.015   1.014   0.976  0.00  0.00    +0.000 A 
ATOM      7  C   UNL     1       0.656  -0.184   0.758  0.00  0.00    +0.000 A 
ATOM      8  C   UNL     1       0.172  -1.127  -0.143  0.00  0.00    +0.000 A 
ATOM      9  F   UNL     1       1.788  -0.436   1.428  0.00  0.00    +0.000 F 
ENDBRANCH   1   5
BRANCH   2  10
ATOM     10  C   UNL     1      -2.135   4.825  -0.062  0.00  0.00    +0.000 A 
ATOM     11  C   UNL     1      -3.222   5.011   0.799  0.00  0.00    +0.000 A 
ATOM     12  C   UNL     1      -3.819   6.269   0.904  0.00  0.00    +0.000 A 
ATOM     13  C   UNL     1      -3.327   7.334   0.150  0.00  0.00    +0.000 A 
ATOM     14  C   UNL     1      -2.243   7.152  -0.710  0.00  0.00    +0.000 A 
ATOM     15  C   UNL     1      -1.643   5.894  -0.818  0.00  0.00    +0.000 A 
ATOM     16 CL   UNL     1      -4.062   8.884   0.279  0.00  0.00    +0.000 Cl
ENDBRANCH   2  10
TORSDOF 2
