REMARK  Name = *****
REMARK  4 active torsions:
REMARK  status: ('A' for Active; 'I' for Inactive)
REMARK    1  A    between atoms: C_1  and  C_2
REMARK    2  A    between atoms: C_5  and  C_8
REMARK    3  A    between atoms: C_8  and  C_10
REMARK    4  A    between atoms: C_10  and  C_11
REMARK                            x       y       z     vdW  Elec       q    Type
REMARK                         _______ _______ _______ _____ _____    ______ ____
ROOT
ATOM      1  C   UNL     1      -3.347  -0.218  -0.384  0.00  0.00    +0.000 C 
ATOM      2  O   UNL     1      -3.835  -1.313  -0.668  0.00  0.00    +0.000 OA
ENDROOT
BRANCH   1   7
ATOM      3  C   UNL     1       1.919  -0.193   2.080  0.00  0.00    +0.000 C 
ATOM      4  C   UNL     1       0.548  -0.191   1.472  0.00  0.00    +0.000 A 
ATOM      5  C   UNL     1      -0.012  -1.372   0.978  0.00  0.00    +0.000 A 
ATOM      6  C   UNL     1      -1.278  -1.361   0.385  0.00  0.00    +0.000 A 
ATOM      7  C   UNL     1      -1.998  -0.165   0.263  0.00  0.00    +0.000 A 
ATOM      8  C   UNL     1      -1.433   1.020   0.745  0.00  0.00    +0.000 A 
ATOM      9  C   UNL     1      -0.167   1.006   1.341  0.00  0.00    +0.000 A 
ENDBRANCH   1   7
BRANCH   1  10
ATOM     10  C   UNL     1      -4.100   1.067  -0.679  0.00  0.00    +0.000 C 
BRANCH  10  11
ATOM     11  C   UNL     1      -4.860   1.628   0.504  0.00  0.00    +0.000 A 
ATOM     12  C   UNL     1      -5.618   0.758   1.311  0.00  0.00    +0.000 A 
ATOM     13  C   UNL     1      -6.355   1.237   2.397  0.00  0.00    +0.000 A 
ATOM     14  C   UNL     1      -6.363   2.597   2.688  0.00  0.00    +0.000 A 
ATOM     15  C   UNL     1      -5.640   3.479   1.887  0.00  0.00    +0.000 A 
ATOM     16  C   UNL     1      -4.900   3.002   0.799  0.00  0.00    +0.000 A 
ATOM     17 CL   UNL     1      -4.056   4.174  -0.151  0.00  0.00    +0.000 Cl
ENDBRANCH  10  11
ENDBRANCH   1  10
TORSDOF 3
