REMARK  Name = *****
REMARK  2 active torsions:
REMARK  status: ('A' for Active; 'I' for Inactive)
REMARK    1  A    between atoms: C_3  and  C_7
REMARK    2  A    between atoms: C_8  and  C_9
REMARK                            x       y       z     vdW  Elec       q    Type
REMARK                         _______ _______ _______ _____ _____    ______ ____
ROOT
ATOM      1  C   UNL     1       2.254   1.530  -0.272  0.00  0.00    +0.000 C 
ATOM      2  C   UNL     1       3.221   2.226  -0.425  0.00  0.00    +0.000 C 
ENDROOT
BRANCH   1   5
ATOM      3  C   UNL     1      -1.155   0.052  -0.125  0.00  0.00    +0.000 C 
ATOM      4  C   UNL     1      -0.260   1.265   0.113  0.00  0.00    +0.000 C 
ATOM      5  C   UNL     1       1.114   0.707  -0.093  0.00  0.00    +0.000 C 
ATOM      6  C   UNL     1       1.107  -0.635  -0.078  0.00  0.00    +0.000 C 
ATOM      7  C   UNL     1      -0.277  -1.169   0.141  0.00  0.00    +0.000 C 
ATOM      8  I   UNL     1       2.680  -1.894  -0.293  0.00  0.00    +0.000 I 
ENDBRANCH   1   5
BRANCH   2   9
ATOM      9  C   UNL     1       4.380   3.043  -0.613  0.00  0.00    +0.000 A 
ATOM     10  C   UNL     1       4.280   4.433  -0.525  0.00  0.00    +0.000 A 
ATOM     11  C   UNL     1       5.414   5.228  -0.710  0.00  0.00    +0.000 A 
ATOM     12  C   UNL     1       6.646   4.633  -0.983  0.00  0.00    +0.000 A 
ATOM     13  C   UNL     1       6.747   3.245  -1.071  0.00  0.00    +0.000 A 
ATOM     14  C   UNL     1       5.615   2.449  -0.886  0.00  0.00    +0.000 A 
ENDBRANCH   2   9
TORSDOF 2
