REMARK  Name = *****
REMARK  5 active torsions:
REMARK  status: ('A' for Active; 'I' for Inactive)
REMARK    1  A    between atoms: C_1  and  C_2
REMARK    2  A    between atoms: C_2  and  O_4
REMARK    3  A    between atoms: O_4  and  C_5
REMARK    4  A    between atoms: C_8  and  C_11
REMARK    5  A    between atoms: C_12  and  C_13
REMARK                            x       y       z     vdW  Elec       q    Type
REMARK                         _______ _______ _______ _____ _____    ______ ____
ROOT
ATOM      1  C   UNL     1       4.594  -0.813   0.754  0.00  0.00    +0.000 A 
ATOM      2  C   UNL     1       5.260   0.398   0.931  0.00  0.00    +0.000 A 
ATOM      3  C   UNL     1       6.657   0.416   0.934  0.00  0.00    +0.000 A 
ATOM      4  C   UNL     1       7.388  -0.774   0.789  0.00  0.00    +0.000 A 
ATOM      5  C   UNL     1       6.694  -1.981   0.618  0.00  0.00    +0.000 A 
ATOM      6  C   UNL     1       5.298  -2.005   0.614  0.00  0.00    +0.000 A 
ENDROOT
BRANCH   4   7
ATOM      7  C   UNL     1       8.857  -0.789   0.756  0.00  0.00    +0.000 C 
ATOM      8  C   UNL     1       9.627  -0.029   1.551  0.00  0.00    +0.000 C 
BRANCH   8   9
ATOM      9  C   UNL     1      11.097  -0.056   1.532  0.00  0.00    +0.000 A 
ATOM     10  C   UNL     1      11.826  -0.154   0.337  0.00  0.00    +0.000 A 
ATOM     11  C   UNL     1      13.223  -0.145   0.358  0.00  0.00    +0.000 A 
ATOM     12  C   UNL     1      13.891  -0.027   1.570  0.00  0.00    +0.000 A 
ATOM     13  C   UNL     1      13.188   0.088   2.763  0.00  0.00    +0.000 A 
ATOM     14  C   UNL     1      11.791   0.079   2.743  0.00  0.00    +0.000 A 
ATOM     15  F   UNL     1      15.230  -0.016   1.589  0.00  0.00    +0.000 F 
ENDBRANCH   8   9
ENDBRANCH   4   7
BRANCH   1  16
ATOM     16  O   UNL     1       3.198  -0.883   0.803  0.00  0.00    +0.000 OA
BRANCH  16  18
ATOM     17  C   UNL     1       1.054  -0.371  -0.008  0.00  0.00    +0.000 C 
ATOM     18  C   UNL     1       2.531  -0.208  -0.213  0.00  0.00    +0.000 C 
ATOM     19  O   UNL     1       3.031   0.414  -1.140  0.00  0.00    +0.000 OA
ENDBRANCH  16  18
ENDBRANCH   1  16
TORSDOF 4
