REMARK  Name = *****
REMARK  4 active torsions:
REMARK  status: ('A' for Active; 'I' for Inactive)
REMARK    1  A    between atoms: C_1  and  N_2
REMARK    2  A    between atoms: C_5  and  C_8
REMARK    3  A    between atoms: C_8  and  C_9
REMARK    4  A    between atoms: C_9  and  C_10
REMARK                            x       y       z     vdW  Elec       q    Type
REMARK                         _______ _______ _______ _____ _____    ______ ____
ROOT
ATOM      1  C   UNL     1       4.917   0.003  -3.452  0.00  0.00    +0.000 C 
ENDROOT
BRANCH   1   6
ATOM      2  C   UNL     1       0.966  -0.046  -0.737  0.00  0.00    +0.000 C 
ATOM      3  N   UNL     1       2.216  -0.037   0.022  0.00  0.00    +0.000 N 
ATOM      4  C   UNL     1       3.002   1.180  -0.228  0.00  0.00    +0.000 C 
ATOM      5  C   UNL     1       3.575   1.289  -1.654  0.00  0.00    +0.000 C 
ATOM      6  C   UNL     1       4.120  -0.023  -2.171  0.00  0.00    +0.000 C 
ATOM      7  C   UNL     1       3.860  -1.164  -1.507  0.00  0.00    +0.000 C 
ATOM      8  C   UNL     1       3.026  -1.232  -0.254  0.00  0.00    +0.000 C 
ATOM      9  H   UNL     1       1.955  -0.048   1.009  0.00  0.00    +0.000 HD
ENDBRANCH   1   6
BRANCH   1  10
ATOM     10  C   UNL     1       6.326   0.575  -3.258  0.00  0.00    +0.000 C 
BRANCH  10  11
ATOM     11  C   UNL     1       7.140   0.501  -4.528  0.00  0.00    +0.000 A 
ATOM     12  C   UNL     1       7.033   1.505  -5.502  0.00  0.00    +0.000 A 
ATOM     13  C   UNL     1       7.774   1.431  -6.687  0.00  0.00    +0.000 A 
ATOM     14  C   UNL     1       8.628   0.346  -6.907  0.00  0.00    +0.000 A 
ATOM     15  C   UNL     1       8.734  -0.660  -5.943  0.00  0.00    +0.000 A 
ATOM     16  C   UNL     1       7.993  -0.585  -4.762  0.00  0.00    +0.000 A 
ATOM     17 CL   UNL     1       9.573   0.185  -8.345  0.00  0.00    +0.000 Cl
ATOM     18 CL   UNL     1       7.585   2.710  -7.833  0.00  0.00    +0.000 Cl
ENDBRANCH  10  11
ENDBRANCH   1  10
TORSDOF 3
