REMARK  Name = *****
REMARK  4 active torsions:
REMARK  status: ('A' for Active; 'I' for Inactive)
REMARK    1  A    between atoms: C_1  and  C_10
REMARK    2  A    between atoms: C_2  and  C_3
REMARK    3  A    between atoms: C_3  and  C_4
REMARK    4  A    between atoms: C_13  and  C_16
REMARK                            x       y       z     vdW  Elec       q    Type
REMARK                         _______ _______ _______ _____ _____    ______ ____
ROOT
ATOM      1  C   UNL     1       1.921   0.215   0.030  0.00  0.00    +0.000 C 
ATOM      2  C   UNL     1       2.355   1.415  -0.389  0.00  0.00    +0.000 C 
ENDROOT
BRANCH   1   3
ATOM      3  C   UNL     1       2.708  -0.729   0.822  0.00  0.00    +0.000 A 
ATOM      4  C   UNL     1       2.903  -0.524   2.191  0.00  0.00    +0.000 A 
ATOM      5  C   UNL     1       3.660  -1.430   2.938  0.00  0.00    +0.000 A 
ATOM      6  C   UNL     1       4.221  -2.559   2.328  0.00  0.00    +0.000 A 
ATOM      7  C   UNL     1       4.034  -2.753   0.954  0.00  0.00    +0.000 A 
ATOM      8  C   UNL     1       3.277  -1.847   0.207  0.00  0.00    +0.000 A 
ATOM      9  C   UNL     1       5.062  -3.513   3.122  0.00  0.00    +0.000 C 
ENDBRANCH   1   3
BRANCH   2  10
ATOM     10  C   UNL     1       3.705   2.033  -0.149  0.00  0.00    +0.000 C 
BRANCH  10  11
ATOM     11  C   UNL     1       4.438   2.315  -1.440  0.00  0.00    +0.000 A 
ATOM     12  C   UNL     1       4.375   3.582  -2.039  0.00  0.00    +0.000 A 
ATOM     13  C   UNL     1       5.041   3.830  -3.240  0.00  0.00    +0.000 A 
ATOM     14  C   UNL     1       5.771   2.815  -3.857  0.00  0.00    +0.000 A 
ATOM     15  C   UNL     1       5.833   1.550  -3.275  0.00  0.00    +0.000 A 
ATOM     16  C   UNL     1       5.168   1.300  -2.074  0.00  0.00    +0.000 A 
ENDBRANCH  10  11
ENDBRANCH   2  10
TORSDOF 3
