REMARK  Name = *****
REMARK  5 active torsions:
REMARK  status: ('A' for Active; 'I' for Inactive)
REMARK    1  A    between atoms: C_3  and  C_5
REMARK    2  A    between atoms: C_5  and  C_6
REMARK    3  A    between atoms: C_6  and  C_7
REMARK    4  A    between atoms: C_7  and  C_8
REMARK    5  A    between atoms: C_8  and  C_9
REMARK                            x       y       z     vdW  Elec       q    Type
REMARK                         _______ _______ _______ _____ _____    ______ ____
ROOT
ATOM      1  C   UNL     1       0.387  -3.295  -0.074  0.00  0.00    +0.000 C 
ENDROOT
BRANCH   1   2
ATOM      2  C   UNL     1      -0.744  -2.281  -0.015  0.00  0.00    +0.000 C 
BRANCH   2   5
ATOM      3  C   UNL     1       0.372   1.159   0.050  0.00  0.00    +0.000 C 
ATOM      4  C   UNL     1       1.111  -0.190   0.006  0.00  0.00    +0.000 C 
ATOM      5  C   UNL     1      -0.263  -0.837   0.014  0.00  0.00    +0.000 C 
ATOM      6  C   UNL     1      -0.902   0.350   0.056  0.00  0.00    +0.000 C 
ENDBRANCH   2   5
ENDBRANCH   1   2
BRANCH   1   7
ATOM      7  C   UNL     1      -0.097  -4.747  -0.011  0.00  0.00    +0.000 C 
BRANCH   7   8
ATOM      8  C   UNL     1      -0.897  -5.168  -1.232  0.00  0.00    +0.000 C 
BRANCH   8   9
ATOM      9  C   UNL     1      -1.295  -6.637  -1.220  0.00  0.00    +0.000 C 
ATOM     10  C   UNL     1      -1.999  -7.411  -2.071  0.00  0.00    +0.000 C 
ATOM     11  C   UNL     1      -1.860  -8.655  -1.227  0.00  0.00    +0.000 C 
ATOM     12  C   UNL     1      -1.054  -7.781  -0.250  0.00  0.00    +0.000 C 
ENDBRANCH   8   9
ENDBRANCH   7   8
ENDBRANCH   1   7
TORSDOF 5
