REMARK  Name = *****
REMARK  2 active torsions:
REMARK  status: ('A' for Active; 'I' for Inactive)
REMARK    1  A    between atoms: C_4  and  C_7
REMARK    2  A    between atoms: C_8  and  C_10
REMARK                            x       y       z     vdW  Elec       q    Type
REMARK                         _______ _______ _______ _____ _____    ______ ____
ROOT
ATOM      1  C   UNL     1      -2.526   0.467   0.112  0.00  0.00    +0.000 C 
ATOM      2  C   UNL     1      -3.810   0.337   0.917  0.00  0.00    +0.000 C 
ATOM      3  O   UNL     1      -3.604  -0.384  -0.308  0.00  0.00    +0.000 OA
ENDROOT
BRANCH   2   4
ATOM      4  C   UNL     1      -3.803  -0.444   2.205  0.00  0.00    +0.000 A 
ATOM      5  C   UNL     1      -3.219   0.086   3.369  0.00  0.00    +0.000 A 
ATOM      6  C   UNL     1      -3.216  -0.627   4.572  0.00  0.00    +0.000 A 
ATOM      7  C   UNL     1      -3.803  -1.887   4.629  0.00  0.00    +0.000 A 
ATOM      8  C   UNL     1      -4.393  -2.437   3.495  0.00  0.00    +0.000 A 
ATOM      9  C   UNL     1      -4.393  -1.717   2.297  0.00  0.00    +0.000 A 
ATOM     10 CL   UNL     1      -3.800  -2.767   6.107  0.00  0.00    +0.000 Cl
ENDBRANCH   2   4
BRANCH   1  14
ATOM     11  C   UNL     1      -1.764   4.091  -2.135  0.00  0.00    +0.000 A 
ATOM     12  C   UNL     1      -1.635   4.085  -0.749  0.00  0.00    +0.000 A 
ATOM     13  C   UNL     1      -1.884   2.914  -0.029  0.00  0.00    +0.000 A 
ATOM     14  C   UNL     1      -2.270   1.726  -0.673  0.00  0.00    +0.000 A 
ATOM     15  C   UNL     1      -2.387   1.759  -2.073  0.00  0.00    +0.000 A 
ATOM     16  C   UNL     1      -2.140   2.927  -2.798  0.00  0.00    +0.000 A 
ENDBRANCH   1  14
TORSDOF 2
