REMARK  Name = *****
REMARK  2 active torsions:
REMARK  status: ('A' for Active; 'I' for Inactive)
REMARK    1  A    between atoms: C_6  and  C_7
REMARK    2  A    between atoms: C_8  and  C_9
REMARK                            x       y       z     vdW  Elec       q    Type
REMARK                         _______ _______ _______ _____ _____    ______ ____
ROOT
ATOM      1  C   UNL     1       1.309   2.636  -0.286  0.00  0.00    +0.000 C 
ATOM      2  C   UNL     1       1.838   3.707  -0.410  0.00  0.00    +0.000 C 
ENDROOT
BRANCH   1   8
ATOM      3  C   UNL     1      -0.718   1.274  -0.084  0.00  0.00    +0.000 A 
ATOM      4  C   UNL     1      -1.334   0.029   0.058  0.00  0.00    +0.000 A 
ATOM      5  C   UNL     1      -0.550  -1.117   0.142  0.00  0.00    +0.000 A 
ATOM      6  C   UNL     1       0.837  -1.043   0.088  0.00  0.00    +0.000 A 
ATOM      7  C   UNL     1       1.455   0.201  -0.053  0.00  0.00    +0.000 A 
ATOM      8  C   UNL     1       0.677   1.361  -0.140  0.00  0.00    +0.000 A 
ATOM      9  F   UNL     1      -1.142  -2.311   0.278  0.00  0.00    +0.000 F 
ENDBRANCH   1   8
BRANCH   2  10
ATOM     10  C   UNL     1       2.469   4.982  -0.560  0.00  0.00    +0.000 A 
ATOM     11  C   UNL     1       1.813   6.140  -0.134  0.00  0.00    +0.000 A 
ATOM     12  C   UNL     1       2.428   7.386  -0.282  0.00  0.00    +0.000 A 
ATOM     13  C   UNL     1       3.697   7.469  -0.855  0.00  0.00    +0.000 A 
ATOM     14  C   UNL     1       4.355   6.316  -1.282  0.00  0.00    +0.000 A 
ATOM     15  C   UNL     1       3.740   5.070  -1.134  0.00  0.00    +0.000 A 
ATOM     16 CL   UNL     1       4.454   9.003  -1.037  0.00  0.00    +0.000 Cl
ENDBRANCH   2  10
TORSDOF 2
