REMARK  Name = *****
REMARK  6 active torsions:
REMARK  status: ('A' for Active; 'I' for Inactive)
REMARK    1  A    between atoms: C_1  and  N_2
REMARK    2  A    between atoms: N_2  and  C_3
REMARK    3  A    between atoms: N_2  and  C_4
REMARK    4  A    between atoms: C_7  and  C_10
REMARK    5  A    between atoms: C_10  and  S_11
REMARK    6  A    between atoms: S_11  and  C_12
REMARK                            x       y       z     vdW  Elec       q    Type
REMARK                         _______ _______ _______ _____ _____    ______ ____
ROOT
ATOM      1  C   UNL     1       3.185   1.076  -0.580  0.00  0.00    +0.000 A 
ATOM      2  C   UNL     1       2.467   2.281  -0.484  0.00  0.00    +0.000 A 
ATOM      3  C   UNL     1       3.029   3.522  -0.818  0.00  0.00    +0.000 A 
ATOM      4  C   UNL     1       4.343   3.607  -1.281  0.00  0.00    +0.000 A 
ATOM      5  C   UNL     1       5.078   2.426  -1.392  0.00  0.00    +0.000 A 
ATOM      6  C   UNL     1       4.503   1.191  -1.056  0.00  0.00    +0.000 A 
ENDROOT
BRANCH   1   8
ATOM      7  C   UNL     1       1.400  -0.181   0.559  0.00  0.00    +0.000 C 
ATOM      8  N   UNL     1       2.609  -0.161  -0.262  0.00  0.00    +0.000 N 
ATOM      9  C   UNL     1       3.471  -1.335  -0.144  0.00  0.00    +0.000 C 
ENDBRANCH   1   8
BRANCH   4  10
ATOM     10  C   UNL     1       4.955   4.937  -1.635  0.00  0.00    +0.000 C 
BRANCH  10  11
ATOM     11  S   UNL     1       5.760   5.706  -0.191  0.00  0.00    +0.000 S 
BRANCH  11  12
ATOM     12  C   UNL     1       6.239   7.262  -0.916  0.00  0.00    +0.000 A 
ATOM     13  C   UNL     1       5.681   8.447  -0.425  0.00  0.00    +0.000 A 
ATOM     14  C   UNL     1       6.049   9.679  -0.972  0.00  0.00    +0.000 A 
ATOM     15  C   UNL     1       6.983   9.727  -2.005  0.00  0.00    +0.000 A 
ATOM     16  C   UNL     1       7.555   8.553  -2.492  0.00  0.00    +0.000 A 
ATOM     17  C   UNL     1       7.186   7.321  -1.944  0.00  0.00    +0.000 A 
ATOM     18 CL   UNL     1       7.437  11.243  -2.679  0.00  0.00    +0.000 Cl
ENDBRANCH  11  12
ENDBRANCH  10  11
ENDBRANCH   4  10
TORSDOF 4
