REMARK  Name = *****
REMARK  3 active torsions:
REMARK  status: ('A' for Active; 'I' for Inactive)
REMARK    1  A    between atoms: C_4  and  C_7
REMARK    2  A    between atoms: C_8  and  C_9
REMARK    3  A    between atoms: C_12  and  N_15
REMARK                            x       y       z     vdW  Elec       q    Type
REMARK                         _______ _______ _______ _____ _____    ______ ____
ROOT
ATOM      1  C   UNL     1      -2.804   0.447  -0.301  0.00  0.00    +0.000 C 
ATOM      2  C   UNL     1      -3.726  -0.521  -0.430  0.00  0.00    +0.000 C 
ENDROOT
BRANCH   1   6
ATOM      3  C   UNL     1       1.391  -0.191   0.244  0.00  0.00    +0.000 A 
ATOM      4  C   UNL     1       0.673  -1.034  -0.600  0.00  0.00    +0.000 A 
ATOM      5  C   UNL     1      -0.699  -0.842  -0.783  0.00  0.00    +0.000 A 
ATOM      6  C   UNL     1      -1.369   0.190  -0.113  0.00  0.00    +0.000 A 
ATOM      7  C   UNL     1      -0.633   1.042   0.721  0.00  0.00    +0.000 A 
ATOM      8  C   UNL     1       0.739   0.849   0.903  0.00  0.00    +0.000 A 
ENDBRANCH   1   6
BRANCH   2   9
ATOM      9  C   UNL     1      -5.163  -0.266  -0.600  0.00  0.00    +0.000 A 
ATOM     10  C   UNL     1      -5.649   0.787  -1.383  0.00  0.00    +0.000 A 
ATOM     11  C   UNL     1      -7.028   0.979  -1.544  0.00  0.00    +0.000 A 
ATOM     12  C   UNL     1      -7.949   0.111  -0.941  0.00  0.00    +0.000 A 
ATOM     13  C   UNL     1      -7.459  -0.946  -0.166  0.00  0.00    +0.000 A 
ATOM     14  C   UNL     1      -6.081  -1.139  -0.004  0.00  0.00    +0.000 A 
BRANCH  12  15
ATOM     15  N   UNL     1      -9.318   0.261  -1.051  0.00  0.00    +0.000 NA
ATOM     16  O   UNL     1      -9.679   0.889  -2.054  0.00  0.00    +0.000 OA
ENDBRANCH  12  15
ENDBRANCH   2   9
TORSDOF 3
