REMARK  Name = *****
REMARK  6 active torsions:
REMARK  status: ('A' for Active; 'I' for Inactive)
REMARK    1  A    between atoms: C_1  and  N_2
REMARK    2  A    between atoms: N_2  and  C_3
REMARK    3  A    between atoms: N_2  and  C_4
REMARK    4  A    between atoms: C_7  and  C_10
REMARK    5  A    between atoms: C_11  and  C_12
REMARK    6  A    between atoms: C_17  and  N_18
REMARK                            x       y       z     vdW  Elec       q    Type
REMARK                         _______ _______ _______ _____ _____    ______ ____
ROOT
ATOM      1  C   UNL     1       4.498  -3.952  -3.506  0.00  0.00    +0.000 C 
ATOM      2  C   UNL     1       4.881  -4.843  -4.213  0.00  0.00    +0.000 C 
ENDROOT
BRANCH   1   6
ATOM      3  C   UNL     1       3.095  -0.793  -0.976  0.00  0.00    +0.000 A 
ATOM      4  C   UNL     1       2.407  -1.182  -2.139  0.00  0.00    +0.000 A 
ATOM      5  C   UNL     1       2.860  -2.217  -2.971  0.00  0.00    +0.000 A 
ATOM      6  C   UNL     1       4.034  -2.894  -2.663  0.00  0.00    +0.000 A 
ATOM      7  C   UNL     1       4.750  -2.530  -1.529  0.00  0.00    +0.000 A 
ATOM      8  C   UNL     1       4.284  -1.494  -0.706  0.00  0.00    +0.000 A 
BRANCH   3  10
ATOM      9  C   UNL     1       1.315   0.812  -0.361  0.00  0.00    +0.000 C 
ATOM     10  N   UNL     1       2.651   0.252  -0.164  0.00  0.00    +0.000 N 
ATOM     11  C   UNL     1       3.224   0.428   1.170  0.00  0.00    +0.000 C 
ENDBRANCH   3  10
ENDBRANCH   1   6
BRANCH   2  12
ATOM     12  C   UNL     1       5.325  -5.921  -5.041  0.00  0.00    +0.000 A 
ATOM     13  C   UNL     1       5.872  -5.654  -6.296  0.00  0.00    +0.000 A 
ATOM     14  C   UNL     1       6.304  -6.707  -7.107  0.00  0.00    +0.000 A 
ATOM     15  C   UNL     1       6.195  -8.030  -6.672  0.00  0.00    +0.000 A 
ATOM     16  C   UNL     1       5.650  -8.310  -5.420  0.00  0.00    +0.000 A 
ATOM     17  C   UNL     1       5.220  -7.247  -4.617  0.00  0.00    +0.000 A 
BRANCH  17  18
ATOM     18  N   UNL     1       4.677  -7.514  -3.368  0.00  0.00    +0.000 NA
ATOM     19  N   UNL     1       4.256  -7.753  -2.393  0.00  0.00    +0.000 NA
ENDBRANCH  17  18
ENDBRANCH   2  12
TORSDOF 4
