REMARK  Name = *****
REMARK  1 active torsions:
REMARK  status: ('A' for Active; 'I' for Inactive)
REMARK    1  A    between atoms: N_3  and  C_11
REMARK                            x       y       z     vdW  Elec       q    Type
REMARK                         _______ _______ _______ _____ _____    ______ ____
ROOT
ATOM      1  C   UNL     1       1.248   1.457  -0.208  0.00  0.00    +0.000 C 
ATOM      2  C   UNL     1       2.386   0.733   0.516  0.00  0.00    +0.000 C 
ATOM      3  N   UNL     1       2.380  -0.737   0.195  0.00  0.00    +0.000 N 
ATOM      4  C   UNL     1       1.268  -1.359  -0.042  0.00  0.00    +0.000 C 
ATOM      5  C   UNL     1      -0.034  -0.677  -0.018  0.00  0.00    +0.000 A 
ATOM      6  C   UNL     1      -1.213  -1.418   0.034  0.00  0.00    +0.000 A 
ATOM      7  C   UNL     1      -2.434  -0.745   0.046  0.00  0.00    +0.000 A 
ATOM      8  C   UNL     1      -2.467   0.651  -0.006  0.00  0.00    +0.000 A 
ATOM      9  C   UNL     1      -1.281   1.385  -0.072  0.00  0.00    +0.000 A 
ATOM     10  C   UNL     1      -0.053   0.721  -0.067  0.00  0.00    +0.000 A 
ENDROOT
BRANCH   3  11
ATOM     11  C   UNL     1       3.638  -1.415  -0.026  0.00  0.00    +0.000 A 
ATOM     12  C   UNL     1       3.702  -2.452  -0.985  0.00  0.00    +0.000 A 
ATOM     13  C   UNL     1       4.905  -3.105  -1.276  0.00  0.00    +0.000 A 
ATOM     14  C   UNL     1       6.071  -2.748  -0.613  0.00  0.00    +0.000 A 
ATOM     15  C   UNL     1       6.035  -1.746   0.352  0.00  0.00    +0.000 A 
ATOM     16  C   UNL     1       4.834  -1.085   0.655  0.00  0.00    +0.000 A 
ATOM     17 CL   UNL     1       4.925  -0.013   2.016  0.00  0.00    +0.000 Cl
ENDBRANCH   3  11
TORSDOF 1
