REMARK  Name = *****
REMARK  4 active torsions:
REMARK  status: ('A' for Active; 'I' for Inactive)
REMARK    1  A    between atoms: C_1  and  C_2
REMARK    2  A    between atoms: C_2  and  C_3
REMARK    3  A    between atoms: C_2  and  O_9
REMARK    4  A    between atoms: O_9  and  N_10
REMARK                            x       y       z     vdW  Elec       q    Type
REMARK                         _______ _______ _______ _____ _____    ______ ____
ROOT
ATOM      1  C   UNL     1       1.347   0.035  -0.228  0.00  0.00    +0.000 C 
ATOM      2  C   UNL     1       2.872  -0.032  -0.227  0.00  0.00    +0.000 C 
ENDROOT
BRANCH   2   3
ATOM      3  C   UNL     1       3.457   0.789  -1.362  0.00  0.00    +0.000 A 
ATOM      4  C   UNL     1       3.445   2.193  -1.327  0.00  0.00    +0.000 A 
ATOM      5  C   UNL     1       3.976   2.936  -2.382  0.00  0.00    +0.000 A 
ATOM      6  C   UNL     1       4.525   2.286  -3.486  0.00  0.00    +0.000 A 
ATOM      7  C   UNL     1       4.543   0.893  -3.535  0.00  0.00    +0.000 A 
ATOM      8  C   UNL     1       4.011   0.149  -2.480  0.00  0.00    +0.000 A 
ENDBRANCH   2   3
BRANCH   2   9
ATOM      9  O   UNL     1       3.331   0.472   1.037  0.00  0.00    +0.000 OA
BRANCH   9  10
ATOM     10  N   UNL     1       4.522  -0.176   1.396  0.00  0.00    +0.000 NA
ATOM     11  C   UNL     1       5.125   0.433   2.371  0.00  0.00    +0.000 C 
ATOM     12  C   UNL     1       4.654   1.704   3.051  0.00  0.00    +0.000 C 
ATOM     13  C   UNL     1       4.658   1.504   4.564  0.00  0.00    +0.000 C 
ATOM     14  C   UNL     1       6.010   0.998   5.068  0.00  0.00    +0.000 C 
ATOM     15  C   UNL     1       6.415  -0.297   4.365  0.00  0.00    +0.000 C 
ATOM     16  C   UNL     1       6.448  -0.127   2.852  0.00  0.00    +0.000 C 
ENDBRANCH   9  10
ENDBRANCH   2   9
TORSDOF 3
