REMARK  Name = *****
REMARK  5 active torsions:
REMARK  status: ('A' for Active; 'I' for Inactive)
REMARK    1  A    between atoms: C_1  and  C_2
REMARK    2  A    between atoms: C_2  and  C_3
REMARK    3  A    between atoms: C_3  and  C_4
REMARK    4  A    between atoms: C_3  and  C_10
REMARK    5  A    between atoms: C_10  and  C_12
REMARK                            x       y       z     vdW  Elec       q    Type
REMARK                         _______ _______ _______ _____ _____    ______ ____
ROOT
ATOM      1  C   UNL     1       2.848  -0.708  -0.219  0.00  0.00    +0.000 C 
ENDROOT
BRANCH   1   2
ATOM      2  C   UNL     1       2.529  -1.131  -1.647  0.00  0.00    +0.000 A 
ATOM      3  C   UNL     1       3.091  -0.469  -2.750  0.00  0.00    +0.000 A 
ATOM      4  C   UNL     1       2.775  -0.864  -4.051  0.00  0.00    +0.000 A 
ATOM      5  C   UNL     1       1.889  -1.917  -4.267  0.00  0.00    +0.000 A 
ATOM      6  C   UNL     1       1.311  -2.572  -3.182  0.00  0.00    +0.000 A 
ATOM      7  C   UNL     1       1.625  -2.180  -1.880  0.00  0.00    +0.000 A 
ENDBRANCH   1   2
BRANCH   1   9
ATOM      8  C   UNL     1       2.060   0.860   1.634  0.00  0.00    +0.000 C 
ATOM      9  C   UNL     1       2.029   0.550   0.142  0.00  0.00    +0.000 C 
ENDBRANCH   1   9
BRANCH   1  10
ATOM     10  C   UNL     1       4.352  -0.480  -0.008  0.00  0.00    +0.000 C 
ATOM     11  O   UNL     1       4.860   0.641  -0.089  0.00  0.00    +0.000 OA
BRANCH  10  12
ATOM     12  C   UNL     1       5.241  -1.642   0.312  0.00  0.00    +0.000 A 
ATOM     13  C   UNL     1       4.843  -2.974   0.150  0.00  0.00    +0.000 A 
ATOM     14  C   UNL     1       5.718  -4.015   0.472  0.00  0.00    +0.000 A 
ATOM     15  C   UNL     1       6.995  -3.735   0.957  0.00  0.00    +0.000 A 
ATOM     16  C   UNL     1       7.403  -2.413   1.116  0.00  0.00    +0.000 A 
ATOM     17  C   UNL     1       6.531  -1.371   0.793  0.00  0.00    +0.000 A 
ENDBRANCH  10  12
ENDBRANCH   1  10
TORSDOF 4
