REMARK  Name = *****
REMARK  7 active torsions:
REMARK  status: ('A' for Active; 'I' for Inactive)
REMARK    1  A    between atoms: C_1  and  C_2
REMARK    2  A    between atoms: C_3  and  C_17
REMARK    3  A    between atoms: C_4  and  C_16
REMARK    4  A    between atoms: C_5  and  C_15
REMARK    5  A    between atoms: C_6  and  C_7
REMARK    6  A    between atoms: C_7  and  O_8
REMARK    7  A    between atoms: O_8  and  C_9
REMARK                            x       y       z     vdW  Elec       q    Type
REMARK                         _______ _______ _______ _____ _____    ______ ____
ROOT
ATOM      1  C   UNL     1      -2.644  -0.922  -0.251  0.00  0.00    +0.000 C 
ATOM      2  C   UNL     1      -1.221  -0.498  -0.142  0.00  0.00    +0.000 C 
ATOM      3  C   UNL     1      -0.697   0.745  -0.144  0.00  0.00    +0.000 C 
ATOM      4  C   UNL     1       0.747   0.658   0.045  0.00  0.00    +0.000 C 
ATOM      5  C   UNL     1       1.107  -0.634   0.162  0.00  0.00    +0.000 C 
ATOM      6  C   UNL     1      -0.115  -1.526   0.034  0.00  0.00    +0.000 C 
ATOM      7  C   UNL     1       2.451  -1.215   0.436  0.00  0.00    +0.000 C 
ATOM      8  C   UNL     1       1.607   1.875   0.112  0.00  0.00    +0.000 C 
ATOM      9  C   UNL     1      -1.400   2.051  -0.289  0.00  0.00    +0.000 C 
ENDROOT
BRANCH   6  10
ATOM     10  C   UNL     1      -0.024  -2.514  -1.145  0.00  0.00    +0.000 C 
BRANCH  10  11
ATOM     11  O   UNL     1      -1.033  -3.519  -0.982  0.00  0.00    +0.000 OA
BRANCH  11  12
ATOM     12  C   UNL     1      -1.148  -4.454  -1.974  0.00  0.00    +0.000 A 
ATOM     13  C   UNL     1      -0.331  -4.564  -3.099  0.00  0.00    +0.000 A 
ATOM     14  C   UNL     1      -0.562  -5.574  -4.039  0.00  0.00    +0.000 A 
ATOM     15  C   UNL     1      -1.609  -6.476  -3.857  0.00  0.00    +0.000 A 
ATOM     16  C   UNL     1      -2.427  -6.371  -2.735  0.00  0.00    +0.000 A 
ATOM     17  C   UNL     1      -2.194  -5.364  -1.797  0.00  0.00    +0.000 A 
ENDBRANCH  11  12
ENDBRANCH  10  11
ENDBRANCH   6  10
TORSDOF 3
