REMARK  Name = *****
REMARK  4 active torsions:
REMARK  status: ('A' for Active; 'I' for Inactive)
REMARK    1  A    between atoms: C_4  and  C_7
REMARK    2  A    between atoms: C_7  and  C_8
REMARK    3  A    between atoms: C_8  and  C_9
REMARK    4  A    between atoms: C_9  and  C_10
REMARK                            x       y       z     vdW  Elec       q    Type
REMARK                         _______ _______ _______ _____ _____    ______ ____
ROOT
ATOM      1  C   UNL     1      -3.577  -0.874  -0.276  0.00  0.00    +0.000 C 
ENDROOT
BRANCH   1   2
ATOM      2  C   UNL     1      -2.834   0.460  -0.190  0.00  0.00    +0.000 C 
BRANCH   2   6
ATOM      3  C   UNL     1       1.386  -0.150   0.451  0.00  0.00    +0.000 A 
ATOM      4  C   UNL     1       0.884  -0.054  -0.845  0.00  0.00    +0.000 A 
ATOM      5  C   UNL     1      -0.481   0.149  -1.054  0.00  0.00    +0.000 A 
ATOM      6  C   UNL     1      -1.356   0.261   0.034  0.00  0.00    +0.000 A 
ATOM      7  C   UNL     1      -0.842   0.156   1.334  0.00  0.00    +0.000 A 
ATOM      8  C   UNL     1       0.523  -0.046   1.540  0.00  0.00    +0.000 A 
ENDBRANCH   2   6
ENDBRANCH   1   2
BRANCH   1   9
ATOM      9  C   UNL     1      -5.075  -0.656  -0.496  0.00  0.00    +0.000 C 
BRANCH   9  10
ATOM     10  C   UNL     1      -5.823  -1.961  -0.576  0.00  0.00    +0.000 A 
ATOM     11  C   UNL     1      -6.313  -2.577   0.579  0.00  0.00    +0.000 A 
ATOM     12  C   UNL     1      -6.979  -3.785   0.446  0.00  0.00    +0.000 A 
ATOM     13  N   UNL     1      -7.189  -4.418  -0.725  0.00  0.00    +0.000 NA
ATOM     14  C   UNL     1      -6.701  -3.809  -1.825  0.00  0.00    +0.000 A 
ATOM     15  C   UNL     1      -6.020  -2.600  -1.803  0.00  0.00    +0.000 A 
ATOM     16 CL   UNL     1      -7.608  -4.595   1.821  0.00  0.00    +0.000 Cl
ENDBRANCH   9  10
ENDBRANCH   1   9
TORSDOF 4
