REMARK  Name = *****
REMARK  4 active torsions:
REMARK  status: ('A' for Active; 'I' for Inactive)
REMARK    1  A    between atoms: C_1  and  C_2
REMARK    2  A    between atoms: C_2  and  C_3
REMARK    3  A    between atoms: C_2  and  C_10
REMARK    4  A    between atoms: C_3  and  C_4
REMARK                            x       y       z     vdW  Elec       q    Type
REMARK                         _______ _______ _______ _____ _____    ______ ____
ROOT
ATOM      1  C   UNL     1       2.918   0.920  -1.495  0.00  0.00    +0.000 C 
ATOM      2  C   UNL     1       2.457   0.276  -0.180  0.00  0.00    +0.000 C 
ENDROOT
BRANCH   2   3
ATOM      3  C   UNL     1       2.840   1.145   1.011  0.00  0.00    +0.000 A 
ATOM      4  C   UNL     1       3.675   0.626   2.012  0.00  0.00    +0.000 A 
ATOM      5  C   UNL     1       4.033   1.403   3.115  0.00  0.00    +0.000 A 
ATOM      6  C   UNL     1       3.560   2.708   3.234  0.00  0.00    +0.000 A 
ATOM      7  C   UNL     1       2.729   3.237   2.249  0.00  0.00    +0.000 A 
ATOM      8  C   UNL     1       2.370   2.461   1.145  0.00  0.00    +0.000 A 
ENDBRANCH   2   3
BRANCH   2   9
ATOM      9  C   UNL     1       0.940  -0.017  -0.169  0.00  0.00    +0.000 C 
BRANCH   9  10
ATOM     10  C   UNL     1       0.522  -1.087  -1.152  0.00  0.00    +0.000 A 
ATOM     11  C   UNL     1       0.796  -2.436  -0.891  0.00  0.00    +0.000 A 
ATOM     12  C   UNL     1       0.418  -3.424  -1.802  0.00  0.00    +0.000 A 
ATOM     13  C   UNL     1      -0.238  -3.073  -2.981  0.00  0.00    +0.000 A 
ATOM     14  C   UNL     1      -0.516  -1.734  -3.249  0.00  0.00    +0.000 A 
ATOM     15  C   UNL     1      -0.139  -0.745  -2.339  0.00  0.00    +0.000 A 
ENDBRANCH   9  10
ENDBRANCH   2   9
TORSDOF 3
