REMARK  Name = *****
REMARK  5 active torsions:
REMARK  status: ('A' for Active; 'I' for Inactive)
REMARK    1  A    between atoms: C_1  and  C_2
REMARK    2  A    between atoms: C_5  and  C_8
REMARK    3  A    between atoms: C_9  and  C_10
REMARK    4  A    between atoms: C_11  and  C_17
REMARK    5  A    between atoms: C_15  and  C_16
REMARK                            x       y       z     vdW  Elec       q    Type
REMARK                         _______ _______ _______ _____ _____    ______ ____
ROOT
ATOM      1  C   UNL     1       6.836   0.032  -0.811  0.00  0.00    +0.000 C 
ATOM      2  C   UNL     1       8.023   0.038  -0.996  0.00  0.00    +0.000 C 
ENDROOT
BRANCH   2   3
ATOM      3  C   UNL     1       9.445   0.035  -1.205  0.00  0.00    +0.000 A 
ATOM      4  C   UNL     1      10.164   1.249  -1.184  0.00  0.00    +0.000 A 
ATOM      5  C   UNL     1      11.549   1.227  -1.409  0.00  0.00    +0.000 A 
ATOM      6  C   UNL     1      12.214   0.023  -1.631  0.00  0.00    +0.000 A 
ATOM      7  C   UNL     1      11.504  -1.175  -1.638  0.00  0.00    +0.000 A 
ATOM      8  C   UNL     1      10.117  -1.185  -1.427  0.00  0.00    +0.000 A 
ATOM      9  C   UNL     1       9.382  -2.499  -1.448  0.00  0.00    +0.000 C 
ATOM     10  C   UNL     1       9.483   2.575  -0.975  0.00  0.00    +0.000 C 
ENDBRANCH   2   3
BRANCH   1  15
ATOM     11  C   UNL     1       1.177  -0.046   0.126  0.00  0.00    +0.000 C 
ATOM     12  C   UNL     1       2.659  -0.016  -0.108  0.00  0.00    +0.000 A 
ATOM     13  C   UNL     1       3.339   1.199  -0.252  0.00  0.00    +0.000 A 
ATOM     14  C   UNL     1       4.717   1.215  -0.484  0.00  0.00    +0.000 A 
ATOM     15  C   UNL     1       5.425   0.016  -0.580  0.00  0.00    +0.000 A 
ATOM     16  C   UNL     1       4.752  -1.199  -0.448  0.00  0.00    +0.000 A 
ATOM     17  C   UNL     1       3.374  -1.215  -0.215  0.00  0.00    +0.000 A 
ENDBRANCH   1  15
TORSDOF 2
