REMARK  Name = *****
REMARK  1 active torsions:
REMARK  status: ('A' for Active; 'I' for Inactive)
REMARK    1  A    between atoms: C_10  and  C_11
REMARK                            x       y       z     vdW  Elec       q    Type
REMARK                         _______ _______ _______ _____ _____    ______ ____
ROOT
ATOM      1  C   UNL     1      -2.468   0.792  -0.173  0.00  0.00    +0.000 C 
ATOM      2  C   UNL     1      -1.182   1.547   0.137  0.00  0.00    +0.000 C 
ATOM      3  C   UNL     1       0.059   0.698  -0.001  0.00  0.00    +0.000 A 
ATOM      4  C   UNL     1       1.304   1.353  -0.021  0.00  0.00    +0.000 A 
ATOM      5  C   UNL     1       2.490   0.627  -0.086  0.00  0.00    +0.000 A 
ATOM      6  C   UNL     1       2.446  -0.761  -0.114  0.00  0.00    +0.000 A 
ATOM      7  C   UNL     1       1.215  -1.423  -0.087  0.00  0.00    +0.000 A 
ATOM      8  C   UNL     1       0.002  -0.713  -0.046  0.00  0.00    +0.000 A 
ATOM      9  C   UNL     1      -1.319  -1.407  -0.013  0.00  0.00    +0.000 C 
ATOM     10  C   UNL     1      -1.477  -2.657  -0.498  0.00  0.00    +0.000 C 
ATOM     11  C   UNL     1      -2.464  -0.567   0.514  0.00  0.00    +0.000 C 
ENDROOT
BRANCH  10  12
ATOM     12  C   UNL     1      -2.741  -3.398  -0.518  0.00  0.00    +0.000 A 
ATOM     13  C   UNL     1      -3.480  -3.486  -1.702  0.00  0.00    +0.000 A 
ATOM     14  C   UNL     1      -4.685  -4.190  -1.726  0.00  0.00    +0.000 A 
ATOM     15  C   UNL     1      -5.154  -4.810  -0.568  0.00  0.00    +0.000 A 
ATOM     16  C   UNL     1      -4.421  -4.726   0.615  0.00  0.00    +0.000 A 
ATOM     17  C   UNL     1      -3.216  -4.021   0.641  0.00  0.00    +0.000 A 
ENDBRANCH  10  12
TORSDOF 1
