REMARK  Name = *****
REMARK  5 active torsions:
REMARK  status: ('A' for Active; 'I' for Inactive)
REMARK    1  A    between atoms: C_2  and  N_3
REMARK    2  A    between atoms: N_3  and  C_4
REMARK    3  A    between atoms: N_3  and  C_11
REMARK    4  A    between atoms: C_4  and  C_5
REMARK    5  A    between atoms: C_11  and  C_12
REMARK                            x       y       z     vdW  Elec       q    Type
REMARK                         _______ _______ _______ _____ _____    ______ ____
ROOT
ATOM      1  N   UNL     1       3.761  -0.108   0.028  0.00  0.00    +0.000 N 
ENDROOT
BRANCH   1   3
ATOM      2  C   UNL     1       1.114  -0.084  -0.035  0.00  0.00    +0.000 C 
ATOM      3  C   UNL     1       2.312  -0.094  -0.006  0.00  0.00    +0.000 C 
ENDBRANCH   1   3
BRANCH   1   4
ATOM      4  C   UNL     1       4.451   0.098   1.286  0.00  0.00    +0.000 C 
BRANCH   4   5
ATOM      5  C   UNL     1       4.732   1.565   1.526  0.00  0.00    +0.000 A 
ATOM      6  C   UNL     1       3.749   2.394   2.085  0.00  0.00    +0.000 A 
ATOM      7  C   UNL     1       4.002   3.749   2.304  0.00  0.00    +0.000 A 
ATOM      8  C   UNL     1       5.237   4.293   1.959  0.00  0.00    +0.000 A 
ATOM      9  C   UNL     1       6.221   3.482   1.394  0.00  0.00    +0.000 A 
ATOM     10  C   UNL     1       5.970   2.126   1.177  0.00  0.00    +0.000 A 
ENDBRANCH   4   5
ENDBRANCH   1   4
BRANCH   1  11
ATOM     11  C   UNL     1       4.505  -0.286  -1.203  0.00  0.00    +0.000 C 
BRANCH  11  12
ATOM     12  C   UNL     1       4.854  -1.741  -1.421  0.00  0.00    +0.000 A 
ATOM     13  C   UNL     1       3.912  -2.622  -1.975  0.00  0.00    +0.000 A 
ATOM     14  C   UNL     1       4.226  -3.968  -2.170  0.00  0.00    +0.000 A 
ATOM     15  C   UNL     1       5.481  -4.451  -1.807  0.00  0.00    +0.000 A 
ATOM     16  C   UNL     1       6.423  -3.589  -1.247  0.00  0.00    +0.000 A 
ATOM     17  C   UNL     1       6.112  -2.242  -1.054  0.00  0.00    +0.000 A 
ENDBRANCH  11  12
ENDBRANCH   1  11
TORSDOF 5
