REMARK  Name = *****
REMARK  3 active torsions:
REMARK  status: ('A' for Active; 'I' for Inactive)
REMARK    1  A    between atoms: C_8  and  O_9
REMARK    2  A    between atoms: O_9  and  C_10
REMARK    3  A    between atoms: C_10  and  C_12
REMARK                            x       y       z     vdW  Elec       q    Type
REMARK                         _______ _______ _______ _____ _____    ______ ____
ROOT
ATOM      1  O   UNL     1       2.199   0.918   0.779  0.00  0.00    +0.000 OA
ENDROOT
BRANCH   1   9
ATOM      2  C   UNL     1      -2.048   0.245  -0.093  0.00  0.00    +0.000 C 
ATOM      3  C   UNL     1      -1.124   1.426  -0.489  0.00  0.00    +0.000 C 
ATOM      4  C   UNL     1       0.257   0.757  -0.735  0.00  0.00    +0.000 C 
ATOM      5  C   UNL     1      -0.341  -0.425  -1.562  0.00  0.00    +0.000 C 
ATOM      6  C   UNL     1      -1.255  -1.017  -0.509  0.00  0.00    +0.000 C 
ATOM      7  C   UNL     1      -0.368  -1.588   0.636  0.00  0.00    +0.000 C 
ATOM      8  C   UNL     1       1.161  -1.312   0.494  0.00  0.00    +0.000 C 
ATOM      9  C   UNL     1       1.535   0.054  -0.177  0.00  0.00    +0.000 C 
ENDBRANCH   1   9
BRANCH   1  10
ATOM     10  C   UNL     1       3.507   0.649   1.017  0.00  0.00    +0.000 C 
ATOM     11  O   UNL     1       4.159  -0.245   0.502  0.00  0.00    +0.000 OA
BRANCH  10  12
ATOM     12  C   UNL     1       4.063   1.606   2.012  0.00  0.00    +0.000 A 
ATOM     13  C   UNL     1       5.420   1.497   2.347  0.00  0.00    +0.000 A 
ATOM     14  C   UNL     1       5.989   2.371   3.275  0.00  0.00    +0.000 A 
ATOM     15  C   UNL     1       5.206   3.357   3.875  0.00  0.00    +0.000 A 
ATOM     16  C   UNL     1       3.855   3.471   3.549  0.00  0.00    +0.000 A 
ATOM     17  C   UNL     1       3.282   2.599   2.620  0.00  0.00    +0.000 A 
ENDBRANCH  10  12
ENDBRANCH   1  10
TORSDOF 3
