REMARK  Name = *****
REMARK  4 active torsions:
REMARK  status: ('A' for Active; 'I' for Inactive)
REMARK    1  A    between atoms: C_1  and  O_2
REMARK    2  A    between atoms: O_2  and  C_3
REMARK    3  A    between atoms: C_7  and  C_9
REMARK    4  A    between atoms: C_10  and  C_11
REMARK                            x       y       z     vdW  Elec       q    Type
REMARK                         _______ _______ _______ _____ _____    ______ ____
ROOT
ATOM      1  C   UNL     1       3.197  -0.663  -1.001  0.00  0.00    +0.000 A 
ATOM      2  C   UNL     1       2.728  -0.695  -2.313  0.00  0.00    +0.000 A 
ATOM      3  C   UNL     1       3.428  -1.409  -3.289  0.00  0.00    +0.000 A 
ATOM      4  C   UNL     1       4.601  -2.090  -2.958  0.00  0.00    +0.000 A 
ATOM      5  C   UNL     1       5.095  -2.053  -1.649  0.00  0.00    +0.000 A 
ATOM      6  C   UNL     1       4.375  -1.346  -0.677  0.00  0.00    +0.000 A 
ENDROOT
BRANCH   1   8
ATOM      7  C   UNL     1       1.401   0.687  -0.225  0.00  0.00    +0.000 C 
ATOM      8  O   UNL     1       2.608  -0.013   0.049  0.00  0.00    +0.000 OA
ENDBRANCH   1   8
BRANCH   5   9
ATOM      9  C   UNL     1       6.308  -2.782  -1.247  0.00  0.00    +0.000 C 
ATOM     10  C   UNL     1       7.423  -2.850  -1.995  0.00  0.00    +0.000 C 
BRANCH  10  11
ATOM     11  C   UNL     1       8.636  -3.538  -1.660  0.00  0.00    +0.000 A 
ATOM     12  C   UNL     1       8.856  -4.262  -0.506  0.00  0.00    +0.000 A 
ATOM     13  S   UNL     1      10.425  -4.949  -0.449  0.00  0.00    +0.000 S 
ATOM     14  C   UNL     1      10.828  -4.284  -1.970  0.00  0.00    +0.000 A 
ATOM     15  C   UNL     1       9.789  -3.556  -2.507  0.00  0.00    +0.000 A 
ENDBRANCH  10  11
ENDBRANCH   5   9
TORSDOF 3
