REMARK  Name = *****
REMARK  6 active torsions:
REMARK  status: ('A' for Active; 'I' for Inactive)
REMARK    1  A    between atoms: C_1  and  C_2
REMARK    2  A    between atoms: C_4  and  C_17
REMARK    3  A    between atoms: C_6  and  O_8
REMARK    4  A    between atoms: O_8  and  C_9
REMARK    5  A    between atoms: C_9  and  C_10
REMARK    6  A    between atoms: C_9  and  C_11
REMARK                            x       y       z     vdW  Elec       q    Type
REMARK                         _______ _______ _______ _____ _____    ______ ____
ROOT
ATOM      1  O   UNL     1      -0.057  -3.134   0.128  0.00  0.00    +0.000 OA
ENDROOT
BRANCH   1   7
ATOM      2  C   UNL     1       2.245   1.246   0.689  0.00  0.00    +0.000 C 
ATOM      3  C   UNL     1       1.091   0.404   0.228  0.00  0.00    +0.000 A 
ATOM      4  C   UNL     1      -0.045   1.002  -0.333  0.00  0.00    +0.000 A 
ATOM      5  C   UNL     1      -1.142   0.226  -0.719  0.00  0.00    +0.000 A 
ATOM      6  C   UNL     1      -1.083  -1.163  -0.551  0.00  0.00    +0.000 A 
ATOM      7  C   UNL     1       0.041  -1.776   0.008  0.00  0.00    +0.000 A 
ATOM      8  C   UNL     1       1.119  -0.987   0.410  0.00  0.00    +0.000 A 
ATOM      9  C   UNL     1      -2.345   0.857  -1.354  0.00  0.00    +0.000 C 
ENDBRANCH   1   7
BRANCH   1  10
ATOM     10  C   UNL     1       1.130  -3.900   0.366  0.00  0.00    +0.000 C 
ATOM     11  C   UNL     1       1.307  -4.126   1.868  0.00  0.00    +0.000 C 
BRANCH  10  12
ATOM     12  C   UNL     1       0.983  -5.239  -0.344  0.00  0.00    +0.000 A 
ATOM     13  C   UNL     1       2.065  -5.784  -1.052  0.00  0.00    +0.000 A 
ATOM     14  C   UNL     1       1.948  -7.020  -1.692  0.00  0.00    +0.000 A 
ATOM     15  C   UNL     1       0.749  -7.728  -1.628  0.00  0.00    +0.000 A 
ATOM     16  C   UNL     1      -0.333  -7.202  -0.926  0.00  0.00    +0.000 A 
ATOM     17  C   UNL     1      -0.217  -5.966  -0.287  0.00  0.00    +0.000 A 
ENDBRANCH  10  12
ENDBRANCH   1  10
TORSDOF 3
