REMARK  Name = *****
REMARK  5 active torsions:
REMARK  status: ('A' for Active; 'I' for Inactive)
REMARK    1  A    between atoms: N_2  and  C_3
REMARK    2  A    between atoms: C_3  and  C_4
REMARK    3  A    between atoms: C_9  and  O_10
REMARK    4  A    between atoms: O_10  and  C_11
REMARK    5  A    between atoms: C_11  and  C_12
REMARK                            x       y       z     vdW  Elec       q    Type
REMARK                         _______ _______ _______ _____ _____    ______ ____
ROOT
ATOM      1  C   UNL     1       4.055  -1.091   1.021  0.00  0.00    +0.000 A 
ATOM      2  C   UNL     1       4.238  -0.806   2.387  0.00  0.00    +0.000 A 
ATOM      3  C   UNL     1       4.468  -1.830   3.305  0.00  0.00    +0.000 A 
ATOM      4  C   UNL     1       4.501  -3.151   2.872  0.00  0.00    +0.000 A 
ATOM      5  C   UNL     1       4.317  -3.450   1.521  0.00  0.00    +0.000 A 
ATOM      6  C   UNL     1       4.111  -2.428   0.587  0.00  0.00    +0.000 A 
ENDROOT
BRANCH   1   7
ATOM      7  C   UNL     1       3.790   0.045   0.062  0.00  0.00    +0.000 C 
BRANCH   7   9
ATOM      8  C   UNL     1       5.732   1.783   0.036  0.00  0.00    +0.000 C 
ATOM      9  N   UNL     1       4.868   0.990   0.053  0.00  0.00    +0.000 NA
ENDBRANCH   7   9
ENDBRANCH   1   7
BRANCH   6  10
ATOM     10  O   UNL     1       3.936  -2.636  -0.756  0.00  0.00    +0.000 OA
BRANCH  10  11
ATOM     11  C   UNL     1       4.333  -3.906  -1.273  0.00  0.00    +0.000 C 
BRANCH  11  12
ATOM     12  C   UNL     1       4.407  -3.814  -2.778  0.00  0.00    +0.000 A 
ATOM     13  C   UNL     1       5.635  -3.955  -3.440  0.00  0.00    +0.000 A 
ATOM     14  C   UNL     1       5.703  -3.881  -4.832  0.00  0.00    +0.000 A 
ATOM     15  C   UNL     1       4.545  -3.663  -5.576  0.00  0.00    +0.000 A 
ATOM     16  C   UNL     1       3.320  -3.514  -4.929  0.00  0.00    +0.000 A 
ATOM     17  C   UNL     1       3.250  -3.588  -3.537  0.00  0.00    +0.000 A 
ENDBRANCH  11  12
ENDBRANCH  10  11
ENDBRANCH   6  10
TORSDOF 5
