REMARK  Name = *****
REMARK  4 active torsions:
REMARK  status: ('A' for Active; 'I' for Inactive)
REMARK    1  A    between atoms: C_1  and  C_2
REMARK    2  A    between atoms: C_5  and  C_8
REMARK    3  A    between atoms: C_8  and  O_9
REMARK    4  A    between atoms: O_9  and  C_10
REMARK                            x       y       z     vdW  Elec       q    Type
REMARK                         _______ _______ _______ _____ _____    ______ ____
ROOT
ATOM      1  C   UNL     1      -3.328   0.005   0.002  0.00  0.00    +0.000 C 
ENDROOT
BRANCH   1   6
ATOM      2  C   UNL     1       2.504   0.014  -0.032  0.00  0.00    +0.000 C 
ATOM      3  C   UNL     1       1.005   0.037  -0.051  0.00  0.00    +0.000 A 
ATOM      4  C   UNL     1       0.299   0.988   0.692  0.00  0.00    +0.000 A 
ATOM      5  C   UNL     1      -1.098   0.988   0.699  0.00  0.00    +0.000 A 
ATOM      6  C   UNL     1      -1.817   0.035  -0.036  0.00  0.00    +0.000 A 
ATOM      7  C   UNL     1      -1.106  -0.933  -0.757  0.00  0.00    +0.000 A 
ATOM      8  C   UNL     1       0.291  -0.933  -0.764  0.00  0.00    +0.000 A 
ENDBRANCH   1   6
BRANCH   1   9
ATOM      9  O   UNL     1      -3.837   1.331  -0.146  0.00  0.00    +0.000 OA
BRANCH   9  10
ATOM     10  C   UNL     1      -5.193   1.492  -0.084  0.00  0.00    +0.000 A 
ATOM     11  C   UNL     1      -6.136   0.476   0.082  0.00  0.00    +0.000 A 
ATOM     12  C   UNL     1      -7.500   0.785   0.128  0.00  0.00    +0.000 A 
ATOM     13  C   UNL     1      -7.919   2.109   0.008  0.00  0.00    +0.000 A 
ATOM     14  C   UNL     1      -6.987   3.128  -0.159  0.00  0.00    +0.000 A 
ATOM     15  C   UNL     1      -5.626   2.816  -0.206  0.00  0.00    +0.000 A 
ATOM     16 CL   UNL     1      -9.597   2.483   0.066  0.00  0.00    +0.000 Cl
ENDBRANCH   9  10
ENDBRANCH   1   9
TORSDOF 3
