REMARK  Name = *****
REMARK  3 active torsions:
REMARK  status: ('A' for Active; 'I' for Inactive)
REMARK    1  A    between atoms: C_1  and  C_2
REMARK    2  A    between atoms: C_2  and  C_10
REMARK    3  A    between atoms: N_3  and  C_4
REMARK                            x       y       z     vdW  Elec       q    Type
REMARK                         _______ _______ _______ _____ _____    ______ ____
ROOT
ATOM      1  C   UNL     1       0.867  -0.167  -0.243  0.00  0.00    +0.000 C 
ATOM      2  C   UNL     1       2.362   0.007  -0.100  0.00  0.00    +0.000 C 
ATOM      3  N   UNL     1       3.022  -0.141   0.999  0.00  0.00    +0.000 NA
ENDROOT
BRANCH   2   4
ATOM      4  C   UNL     1       3.131   0.316  -1.332  0.00  0.00    +0.000 A 
ATOM      5  C   UNL     1       4.180  -0.555  -1.663  0.00  0.00    +0.000 A 
ATOM      6  C   UNL     1       4.938  -0.337  -2.813  0.00  0.00    +0.000 A 
ATOM      7  C   UNL     1       4.659   0.755  -3.633  0.00  0.00    +0.000 A 
ATOM      8  C   UNL     1       3.629   1.636  -3.297  0.00  0.00    +0.000 A 
ATOM      9  C   UNL     1       2.865   1.425  -2.143  0.00  0.00    +0.000 A 
ATOM     10 CL   UNL     1       1.660   2.602  -1.761  0.00  0.00    +0.000 Cl
ENDBRANCH   2   4
BRANCH   3  11
ATOM     11  C   UNL     1       2.339  -0.456   2.253  0.00  0.00    +0.000 C 
ATOM     12  C   UNL     1       3.057   0.304   3.377  0.00  0.00    +0.000 C 
ATOM     13  C   UNL     1       2.503  -0.068   4.750  0.00  0.00    +0.000 C 
ATOM     14  C   UNL     1       2.553  -1.575   4.985  0.00  0.00    +0.000 C 
ATOM     15  C   UNL     1       1.856  -2.343   3.866  0.00  0.00    +0.000 C 
ATOM     16  C   UNL     1       2.413  -1.967   2.495  0.00  0.00    +0.000 C 
ENDBRANCH   3  11
TORSDOF 2
