REMARK  Name = *****
REMARK  4 active torsions:
REMARK  status: ('A' for Active; 'I' for Inactive)
REMARK    1  A    between atoms: C_1  and  C_2
REMARK    2  A    between atoms: C_5  and  S_8
REMARK    3  A    between atoms: S_8  and  O_10
REMARK    4  A    between atoms: O_10  and  C_11
REMARK                            x       y       z     vdW  Elec       q    Type
REMARK                         _______ _______ _______ _____ _____    ______ ____
ROOT
ATOM      1  S   UNL     1      -3.787  -0.639   0.470  0.00  0.00    +0.000 S 
ATOM      2  O   UNL     1      -4.391  -0.564   1.842  0.00  0.00    +0.000 OA
ENDROOT
BRANCH   1   7
ATOM      3  C   UNL     1       2.136   0.787   1.109  0.00  0.00    +0.000 C 
ATOM      4  C   UNL     1       0.691   0.415   0.952  0.00  0.00    +0.000 A 
ATOM      5  C   UNL     1       0.121   0.297  -0.321  0.00  0.00    +0.000 A 
ATOM      6  C   UNL     1      -1.234  -0.017  -0.464  0.00  0.00    +0.000 A 
ATOM      7  C   UNL     1      -2.040  -0.201   0.665  0.00  0.00    +0.000 A 
ATOM      8  C   UNL     1      -1.474  -0.073   1.937  0.00  0.00    +0.000 A 
ATOM      9  C   UNL     1      -0.119   0.240   2.079  0.00  0.00    +0.000 A 
ENDBRANCH   1   7
BRANCH   1  10
ATOM     10  O   UNL     1      -4.139   0.736  -0.295  0.00  0.00    +0.000 OA
BRANCH  10  11
ATOM     11  C   UNL     1      -5.519   1.103  -0.319  0.00  0.00    +0.000 C 
ATOM     12  C   UNL     1      -5.994   1.087  -1.775  0.00  0.00    +0.000 C 
ATOM     13  C   UNL     1      -7.418   1.617  -1.907  0.00  0.00    +0.000 C 
ATOM     14  C   UNL     1      -7.557   3.009  -1.297  0.00  0.00    +0.000 C 
ATOM     15  C   UNL     1      -7.072   3.043   0.150  0.00  0.00    +0.000 C 
ATOM     16  C   UNL     1      -5.650   2.507   0.278  0.00  0.00    +0.000 C 
ENDBRANCH  10  11
ENDBRANCH   1  10
TORSDOF 3
