REMARK  Name = *****
REMARK  4 active torsions:
REMARK  status: ('A' for Active; 'I' for Inactive)
REMARK    1  A    between atoms: C_2  and  C_3
REMARK    2  A    between atoms: C_3  and  C_4
REMARK    3  A    between atoms: C_9  and  C_10
REMARK    4  A    between atoms: C_11  and  C_12
REMARK                            x       y       z     vdW  Elec       q    Type
REMARK                         _______ _______ _______ _____ _____    ______ ____
ROOT
ATOM      1  C   UNL     1       4.590   0.203   0.949  0.00  0.00    +0.000 A 
ATOM      2  C   UNL     1       5.300   1.408   0.802  0.00  0.00    +0.000 A 
ATOM      3  C   UNL     1       6.672   1.406   0.545  0.00  0.00    +0.000 A 
ATOM      4  C   UNL     1       7.355   0.200   0.424  0.00  0.00    +0.000 A 
ATOM      5  C   UNL     1       6.664  -1.005   0.554  0.00  0.00    +0.000 A 
ATOM      6  C   UNL     1       5.287  -1.012   0.812  0.00  0.00    +0.000 A 
ENDROOT
BRANCH   6   7
ATOM      7  C   UNL     1       4.625  -2.279   0.919  0.00  0.00    +0.000 C 
ATOM      8  C   UNL     1       4.065  -3.338   1.004  0.00  0.00    +0.000 C 
BRANCH   8   9
ATOM      9  C   UNL     1       3.388  -4.594   1.101  0.00  0.00    +0.000 A 
ATOM     10  C   UNL     1       4.108  -5.787   1.013  0.00  0.00    +0.000 A 
ATOM     11  C   UNL     1       3.445  -7.013   1.107  0.00  0.00    +0.000 A 
ATOM     12  C   UNL     1       2.063  -7.045   1.289  0.00  0.00    +0.000 A 
ATOM     13  C   UNL     1       1.341  -5.855   1.378  0.00  0.00    +0.000 A 
ATOM     14  C   UNL     1       2.003  -4.629   1.284  0.00  0.00    +0.000 A 
ENDBRANCH   8   9
ENDBRANCH   6   7
BRANCH   1  15
ATOM     15  C   UNL     1       3.100   0.262   1.213  0.00  0.00    +0.000 C 
BRANCH  15  17
ATOM     16  C   UNL     1       1.470   1.244  -0.434  0.00  0.00    +0.000 C 
ATOM     17  C   UNL     1       2.292   0.257  -0.055  0.00  0.00    +0.000 C 
ENDBRANCH  15  17
ENDBRANCH   1  15
TORSDOF 4
