REMARK  Name = *****
REMARK  5 active torsions:
REMARK  status: ('A' for Active; 'I' for Inactive)
REMARK    1  A    between atoms: C_1  and  C_2
REMARK    2  A    between atoms: C_4  and  C_17
REMARK    3  A    between atoms: C_5  and  C_8
REMARK    4  A    between atoms: C_8  and  N_10
REMARK    5  A    between atoms: N_10  and  C_11
REMARK                            x       y       z     vdW  Elec       q    Type
REMARK                         _______ _______ _______ _____ _____    ______ ____
ROOT
ATOM      1  C   UNL     1      -2.852  -1.362   0.126  0.00  0.00    +0.000 C 
ATOM      2  S   UNL     1      -4.224  -0.450  -0.182  0.00  0.00    +0.000 S 
ENDROOT
BRANCH   1   7
ATOM      3  C   UNL     1       2.445   0.972   0.049  0.00  0.00    +0.000 C 
ATOM      4  C   UNL     1       1.080   0.348   0.077  0.00  0.00    +0.000 A 
ATOM      5  C   UNL     1       0.502  -0.035   1.297  0.00  0.00    +0.000 A 
ATOM      6  C   UNL     1      -0.792  -0.579   1.351  0.00  0.00    +0.000 A 
ATOM      7  C   UNL     1      -1.501  -0.740   0.147  0.00  0.00    +0.000 A 
ATOM      8  C   UNL     1      -0.934  -0.351  -1.074  0.00  0.00    +0.000 A 
ATOM      9  C   UNL     1       0.347   0.200  -1.105  0.00  0.00    +0.000 A 
ATOM     10  C   UNL     1      -1.365  -0.987   2.679  0.00  0.00    +0.000 C 
ENDBRANCH   1   7
BRANCH   1  11
ATOM     11  N   UNL     1      -2.818  -2.727   0.364  0.00  0.00    +0.000 N 
ATOM     12  H   UNL     1      -1.928  -3.144   0.406  0.00  0.00    +0.000 HD
BRANCH  11  13
ATOM     13  C   UNL     1      -3.968  -3.615   0.561  0.00  0.00    +0.000 C 
ATOM     14  C   UNL     1      -4.437  -3.571   2.022  0.00  0.00    +0.000 C 
ATOM     15  C   UNL     1      -5.586  -4.544   2.274  0.00  0.00    +0.000 C 
ATOM     16  C   UNL     1      -5.222  -5.965   1.855  0.00  0.00    +0.000 C 
ATOM     17  C   UNL     1      -4.747  -6.019   0.406  0.00  0.00    +0.000 C 
ATOM     18  C   UNL     1      -3.598  -5.047   0.154  0.00  0.00    +0.000 C 
ENDBRANCH  11  13
ENDBRANCH   1  11
TORSDOF 3
