REMARK  Name = *****
REMARK  1 active torsions:
REMARK  status: ('A' for Active; 'I' for Inactive)
REMARK    1  A    between atoms: C_4  and  C_7
REMARK                            x       y       z     vdW  Elec       q    Type
REMARK                         _______ _______ _______ _____ _____    ______ ____
ROOT
ATOM      1  C   UNL     1      -2.851   0.641  -0.171  0.00  0.00    +0.000 A 
ATOM      2  C   UNL     1      -3.824  -0.014   0.616  0.00  0.00    +0.000 A 
ATOM      3  C   UNL     1      -5.178   0.287   0.421  0.00  0.00    +0.000 A 
ATOM      4  C   UNL     1      -5.526   1.218  -0.542  0.00  0.00    +0.000 A 
ATOM      5  C   UNL     1      -4.623   1.894  -1.349  0.00  0.00    +0.000 A 
ATOM      6  C   UNL     1      -3.272   1.581  -1.137  0.00  0.00    +0.000 A 
ATOM      7  O   UNL     1      -6.883   1.335  -0.540  0.00  0.00    +0.000 OA
ATOM      8  C   UNL     1      -7.285   0.459   0.434  0.00  0.00    +0.000 A 
ATOM      9  N   UNL     1      -6.307  -0.190   1.035  0.00  0.00    +0.000 NA
ATOM     10 CL   UNL     1      -8.935   0.215   0.852  0.00  0.00    +0.000 Cl
ENDROOT
BRANCH   1  14
ATOM     11  C   UNL     1       1.323  -0.213   0.377  0.00  0.00    +0.000 A 
ATOM     12  C   UNL     1       0.761  -0.268  -0.896  0.00  0.00    +0.000 A 
ATOM     13  C   UNL     1      -0.597   0.009  -1.073  0.00  0.00    +0.000 A 
ATOM     14  C   UNL     1      -1.418   0.347   0.017  0.00  0.00    +0.000 A 
ATOM     15  C   UNL     1      -0.829   0.396   1.292  0.00  0.00    +0.000 A 
ATOM     16  C   UNL     1       0.529   0.119   1.471  0.00  0.00    +0.000 A 
ENDBRANCH   1  14
TORSDOF 1
