REMARK  Name = *****
REMARK  3 active torsions:
REMARK  status: ('A' for Active; 'I' for Inactive)
REMARK    1  A    between atoms: C_2  and  C_9
REMARK    2  A    between atoms: C_9  and  O_10
REMARK    3  A    between atoms: O_10  and  C_11
REMARK                            x       y       z     vdW  Elec       q    Type
REMARK                         _______ _______ _______ _____ _____    ______ ____
ROOT
ATOM      1  C   UNL     1      -0.054  -3.381   0.059  0.00  0.00    +0.000 C 
ENDROOT
BRANCH   1   3
ATOM      2  C   UNL     1       0.723  -1.193  -0.947  0.00  0.00    +0.000 A 
ATOM      3  C   UNL     1      -0.008  -1.873   0.039  0.00  0.00    +0.000 A 
ATOM      4  C   UNL     1      -0.721  -1.120   0.983  0.00  0.00    +0.000 A 
ATOM      5  C   UNL     1      -0.685   0.273   0.939  0.00  0.00    +0.000 A 
ATOM      6  C   UNL     1       0.044   0.944  -0.033  0.00  0.00    +0.000 A 
ATOM      7  C   UNL     1       0.744   0.200  -0.970  0.00  0.00    +0.000 A 
ATOM      8  F   UNL     1       1.450   0.831  -1.918  0.00  0.00    +0.000 F 
ATOM      9  F   UNL     1      -1.371   0.976   1.850  0.00  0.00    +0.000 F 
ENDBRANCH   1   3
BRANCH   1  10
ATOM     10  O   UNL     1       1.284  -3.878   0.051  0.00  0.00    +0.000 OA
BRANCH  10  11
ATOM     11  C   UNL     1       1.452  -5.234   0.024  0.00  0.00    +0.000 A 
ATOM     12  C   UNL     1       2.786  -5.653  -0.010  0.00  0.00    +0.000 A 
ATOM     13  C   UNL     1       3.096  -7.012  -0.040  0.00  0.00    +0.000 A 
ATOM     14  C   UNL     1       2.087  -7.968  -0.036  0.00  0.00    +0.000 A 
ATOM     15  C   UNL     1       0.760  -7.548  -0.001  0.00  0.00    +0.000 A 
ATOM     16  C   UNL     1       0.435  -6.189   0.029  0.00  0.00    +0.000 A 
ATOM     17 CL   UNL     1      -0.501  -8.721   0.006  0.00  0.00    +0.000 Cl
ATOM     18 CL   UNL     1       4.743  -7.510  -0.083  0.00  0.00    +0.000 Cl
ENDBRANCH  10  11
ENDBRANCH   1  10
TORSDOF 3
