REMARK  Name = *****
REMARK  0 active torsions:
REMARK  status: ('A' for Active; 'I' for Inactive)
REMARK                            x       y       z     vdW  Elec       q    Type
REMARK                         _______ _______ _______ _____ _____    ______ ____
ROOT
ATOM      1  C   UNL     1      -0.579  -1.409  -0.142  0.00  0.00    +0.000 C 
ATOM      2  C   UNL     1       0.850  -1.148   0.287  0.00  0.00    +0.000 C 
ATOM      3  S   UNL     1       1.429   0.312  -0.619  0.00  0.00    +0.000 S 
ATOM      4  C   UNL     1      -0.110   1.174  -0.607  0.00  0.00    +0.000 C 
ATOM      5  C   UNL     1      -0.240   2.475  -0.972  0.00  0.00    +0.000 C 
ATOM      6  S   UNL     1       1.133   3.456  -1.504  0.00  0.00    +0.000 S 
ATOM      7  C   UNL     1       0.197   4.933  -1.794  0.00  0.00    +0.000 A 
ATOM      8  C   UNL     1       0.770   6.116  -2.256  0.00  0.00    +0.000 A 
ATOM      9  C   UNL     1      -0.037   7.237  -2.461  0.00  0.00    +0.000 A 
ATOM     10  C   UNL     1      -1.408   7.172  -2.202  0.00  0.00    +0.000 A 
ATOM     11  C   UNL     1      -1.979   5.985  -1.739  0.00  0.00    +0.000 A 
ATOM     12  C   UNL     1      -1.171   4.868  -1.536  0.00  0.00    +0.000 A 
ATOM     13  S   UNL     1      -1.797   3.316  -0.952  0.00  0.00    +0.000 S 
ATOM     14  S   UNL     1      -1.461   0.174  -0.074  0.00  0.00    +0.000 S 
ENDROOT
TORSDOF 0
