REMARK  Name = *****
REMARK  5 active torsions:
REMARK  status: ('A' for Active; 'I' for Inactive)
REMARK    1  A    between atoms: C_1  and  C_2
REMARK    2  A    between atoms: C_2  and  C_3
REMARK    3  A    between atoms: C_2  and  N_11
REMARK    4  A    between atoms: C_3  and  C_4
REMARK    5  A    between atoms: C_3  and  S_10
REMARK                            x       y       z     vdW  Elec       q    Type
REMARK                         _______ _______ _______ _____ _____    ______ ____
ROOT
ATOM      1  C   UNL     1       0.361  -0.660  -0.540  0.00  0.00    +0.000 C 
ATOM      2  C   UNL     1       1.823  -0.414  -0.140  0.00  0.00    +0.000 C 
ENDROOT
BRANCH   2   3
ATOM      3  N   UNL     1       2.632  -0.006  -1.352  0.00  0.00    +0.000 N 
ATOM      4  C   UNL     1       3.288   1.225  -1.310  0.00  0.00    +0.000 C 
ATOM      5  C   UNL     1       4.069   1.867  -2.187  0.00  0.00    +0.000 C 
ATOM      6  C   UNL     1       4.464   1.444  -3.504  0.00  0.00    +0.000 C 
ATOM      7  C   UNL     1       4.171   0.292  -4.115  0.00  0.00    +0.000 C 
ATOM      8  C   UNL     1       3.390  -0.803  -3.602  0.00  0.00    +0.000 C 
ATOM      9  C   UNL     1       2.751  -0.886  -2.428  0.00  0.00    +0.000 C 
ENDBRANCH   2   3
BRANCH   2  10
ATOM     10  C   UNL     1       2.545  -1.551   0.665  0.00  0.00    +0.000 C 
BRANCH  10  11
ATOM     11  C   UNL     1       2.535  -1.291   2.171  0.00  0.00    +0.000 A 
ATOM     12  C   UNL     1       1.347  -1.236   2.918  0.00  0.00    +0.000 A 
ATOM     13  C   UNL     1       1.377  -0.982   4.291  0.00  0.00    +0.000 A 
ATOM     14  C   UNL     1       2.593  -0.778   4.938  0.00  0.00    +0.000 A 
ATOM     15  C   UNL     1       3.781  -0.831   4.214  0.00  0.00    +0.000 A 
ATOM     16  C   UNL     1       3.753  -1.086   2.842  0.00  0.00    +0.000 A 
ENDBRANCH  10  11
BRANCH  10  17
ATOM     17  S   UNL     1       2.005  -3.283   0.324  0.00  0.00    +0.000 S 
ATOM     18  H   UNL     1       0.733  -3.459   0.773  0.00  0.00    +0.000 HD
ENDBRANCH  10  17
ENDBRANCH   2  10
TORSDOF 4
