REMARK  Name = *****
REMARK  4 active torsions:
REMARK  status: ('A' for Active; 'I' for Inactive)
REMARK    1  A    between atoms: C_7  and  C_8
REMARK    2  A    between atoms: C_8  and  O_10
REMARK    3  A    between atoms: O_10  and  C_11
REMARK    4  A    between atoms: C_11  and  C_12
REMARK                            x       y       z     vdW  Elec       q    Type
REMARK                         _______ _______ _______ _____ _____    ______ ____
ROOT
ATOM      1  C   UNL     1       2.689   1.378   0.158  0.00  0.00    +0.000 C 
ATOM      2  O   UNL     1       3.712   0.734   0.345  0.00  0.00    +0.000 OA
ENDROOT
BRANCH   1   9
ATOM      3  C   UNL     1      -1.111  -0.648  -0.635  0.00  0.00    +0.000 C 
ATOM      4  C   UNL     1      -1.087   0.881  -0.503  0.00  0.00    +0.000 C 
ATOM      5  C   UNL     1       0.155   1.133   0.370  0.00  0.00    +0.000 C 
ATOM      6  C   UNL     1       0.105  -0.062   1.325  0.00  0.00    +0.000 C 
ATOM      7  C   UNL     1       0.108  -1.086   0.195  0.00  0.00    +0.000 C 
ATOM      8  C   UNL     1       1.394  -0.711  -0.564  0.00  0.00    +0.000 C 
ATOM      9  C   UNL     1       1.418   0.832  -0.475  0.00  0.00    +0.000 C 
ENDBRANCH   1   9
BRANCH   1  10
ATOM     10  O   UNL     1       2.542   2.706   0.420  0.00  0.00    +0.000 OA
BRANCH  10  11
ATOM     11  C   UNL     1       3.697   3.370   0.946  0.00  0.00    +0.000 C 
BRANCH  11  12
ATOM     12  C   UNL     1       4.432   4.059  -0.174  0.00  0.00    +0.000 A 
ATOM     13  C   UNL     1       3.949   5.263  -0.706  0.00  0.00    +0.000 A 
ATOM     14  C   UNL     1       4.622   5.892  -1.755  0.00  0.00    +0.000 A 
ATOM     15  C   UNL     1       5.776   5.320  -2.286  0.00  0.00    +0.000 A 
ATOM     16  C   UNL     1       6.257   4.117  -1.773  0.00  0.00    +0.000 A 
ATOM     17  C   UNL     1       5.586   3.486  -0.725  0.00  0.00    +0.000 A 
ENDBRANCH  11  12
ENDBRANCH  10  11
ENDBRANCH   1  10
TORSDOF 4
