REMARK  Name = *****
REMARK  4 active torsions:
REMARK  status: ('A' for Active; 'I' for Inactive)
REMARK    1  A    between atoms: C_1  and  O_2
REMARK    2  A    between atoms: O_2  and  C_3
REMARK    3  A    between atoms: C_8  and  C_9
REMARK    4  A    between atoms: C_10  and  C_11
REMARK                            x       y       z     vdW  Elec       q    Type
REMARK                         _______ _______ _______ _____ _____    ______ ____
ROOT
ATOM      1  C   UNL     1       4.513   1.055  -1.421  0.00  0.00    +0.000 C 
ATOM      2  C   UNL     1       3.683   0.692  -2.413  0.00  0.00    +0.000 C 
ENDROOT
BRANCH   2   3
ATOM      3  C   UNL     1       4.130   0.243  -3.738  0.00  0.00    +0.000 A 
ATOM      4  C   UNL     1       5.273  -0.553  -3.912  0.00  0.00    +0.000 A 
ATOM      5  C   UNL     1       5.648  -0.985  -5.187  0.00  0.00    +0.000 A 
ATOM      6  C   UNL     1       4.875  -0.632  -6.285  0.00  0.00    +0.000 A 
ATOM      7  C   UNL     1       3.731   0.141  -6.134  0.00  0.00    +0.000 A 
ATOM      8  C   UNL     1       3.355   0.573  -4.860  0.00  0.00    +0.000 A 
ATOM      9  F   UNL     1       5.234  -1.048  -7.507  0.00  0.00    +0.000 F 
ENDBRANCH   2   3
BRANCH   1  15
ATOM     10  C   UNL     1       3.183   0.769   0.725  0.00  0.00    +0.000 A 
ATOM     11  C   UNL     1       2.790   1.299   1.961  0.00  0.00    +0.000 A 
ATOM     12  C   UNL     1       3.237   2.558   2.370  0.00  0.00    +0.000 A 
ATOM     13  C   UNL     1       4.084   3.299   1.553  0.00  0.00    +0.000 A 
ATOM     14  C   UNL     1       4.482   2.784   0.320  0.00  0.00    +0.000 A 
ATOM     15  C   UNL     1       4.031   1.526  -0.111  0.00  0.00    +0.000 A 
BRANCH  10  17
ATOM     16  C   UNL     1       1.940  -1.243   1.078  0.00  0.00    +0.000 C 
ATOM     17  O   UNL     1       2.808  -0.468   0.263  0.00  0.00    +0.000 OA
ENDBRANCH  10  17
ENDBRANCH   1  15
TORSDOF 3
