REMARK  Name = *****
REMARK  3 active torsions:
REMARK  status: ('A' for Active; 'I' for Inactive)
REMARK    1  A    between atoms: C_1  and  C_2
REMARK    2  A    between atoms: C_5  and  N_8
REMARK    3  A    between atoms: C_10  and  C_11
REMARK                            x       y       z     vdW  Elec       q    Type
REMARK                         _______ _______ _______ _____ _____    ______ ____
ROOT
ATOM      1  N   UNL     1      -3.206   0.410   0.471  0.00  0.00    +0.000 N 
ATOM      2  C   UNL     1      -4.022   0.385  -0.740  0.00  0.00    +0.000 C 
ATOM      3  C   UNL     1      -3.808   1.675   0.003  0.00  0.00    +0.000 C 
ENDROOT
BRANCH   1   8
ATOM      4  C   UNL     1       2.418  -0.791   0.559  0.00  0.00    +0.000 C 
ATOM      5  C   UNL     1       0.960  -0.444   0.514  0.00  0.00    +0.000 A 
ATOM      6  C   UNL     1       0.148  -0.644   1.632  0.00  0.00    +0.000 A 
ATOM      7  C   UNL     1      -1.217  -0.346   1.575  0.00  0.00    +0.000 A 
ATOM      8  C   UNL     1      -1.813   0.151   0.405  0.00  0.00    +0.000 A 
ATOM      9  C   UNL     1      -0.992   0.324  -0.716  0.00  0.00    +0.000 A 
ATOM     10  C   UNL     1       0.376   0.029  -0.665  0.00  0.00    +0.000 A 
ENDBRANCH   1   8
BRANCH   3  11
ATOM     11  C   UNL     1      -3.006   2.811  -0.575  0.00  0.00    +0.000 A 
ATOM     12  C   UNL     1      -3.214   3.265  -1.892  0.00  0.00    +0.000 A 
ATOM     13  C   UNL     1      -2.484   4.334  -2.418  0.00  0.00    +0.000 A 
ATOM     14  C   UNL     1      -1.539   4.972  -1.626  0.00  0.00    +0.000 A 
ATOM     15  C   UNL     1      -1.317   4.565  -0.319  0.00  0.00    +0.000 A 
ATOM     16  C   UNL     1      -2.052   3.497   0.202  0.00  0.00    +0.000 A 
ATOM     17  F   UNL     1      -0.838   5.996  -2.129  0.00  0.00    +0.000 F 
ENDBRANCH   3  11
TORSDOF 2
