REMARK  Name = *****
REMARK  4 active torsions:
REMARK  status: ('A' for Active; 'I' for Inactive)
REMARK    1  A    between atoms: C_1  and  O_2
REMARK    2  A    between atoms: O_2  and  C_3
REMARK    3  A    between atoms: C_3  and  C_11
REMARK    4  A    between atoms: C_4  and  C_5
REMARK                            x       y       z     vdW  Elec       q    Type
REMARK                         _______ _______ _______ _____ _____    ______ ____
ROOT
ATOM      1  C   UNL     1       3.265   1.246   0.556  0.00  0.00    +0.000 C 
ATOM      2  C   UNL     1       2.526   2.101   1.288  0.00  0.00    +0.000 C 
ENDROOT
BRANCH   1   3
ATOM      3  C   UNL     1       4.740   1.343   0.507  0.00  0.00    +0.000 A 
ATOM      4  C   UNL     1       5.505   1.453   1.681  0.00  0.00    +0.000 A 
ATOM      5  C   UNL     1       6.898   1.526   1.615  0.00  0.00    +0.000 A 
ATOM      6  C   UNL     1       7.529   1.485   0.378  0.00  0.00    +0.000 A 
ATOM      7  C   UNL     1       6.795   1.369  -0.796  0.00  0.00    +0.000 A 
ATOM      8  C   UNL     1       5.402   1.294  -0.730  0.00  0.00    +0.000 A 
ATOM      9  F   UNL     1       8.866   1.555   0.316  0.00  0.00    +0.000 F 
ENDBRANCH   1   3
BRANCH   2  10
ATOM     10  C   UNL     1       1.057   2.127   1.368  0.00  0.00    +0.000 A 
ATOM     11  C   UNL     1       0.452   2.324   2.616  0.00  0.00    +0.000 A 
ATOM     12  C   UNL     1      -0.939   2.390   2.730  0.00  0.00    +0.000 A 
ATOM     13  C   UNL     1      -1.738   2.272   1.595  0.00  0.00    +0.000 A 
ATOM     14  C   UNL     1      -1.147   2.092   0.346  0.00  0.00    +0.000 A 
ATOM     15  C   UNL     1       0.244   2.027   0.232  0.00  0.00    +0.000 A 
ENDBRANCH   2  10
BRANCH   1  17
ATOM     16  C   UNL     1       2.737  -0.992   0.310  0.00  0.00    +0.000 C 
ATOM     17  O   UNL     1       2.700   0.305  -0.285  0.00  0.00    +0.000 OA
ENDBRANCH   1  17
TORSDOF 3
