REMARK  Name = *****
REMARK  6 active torsions:
REMARK  status: ('A' for Active; 'I' for Inactive)
REMARK    1  A    between atoms: C_1  and  C_2
REMARK    2  A    between atoms: C_4  and  C_9
REMARK    3  A    between atoms: C_5  and  C_8
REMARK    4  A    between atoms: C_9  and  C_11
REMARK    5  A    between atoms: C_11  and  C_12
REMARK    6  A    between atoms: C_12  and  C_13
REMARK                            x       y       z     vdW  Elec       q    Type
REMARK                         _______ _______ _______ _____ _____    ______ ____
ROOT
ATOM      1  C   UNL     1      -1.512   2.475  -0.372  0.00  0.00    +0.000 C 
ATOM      2  O   UNL     1      -2.720   2.431  -0.586  0.00  0.00    +0.000 OA
ENDROOT
BRANCH   1   6
ATOM      3  C   UNL     1       2.648  -0.210  -1.147  0.00  0.00    +0.000 C 
ATOM      4  C   UNL     1       1.295  -0.073  -0.514  0.00  0.00    +0.000 A 
ATOM      5  C   UNL     1       0.539   1.093  -0.698  0.00  0.00    +0.000 A 
ATOM      6  C   UNL     1      -0.745   1.215  -0.141  0.00  0.00    +0.000 A 
ATOM      7  C   UNL     1      -1.293   0.153   0.605  0.00  0.00    +0.000 A 
ATOM      8  C   UNL     1      -0.538  -1.020   0.761  0.00  0.00    +0.000 A 
ATOM      9  C   UNL     1       0.740  -1.132   0.207  0.00  0.00    +0.000 A 
ATOM     10  C   UNL     1      -2.663   0.218   1.222  0.00  0.00    +0.000 C 
ENDBRANCH   1   6
BRANCH   1  11
ATOM     11  C   UNL     1      -0.740   3.782  -0.357  0.00  0.00    +0.000 C 
BRANCH  11  12
ATOM     12  C   UNL     1      -1.656   4.959  -0.025  0.00  0.00    +0.000 C 
BRANCH  12  13
ATOM     13  C   UNL     1      -0.883   6.253   0.054  0.00  0.00    +0.000 A 
ATOM     14  C   UNL     1      -0.644   7.007  -1.103  0.00  0.00    +0.000 A 
ATOM     15  C   UNL     1       0.090   8.193  -1.035  0.00  0.00    +0.000 A 
ATOM     16  C   UNL     1       0.590   8.628   0.191  0.00  0.00    +0.000 A 
ATOM     17  C   UNL     1       0.363   7.886   1.348  0.00  0.00    +0.000 A 
ATOM     18  C   UNL     1      -0.370   6.699   1.280  0.00  0.00    +0.000 A 
ATOM     19 CL   UNL     1       1.496  10.088   0.275  0.00  0.00    +0.000 Cl
ENDBRANCH  12  13
ENDBRANCH  11  12
ENDBRANCH   1  11
TORSDOF 4
