REMARK  Name = *****
REMARK  3 active torsions:
REMARK  status: ('A' for Active; 'I' for Inactive)
REMARK    1  A    between atoms: C_4  and  S_16
REMARK    2  A    between atoms: C_5  and  N_7
REMARK    3  A    between atoms: C_8  and  C_9
REMARK                            x       y       z     vdW  Elec       q    Type
REMARK                         _______ _______ _______ _____ _____    ______ ____
ROOT
ATOM      1  N   UNL     1       0.351  -2.427   0.051  0.00  0.00    +0.000 NA
ATOM      2  C   UNL     1       1.590  -2.501   0.425  0.00  0.00    +0.000 C 
ENDROOT
BRANCH   2   3
ATOM      3  C   UNL     1       2.339  -3.771   0.388  0.00  0.00    +0.000 A 
ATOM      4  C   UNL     1       1.726  -4.948  -0.052  0.00  0.00    +0.000 A 
ATOM      5  C   UNL     1       2.462  -6.131  -0.077  0.00  0.00    +0.000 A 
ATOM      6  C   UNL     1       3.796  -6.146   0.332  0.00  0.00    +0.000 A 
ATOM      7  C   UNL     1       4.404  -4.968   0.771  0.00  0.00    +0.000 A 
ATOM      8  C   UNL     1       3.676  -3.777   0.799  0.00  0.00    +0.000 A 
ATOM      9 CL   UNL     1       1.721  -7.587  -0.616  0.00  0.00    +0.000 Cl
ENDBRANCH   2   3
BRANCH   1  14
ATOM     10  C   UNL     1      -1.407   0.513   1.468  0.00  0.00    +0.000 A 
ATOM     11  C   UNL     1      -1.444   1.374   0.374  0.00  0.00    +0.000 A 
ATOM     12  C   UNL     1      -0.892   0.977  -0.846  0.00  0.00    +0.000 A 
ATOM     13  C   UNL     1      -0.296  -0.284  -0.975  0.00  0.00    +0.000 A 
ATOM     14  C   UNL     1      -0.237  -1.148   0.135  0.00  0.00    +0.000 A 
ATOM     15  C   UNL     1      -0.810  -0.743   1.347  0.00  0.00    +0.000 A 
BRANCH  13  16
ATOM     16  S   UNL     1       0.380  -0.752  -2.564  0.00  0.00    +0.000 S 
ATOM     17  H   UNL     1       0.190   0.259  -3.453  0.00  0.00    +0.000 HD
ENDBRANCH  13  16
ENDBRANCH   1  14
TORSDOF 3
