REMARK  Name = *****
REMARK  3 active torsions:
REMARK  status: ('A' for Active; 'I' for Inactive)
REMARK    1  A    between atoms: C_4  and  C_7
REMARK    2  A    between atoms: C_8  and  P_9
REMARK    3  A    between atoms: P_9  and  C_10
REMARK                            x       y       z     vdW  Elec       q    Type
REMARK                         _______ _______ _______ _____ _____    ______ ____
ROOT
ATOM      1  C   UNL     1      -2.870   0.496  -0.154  0.00  0.00    +0.000 C 
ATOM      2  C   UNL     1      -3.772  -0.444  -0.474  0.00  0.00    +0.000 C 
ENDROOT
BRANCH   1   6
ATOM      3  C   UNL     1       1.364  -0.103  -0.002  0.00  0.00    +0.000 A 
ATOM      4  C   UNL     1       0.617  -0.735  -0.994  0.00  0.00    +0.000 A 
ATOM      5  C   UNL     1      -0.767  -0.554  -1.051  0.00  0.00    +0.000 A 
ATOM      6  C   UNL     1      -1.420   0.253  -0.109  0.00  0.00    +0.000 A 
ATOM      7  C   UNL     1      -0.656   0.896   0.873  0.00  0.00    +0.000 A 
ATOM      8  C   UNL     1       0.729   0.715   0.930  0.00  0.00    +0.000 A 
ENDBRANCH   1   6
BRANCH   2   9
ATOM      9  P   UNL     1      -5.539  -0.029  -0.490  0.00  0.00    +0.000 P 
ATOM     10  H   UNL     1      -5.750   1.317  -0.711  0.00  0.00    +0.000 HD
BRANCH   9  11
ATOM     11  C   UNL     1      -6.065  -1.039  -1.902  0.00  0.00    +0.000 A 
ATOM     12  C   UNL     1      -6.345  -2.402  -1.735  0.00  0.00    +0.000 A 
ATOM     13  C   UNL     1      -6.753  -3.183  -2.819  0.00  0.00    +0.000 A 
ATOM     14  C   UNL     1      -6.889  -2.609  -4.081  0.00  0.00    +0.000 A 
ATOM     15  C   UNL     1      -6.618  -1.254  -4.260  0.00  0.00    +0.000 A 
ATOM     16  C   UNL     1      -6.209  -0.472  -3.176  0.00  0.00    +0.000 A 
ENDBRANCH   9  11
ENDBRANCH   2   9
TORSDOF 3
