REMARK  Name = *****
REMARK  5 active torsions:
REMARK  status: ('A' for Active; 'I' for Inactive)
REMARK    1  A    between atoms: C_1  and  O_2
REMARK    2  A    between atoms: O_2  and  C_3
REMARK    3  A    between atoms: C_5  and  S_9
REMARK    4  A    between atoms: S_9  and  C_10
REMARK    5  A    between atoms: C_10  and  C_12
REMARK                            x       y       z     vdW  Elec       q    Type
REMARK                         _______ _______ _______ _____ _____    ______ ____
ROOT
ATOM      1  S   UNL     1       1.412   4.460   2.425  0.00  0.00    +0.000 S 
ENDROOT
BRANCH   1   4
ATOM      2  C   UNL     1       3.024   1.162   0.646  0.00  0.00    +0.000 A 
ATOM      3  C   UNL     1       2.111   2.095   1.140  0.00  0.00    +0.000 A 
ATOM      4  C   UNL     1       2.561   3.250   1.794  0.00  0.00    +0.000 A 
ATOM      5  C   UNL     1       3.934   3.478   1.930  0.00  0.00    +0.000 A 
ATOM      6  C   UNL     1       4.849   2.551   1.433  0.00  0.00    +0.000 A 
ATOM      7  C   UNL     1       4.393   1.397   0.796  0.00  0.00    +0.000 A 
BRANCH   2   9
ATOM      8  C   UNL     1       1.331  -0.316  -0.130  0.00  0.00    +0.000 C 
ATOM      9  O   UNL     1       2.713  -0.004   0.000  0.00  0.00    +0.000 OA
ENDBRANCH   2   9
ENDBRANCH   1   4
BRANCH   1  10
ATOM     10  C   UNL     1       0.550   3.481   3.609  0.00  0.00    +0.000 C 
ATOM     11  O   UNL     1      -0.277   2.653   3.243  0.00  0.00    +0.000 OA
BRANCH  10  12
ATOM     12  C   UNL     1       0.842   3.685   5.061  0.00  0.00    +0.000 A 
ATOM     13  C   UNL     1       1.670   4.704   5.555  0.00  0.00    +0.000 A 
ATOM     14  C   UNL     1       1.893   4.828   6.930  0.00  0.00    +0.000 A 
ATOM     15  C   UNL     1       1.294   3.941   7.822  0.00  0.00    +0.000 A 
ATOM     16  C   UNL     1       0.468   2.927   7.344  0.00  0.00    +0.000 A 
ATOM     17  C   UNL     1       0.242   2.800   5.972  0.00  0.00    +0.000 A 
ENDBRANCH  10  12
ENDBRANCH   1  10
TORSDOF 4
