REMARK  Name = *****
REMARK  3 active torsions:
REMARK  status: ('A' for Active; 'I' for Inactive)
REMARK    1  A    between atoms: N_2  and  C_3
REMARK    2  A    between atoms: C_3  and  C_11
REMARK    3  A    between atoms: C_4  and  C_5
REMARK                            x       y       z     vdW  Elec       q    Type
REMARK                         _______ _______ _______ _____ _____    ______ ____
ROOT
ATOM      1  C   UNL     1       3.781   0.113   0.034  0.00  0.00    +0.000 C 
ATOM      2  C   UNL     1       4.440   1.176   0.526  0.00  0.00    +0.000 C 
ENDROOT
BRANCH   2   3
ATOM      3  C   UNL     1       3.779   2.380   1.028  0.00  0.00    +0.000 A 
ATOM      4  C   UNL     1       3.438   2.482   2.380  0.00  0.00    +0.000 A 
ATOM      5  C   UNL     1       2.803   3.629   2.859  0.00  0.00    +0.000 A 
ATOM      6  C   UNL     1       2.506   4.677   1.988  0.00  0.00    +0.000 A 
ATOM      7  C   UNL     1       2.842   4.579   0.639  0.00  0.00    +0.000 A 
ATOM      8  C   UNL     1       3.477   3.433   0.158  0.00  0.00    +0.000 A 
ENDBRANCH   2   3
BRANCH   1   9
ATOM      9  C   UNL     1       4.531  -1.053  -0.448  0.00  0.00    +0.000 A 
ATOM     10  C   UNL     1       4.896  -2.074   0.438  0.00  0.00    +0.000 A 
ATOM     11  C   UNL     1       5.617  -3.178  -0.021  0.00  0.00    +0.000 A 
ATOM     12  C   UNL     1       5.977  -3.266  -1.365  0.00  0.00    +0.000 A 
ATOM     13  C   UNL     1       5.617  -2.253  -2.253  0.00  0.00    +0.000 A 
ATOM     14  C   UNL     1       4.895  -1.148  -1.797  0.00  0.00    +0.000 A 
ENDBRANCH   1   9
BRANCH   1  16
ATOM     15  C   UNL     1       1.180   0.007  -0.117  0.00  0.00    +0.000 C 
ATOM     16  N   UNL     1       2.349   0.064  -0.045  0.00  0.00    +0.000 NA
ENDBRANCH   1  16
TORSDOF 3
