REMARK  Name = *****
REMARK  6 active torsions:
REMARK  status: ('A' for Active; 'I' for Inactive)
REMARK    1  A    between atoms: C_1  and  C_2
REMARK    2  A    between atoms: C_2  and  C_3
REMARK    3  A    between atoms: C_2  and  C_10
REMARK    4  A    between atoms: C_2  and  P_17
REMARK    5  A    between atoms: C_3  and  C_4
REMARK    6  A    between atoms: C_10  and  C_11
REMARK                            x       y       z     vdW  Elec       q    Type
REMARK                         _______ _______ _______ _____ _____    ______ ____
ROOT
ATOM      1  C   UNL     1       0.891  -0.214  -0.115  0.00  0.00    +0.000 C 
ATOM      2  C   UNL     1       2.440  -0.173  -0.080  0.00  0.00    +0.000 C 
ENDROOT
BRANCH   2   3
ATOM      3  P   UNL     1       2.969  -2.016   0.229  0.00  0.00    +0.000 P 
ATOM      4  H   UNL     1       2.583  -2.792  -0.845  0.00  0.00    +0.000 HD
ATOM      5  H   UNL     1       2.361  -2.483   1.376  0.00  0.00    +0.000 HD
ENDBRANCH   2   3
BRANCH   2   6
ATOM      6  C   UNL     1       3.039   0.236  -1.461  0.00  0.00    +0.000 C 
BRANCH   6   7
ATOM      7  C   UNL     1       2.698   1.611  -1.996  0.00  0.00    +0.000 A 
ATOM      8  C   UNL     1       3.653   2.636  -1.975  0.00  0.00    +0.000 A 
ATOM      9  C   UNL     1       3.355   3.904  -2.478  0.00  0.00    +0.000 A 
ATOM     10  C   UNL     1       2.101   4.158  -3.026  0.00  0.00    +0.000 A 
ATOM     11  C   UNL     1       1.151   3.142  -3.082  0.00  0.00    +0.000 A 
ATOM     12  C   UNL     1       1.451   1.874  -2.578  0.00  0.00    +0.000 A 
ENDBRANCH   6   7
ENDBRANCH   2   6
BRANCH   2  13
ATOM     13  C   UNL     1       2.872   0.716   1.128  0.00  0.00    +0.000 C 
BRANCH  13  14
ATOM     14  C   UNL     1       4.306   1.191   1.259  0.00  0.00    +0.000 A 
ATOM     15  C   UNL     1       4.575   2.570   1.288  0.00  0.00    +0.000 A 
ATOM     16  C   UNL     1       5.879   3.049   1.438  0.00  0.00    +0.000 A 
ATOM     17  C   UNL     1       6.936   2.155   1.578  0.00  0.00    +0.000 A 
ATOM     18  C   UNL     1       6.685   0.786   1.581  0.00  0.00    +0.000 A 
ATOM     19  C   UNL     1       5.379   0.308   1.432  0.00  0.00    +0.000 A 
ENDBRANCH  13  14
ENDBRANCH   2  13
TORSDOF 5
