REMARK  Name = *****
REMARK  4 active torsions:
REMARK  status: ('A' for Active; 'I' for Inactive)
REMARK    1  A    between atoms: C_1  and  C_2
REMARK    2  A    between atoms: N_8  and  C_9
REMARK    3  A    between atoms: C_9  and  C_10
REMARK    4  A    between atoms: C_9  and  C_11
REMARK                            x       y       z     vdW  Elec       q    Type
REMARK                         _______ _______ _______ _____ _____    ______ ____
ROOT
ATOM      1  C   UNL     1       1.026   0.250   0.049  0.00  0.00    +0.000 C 
ATOM      2  C   UNL     1       2.550   0.176  -0.039  0.00  0.00    +0.000 C 
ATOM      3  C   UNL     1       3.120   1.125  -1.103  0.00  0.00    +0.000 C 
ATOM      4  C   UNL     1       2.827   0.678  -2.538  0.00  0.00    +0.000 C 
ATOM      5  C   UNL     1       3.297  -0.755  -2.785  0.00  0.00    +0.000 C 
ATOM      6  C   UNL     1       2.697  -1.729  -1.779  0.00  0.00    +0.000 C 
ATOM      7  C   UNL     1       2.997  -1.245  -0.369  0.00  0.00    +0.000 C 
ATOM      8  N   UNL     1       3.596  -2.071   0.413  0.00  0.00    +0.000 NA
ENDROOT
BRANCH   8   9
ATOM      9  C   UNL     1       4.008  -1.739   1.778  0.00  0.00    +0.000 C 
ATOM     10  C   UNL     1       2.852  -2.018   2.739  0.00  0.00    +0.000 C 
BRANCH   9  11
ATOM     11  C   UNL     1       5.224  -2.554   2.198  0.00  0.00    +0.000 A 
ATOM     12  C   UNL     1       6.207  -1.981   3.021  0.00  0.00    +0.000 A 
ATOM     13  C   UNL     1       7.314  -2.726   3.434  0.00  0.00    +0.000 A 
ATOM     14  C   UNL     1       7.451  -4.054   3.033  0.00  0.00    +0.000 A 
ATOM     15  C   UNL     1       6.481  -4.638   2.222  0.00  0.00    +0.000 A 
ATOM     16  C   UNL     1       5.374  -3.895   1.809  0.00  0.00    +0.000 A 
ENDBRANCH   9  11
ENDBRANCH   8   9
TORSDOF 2
