REMARK  Name = *****
REMARK  3 active torsions:
REMARK  status: ('A' for Active; 'I' for Inactive)
REMARK    1  A    between atoms: C_1  and  C_2
REMARK    2  A    between atoms: C_2  and  C_11
REMARK    3  A    between atoms: N_3  and  C_4
REMARK                            x       y       z     vdW  Elec       q    Type
REMARK                         _______ _______ _______ _____ _____    ______ ____
ROOT
ATOM      1  C   UNL     1       1.177  -0.882   0.496  0.00  0.00    +0.000 C 
ATOM      2  C   UNL     1       2.529  -0.262   0.186  0.00  0.00    +0.000 C 
ATOM      3  N   UNL     1       3.107  -0.303  -0.983  0.00  0.00    +0.000 NA
ENDROOT
BRANCH   3   4
ATOM      4  C   UNL     1       2.496  -0.938  -2.066  0.00  0.00    +0.000 A 
ATOM      5  C   UNL     1       1.609  -0.237  -2.889  0.00  0.00    +0.000 A 
ATOM      6  C   UNL     1       1.019  -0.865  -3.989  0.00  0.00    +0.000 A 
ATOM      7  C   UNL     1       1.330  -2.193  -4.274  0.00  0.00    +0.000 A 
ATOM      8  C   UNL     1       2.230  -2.895  -3.473  0.00  0.00    +0.000 A 
ATOM      9  C   UNL     1       2.817  -2.263  -2.374  0.00  0.00    +0.000 A 
ATOM     10 CL   UNL     1       0.605  -2.969  -5.627  0.00  0.00    +0.000 Cl
ENDBRANCH   3   4
BRANCH   2  11
ATOM     11  C   UNL     1       3.243   0.454   1.243  0.00  0.00    +0.000 A 
ATOM     12  C   UNL     1       4.507   1.018   1.167  0.00  0.00    +0.000 A 
ATOM     13  C   UNL     1       4.908   1.652   2.378  0.00  0.00    +0.000 A 
ATOM     14  C   UNL     1       3.937   1.560   3.348  0.00  0.00    +0.000 A 
ATOM     15  S   UNL     1       2.558   0.717   2.794  0.00  0.00    +0.000 S 
ENDBRANCH   2  11
TORSDOF 2
