REMARK  Name = *****
REMARK  4 active torsions:
REMARK  status: ('A' for Active; 'I' for Inactive)
REMARK    1  A    between atoms: C_1  and  C_2
REMARK    2  A    between atoms: C_5  and  C_8
REMARK    3  A    between atoms: N_9  and  C_10
REMARK    4  A    between atoms: C_15  and  C_16
REMARK                            x       y       z     vdW  Elec       q    Type
REMARK                         _______ _______ _______ _____ _____    ______ ____
ROOT
ATOM      1  C   UNL     1      -5.434   0.920   0.159  0.00  0.00    +0.000 A 
ATOM      2  C   UNL     1      -6.170  -0.122   0.741  0.00  0.00    +0.000 A 
ATOM      3  C   UNL     1      -7.549  -0.216   0.553  0.00  0.00    +0.000 A 
ATOM      4  C   UNL     1      -8.209   0.741  -0.210  0.00  0.00    +0.000 A 
ATOM      5  C   UNL     1      -7.490   1.793  -0.778  0.00  0.00    +0.000 A 
ATOM      6  C   UNL     1      -6.098   1.897  -0.595  0.00  0.00    +0.000 A 
ENDROOT
BRANCH   6   7
ATOM      7  C   UNL     1      -5.332   3.041  -1.201  0.00  0.00    +0.000 C 
ATOM      8  F   UNL     1      -4.361   2.637  -2.071  0.00  0.00    +0.000 F 
ATOM      9  F   UNL     1      -6.128   3.879  -1.933  0.00  0.00    +0.000 F 
ATOM     10  F   UNL     1      -4.722   3.845  -0.286  0.00  0.00    +0.000 F 
ENDBRANCH   6   7
BRANCH   1  12
ATOM     11  C   UNL     1      -3.304   0.235  -0.350  0.00  0.00    +0.000 C 
ATOM     12  N   UNL     1      -4.053   0.992   0.390  0.00  0.00    +0.000 NA
BRANCH  11  17
ATOM     13  C   UNL     1       2.449   0.096   0.150  0.00  0.00    +0.000 C 
ATOM     14  C   UNL     1       0.957   0.155   0.004  0.00  0.00    +0.000 A 
ATOM     15  C   UNL     1       0.201   1.008   0.818  0.00  0.00    +0.000 A 
ATOM     16  C   UNL     1      -1.191   1.044   0.707  0.00  0.00    +0.000 A 
ATOM     17  C   UNL     1      -1.835   0.216  -0.214  0.00  0.00    +0.000 A 
ATOM     18  C   UNL     1      -1.094  -0.649  -1.022  0.00  0.00    +0.000 A 
ATOM     19  C   UNL     1       0.299  -0.682  -0.907  0.00  0.00    +0.000 A 
ENDBRANCH  11  17
ENDBRANCH   1  12
TORSDOF 3
