REMARK  Name = *****
REMARK  4 active torsions:
REMARK  status: ('A' for Active; 'I' for Inactive)
REMARK    1  A    between atoms: C_1  and  C_2
REMARK    2  A    between atoms: C_5  and  C_8
REMARK    3  A    between atoms: C_8  and  C_17
REMARK    4  A    between atoms: C_9  and  C_10
REMARK                            x       y       z     vdW  Elec       q    Type
REMARK                         _______ _______ _______ _____ _____    ______ ____
ROOT
ATOM      1  C   UNL     1      -3.310   0.106  -0.053  0.00  0.00    +0.000 C 
ATOM      2  C   UNL     1      -4.081  -0.998  -0.133  0.00  0.00    +0.000 C 
ENDROOT
BRANCH   1   7
ATOM      3  C   UNL     1       2.465  -0.465  -0.074  0.00  0.00    +0.000 C 
ATOM      4  C   UNL     1       0.969  -0.345  -0.054  0.00  0.00    +0.000 A 
ATOM      5  C   UNL     1       0.203  -0.866  -1.101  0.00  0.00    +0.000 A 
ATOM      6  C   UNL     1      -1.188  -0.725  -1.101  0.00  0.00    +0.000 A 
ATOM      7  C   UNL     1      -1.839  -0.053  -0.055  0.00  0.00    +0.000 A 
ATOM      8  C   UNL     1      -1.064   0.486   0.982  0.00  0.00    +0.000 A 
ATOM      9  C   UNL     1       0.327   0.344   0.980  0.00  0.00    +0.000 A 
ENDBRANCH   1   7
BRANCH   2  10
ATOM     10  C   UNL     1      -5.550  -1.035  -0.126  0.00  0.00    +0.000 A 
ATOM     11  C   UNL     1      -6.308  -0.366  -1.096  0.00  0.00    +0.000 A 
ATOM     12  C   UNL     1      -7.704  -0.441  -1.077  0.00  0.00    +0.000 A 
ATOM     13  C   UNL     1      -8.344  -1.195  -0.096  0.00  0.00    +0.000 A 
ATOM     14  C   UNL     1      -7.601  -1.877   0.864  0.00  0.00    +0.000 A 
ATOM     15  C   UNL     1      -6.206  -1.801   0.847  0.00  0.00    +0.000 A 
ATOM     16 CL   UNL     1     -10.061  -1.291  -0.076  0.00  0.00    +0.000 Cl
ENDBRANCH   2  10
BRANCH   1  17
ATOM     17  C   UNL     1      -3.860   1.421   0.083  0.00  0.00    +0.000 C 
ATOM     18  N   UNL     1      -4.298   2.490   0.190  0.00  0.00    +0.000 NA
ENDBRANCH   1  17
TORSDOF 3
