REMARK  Name = *****
REMARK  0 active torsions:
REMARK  status: ('A' for Active; 'I' for Inactive)
REMARK                            x       y       z     vdW  Elec       q    Type
REMARK                         _______ _______ _______ _____ _____    ______ ____
ROOT
ATOM      1  C   UNL     1      -0.176   2.411  -0.687  0.00  0.00    +0.000 C 
ATOM      2  C   UNL     1       0.613   1.884   0.515  0.00  0.00    +0.000 C 
ATOM      3  C   UNL     1       1.586   0.736   0.303  0.00  0.00    +0.000 A 
ATOM      4  C   UNL     1       2.698   0.715   1.177  0.00  0.00    +0.000 A 
ATOM      5  C   UNL     1       3.672  -0.281   1.108  0.00  0.00    +0.000 A 
ATOM      6  C   UNL     1       3.556  -1.292   0.166  0.00  0.00    +0.000 A 
ATOM      7  C   UNL     1       2.459  -1.307  -0.694  0.00  0.00    +0.000 A 
ATOM      8  C   UNL     1       1.461  -0.315  -0.630  0.00  0.00    +0.000 A 
ATOM      9  S   UNL     1       0.125  -0.523  -1.806  0.00  0.00    +0.000 S 
ATOM     10  C   UNL     1      -1.270  -0.599  -0.701  0.00  0.00    +0.000 A 
ATOM     11  C   UNL     1      -1.668  -1.865  -0.242  0.00  0.00    +0.000 A 
ATOM     12  C   UNL     1      -2.766  -2.006   0.605  0.00  0.00    +0.000 A 
ATOM     13  C   UNL     1      -3.484  -0.882   0.994  0.00  0.00    +0.000 A 
ATOM     14  C   UNL     1      -3.098   0.380   0.541  0.00  0.00    +0.000 A 
ATOM     15  C   UNL     1      -1.982   0.545  -0.303  0.00  0.00    +0.000 A 
ATOM     16  C   UNL     1      -1.641   1.947  -0.759  0.00  0.00    +0.000 C 
ENDROOT
TORSDOF 0
