REMARK  Name = *****
REMARK  3 active torsions:
REMARK  status: ('A' for Active; 'I' for Inactive)
REMARK    1  A    between atoms: C_1  and  C_2
REMARK    2  A    between atoms: C_5  and  C_7
REMARK    3  A    between atoms: C_8  and  C_9
REMARK                            x       y       z     vdW  Elec       q    Type
REMARK                         _______ _______ _______ _____ _____    ______ ____
ROOT
ATOM      1  C   UNL     1       5.708  -1.843   0.053  0.00  0.00    +0.000 C 
ATOM      2  C   UNL     1       6.688  -2.538   0.037  0.00  0.00    +0.000 C 
ENDROOT
BRANCH   1   7
ATOM      3  C   UNL     1       0.860   0.192   0.094  0.00  0.00    +0.000 C 
ATOM      4  C   UNL     1       2.323  -0.056   0.089  0.00  0.00    +0.000 A 
ATOM      5  C   UNL     1       3.369   0.843   0.109  0.00  0.00    +0.000 A 
ATOM      6  N   UNL     1       4.635   0.292   0.098  0.00  0.00    +0.000 NA
ATOM      7  C   UNL     1       4.545  -1.020   0.070  0.00  0.00    +0.000 A 
ATOM      8  S   UNL     1       2.948  -1.653   0.057  0.00  0.00    +0.000 S 
ENDBRANCH   1   7
BRANCH   2   9
ATOM      9  C   UNL     1       7.855  -3.363   0.016  0.00  0.00    +0.000 A 
ATOM     10  C   UNL     1       9.121  -2.781  -0.087  0.00  0.00    +0.000 A 
ATOM     11  C   UNL     1      10.261  -3.587  -0.108  0.00  0.00    +0.000 A 
ATOM     12  C   UNL     1      10.136  -4.974  -0.026  0.00  0.00    +0.000 A 
ATOM     13  C   UNL     1       8.873  -5.557   0.077  0.00  0.00    +0.000 A 
ATOM     14  C   UNL     1       7.732  -4.752   0.098  0.00  0.00    +0.000 A 
ENDBRANCH   2   9
TORSDOF 2
