REMARK  Name = *****
REMARK  3 active torsions:
REMARK  status: ('A' for Active; 'I' for Inactive)
REMARK    1  A    between atoms: C_4  and  C_7
REMARK    2  A    between atoms: C_7  and  C_15
REMARK    3  A    between atoms: N_8  and  C_9
REMARK                            x       y       z     vdW  Elec       q    Type
REMARK                         _______ _______ _______ _____ _____    ______ ____
ROOT
ATOM      1  C   UNL     1      -2.896   0.515  -0.183  0.00  0.00    +0.000 C 
ATOM      2  N   UNL     1      -3.330   1.744  -0.162  0.00  0.00    +0.000 NA
ENDROOT
BRANCH   1   6
ATOM      3  C   UNL     1       1.197  -0.666  -0.303  0.00  0.00    +0.000 A 
ATOM      4  C   UNL     1       0.484  -0.756   0.894  0.00  0.00    +0.000 A 
ATOM      5  C   UNL     1      -0.855  -0.369   0.939  0.00  0.00    +0.000 A 
ATOM      6  C   UNL     1      -1.471   0.106  -0.223  0.00  0.00    +0.000 A 
ATOM      7  C   UNL     1      -0.762   0.200  -1.423  0.00  0.00    +0.000 A 
ATOM      8  C   UNL     1       0.577  -0.188  -1.459  0.00  0.00    +0.000 A 
ENDBRANCH   1   6
BRANCH   2   9
ATOM      9  C   UNL     1      -2.425   2.815  -0.154  0.00  0.00    +0.000 A 
ATOM     10  C   UNL     1      -2.187   3.531  -1.331  0.00  0.00    +0.000 A 
ATOM     11  C   UNL     1      -1.305   4.613  -1.336  0.00  0.00    +0.000 A 
ATOM     12  C   UNL     1      -0.666   4.996  -0.157  0.00  0.00    +0.000 A 
ATOM     13  C   UNL     1      -0.917   4.304   1.027  0.00  0.00    +0.000 A 
ATOM     14  C   UNL     1      -1.801   3.222   1.028  0.00  0.00    +0.000 A 
ENDBRANCH   2   9
BRANCH   1  15
ATOM     15  C   UNL     1      -3.911  -0.565  -0.173  0.00  0.00    +0.000 C 
ATOM     16  C   UNL     1      -3.618  -1.824  -0.269  0.00  0.00    +0.000 C 
ATOM     17  O   UNL     1      -3.366  -2.969  -0.350  0.00  0.00    +0.000 OA
ENDBRANCH   1  15
TORSDOF 3
