REMARK  Name = *****
REMARK  4 active torsions:
REMARK  status: ('A' for Active; 'I' for Inactive)
REMARK    1  A    between atoms: C_4  and  C_7
REMARK    2  A    between atoms: C_7  and  O_8
REMARK    3  A    between atoms: O_8  and  C_9
REMARK    4  A    between atoms: C_14  and  C_15
REMARK                            x       y       z     vdW  Elec       q    Type
REMARK                         _______ _______ _______ _____ _____    ______ ____
ROOT
ATOM      1  C   UNL     1      -4.953  -0.628  -0.374  0.00  0.00    +0.000 A 
ATOM      2  C   UNL     1      -5.697   0.517  -0.673  0.00  0.00    +0.000 A 
ATOM      3  C   UNL     1      -7.026   0.405  -1.089  0.00  0.00    +0.000 A 
ATOM      4  C   UNL     1      -7.620  -0.848  -1.205  0.00  0.00    +0.000 A 
ATOM      5  C   UNL     1      -6.887  -1.993  -0.898  0.00  0.00    +0.000 A 
ATOM      6  C   UNL     1      -5.552  -1.895  -0.472  0.00  0.00    +0.000 A 
ENDROOT
BRANCH   6   7
ATOM      7  C   UNL     1      -4.761  -3.139  -0.163  0.00  0.00    +0.000 C 
ATOM      8  F   UNL     1      -5.541  -4.257  -0.060  0.00  0.00    +0.000 F 
ATOM      9  F   UNL     1      -3.843  -3.429  -1.128  0.00  0.00    +0.000 F 
ENDBRANCH   6   7
BRANCH   1  10
ATOM     10  O   UNL     1      -3.653  -0.618   0.056  0.00  0.00    +0.000 OA
BRANCH  10  11
ATOM     11  C   UNL     1      -2.886   0.554  -0.227  0.00  0.00    +0.000 C 
BRANCH  11  15
ATOM     12  C   UNL     1       1.297  -0.287   0.434  0.00  0.00    +0.000 A 
ATOM     13  C   UNL     1       0.527  -1.148  -0.345  0.00  0.00    +0.000 A 
ATOM     14  C   UNL     1      -0.826  -0.880  -0.553  0.00  0.00    +0.000 A 
ATOM     15  C   UNL     1      -1.427   0.250   0.024  0.00  0.00    +0.000 A 
ATOM     16  C   UNL     1      -0.640   1.113   0.799  0.00  0.00    +0.000 A 
ATOM     17  C   UNL     1       0.715   0.843   1.005  0.00  0.00    +0.000 A 
ENDBRANCH  11  15
ENDBRANCH  10  11
ENDBRANCH   1  10
TORSDOF 4
