REMARK  Name = *****
REMARK  4 active torsions:
REMARK  status: ('A' for Active; 'I' for Inactive)
REMARK    1  A    between atoms: C_4  and  C_7
REMARK    2  A    between atoms: C_7  and  C_8
REMARK    3  A    between atoms: C_8  and  O_10
REMARK    4  A    between atoms: O_10  and  C_11
REMARK                            x       y       z     vdW  Elec       q    Type
REMARK                         _______ _______ _______ _____ _____    ______ ____
ROOT
ATOM      1  C   UNL     1      -3.782  -0.120  -0.399  0.00  0.00    +0.000 C 
ATOM      2  O   UNL     1      -3.567  -1.111  -1.084  0.00  0.00    +0.000 OA
ENDROOT
BRANCH   1   3
ATOM      3  C   UNL     1      -2.742   0.813   0.186  0.00  0.00    +0.000 C 
BRANCH   3   7
ATOM      4  C   UNL     1       1.278  -0.753   0.114  0.00  0.00    +0.000 A 
ATOM      5  C   UNL     1       0.725  -0.197  -1.038  0.00  0.00    +0.000 A 
ATOM      6  C   UNL     1      -0.574   0.311  -1.015  0.00  0.00    +0.000 A 
ATOM      7  C   UNL     1      -1.334   0.269   0.162  0.00  0.00    +0.000 A 
ATOM      8  C   UNL     1      -0.772  -0.302   1.313  0.00  0.00    +0.000 A 
ATOM      9  C   UNL     1       0.530  -0.807   1.289  0.00  0.00    +0.000 A 
ENDBRANCH   3   7
ENDBRANCH   1   3
BRANCH   1  10
ATOM     10  O   UNL     1      -5.040   0.387  -0.068  0.00  0.00    +0.000 OA
BRANCH  10  11
ATOM     11  C   UNL     1      -6.081  -0.439  -0.499  0.00  0.00    +0.000 A 
ATOM     12  C   UNL     1      -6.689  -0.149  -1.721  0.00  0.00    +0.000 A 
ATOM     13  C   UNL     1      -7.755  -0.936  -2.158  0.00  0.00    +0.000 A 
ATOM     14  C   UNL     1      -8.214  -1.994  -1.370  0.00  0.00    +0.000 A 
ATOM     15  C   UNL     1      -7.613  -2.266  -0.137  0.00  0.00    +0.000 A 
ATOM     16  C   UNL     1      -6.547  -1.483   0.306  0.00  0.00    +0.000 A 
ATOM     17 CL   UNL     1      -5.845  -1.815   1.846  0.00  0.00    +0.000 Cl
ENDBRANCH  10  11
ENDBRANCH   1  10
TORSDOF 4
