REMARK  Name = *****
REMARK  5 active torsions:
REMARK  status: ('A' for Active; 'I' for Inactive)
REMARK    1  A    between atoms: C_1  and  C_2
REMARK    2  A    between atoms: C_5  and  C_8
REMARK    3  A    between atoms: C_8  and  O_10
REMARK    4  A    between atoms: O_10  and  C_11
REMARK    5  A    between atoms: C_11  and  C_12
REMARK                            x       y       z     vdW  Elec       q    Type
REMARK                         _______ _______ _______ _____ _____    ______ ____
ROOT
ATOM      1  C   UNL     1      -3.452  -0.053   0.210  0.00  0.00    +0.000 C 
ATOM      2  O   UNL     1      -4.055  -1.036   0.610  0.00  0.00    +0.000 OA
ENDROOT
BRANCH   1   7
ATOM      3  C   UNL     1       2.346   0.120   0.077  0.00  0.00    +0.000 C 
ATOM      4  C   UNL     1       0.846   0.081   0.078  0.00  0.00    +0.000 A 
ATOM      5  C   UNL     1       0.106   1.213  -0.282  0.00  0.00    +0.000 A 
ATOM      6  C   UNL     1      -1.291   1.189  -0.250  0.00  0.00    +0.000 A 
ATOM      7  C   UNL     1      -1.967   0.030   0.155  0.00  0.00    +0.000 A 
ATOM      8  C   UNL     1      -1.227  -1.098   0.533  0.00  0.00    +0.000 A 
ATOM      9  C   UNL     1       0.170  -1.070   0.499  0.00  0.00    +0.000 A 
ENDBRANCH   1   7
BRANCH   1  10
ATOM     10  O   UNL     1      -4.009   1.095  -0.245  0.00  0.00    +0.000 OA
BRANCH  10  11
ATOM     11  C   UNL     1      -5.440   1.147  -0.213  0.00  0.00    +0.000 C 
BRANCH  11  12
ATOM     12  C   UNL     1      -5.885   1.884   1.024  0.00  0.00    +0.000 A 
ATOM     13  C   UNL     1      -5.943   3.285   1.037  0.00  0.00    +0.000 A 
ATOM     14  C   UNL     1      -6.334   3.966   2.192  0.00  0.00    +0.000 A 
ATOM     15  C   UNL     1      -6.659   3.250   3.342  0.00  0.00    +0.000 A 
ATOM     16  C   UNL     1      -6.594   1.858   3.348  0.00  0.00    +0.000 A 
ATOM     17  C   UNL     1      -6.204   1.177   2.193  0.00  0.00    +0.000 A 
ATOM     18 CL   UNL     1      -7.139   4.090   4.765  0.00  0.00    +0.000 Cl
ENDBRANCH  11  12
ENDBRANCH  10  11
ENDBRANCH   1  10
TORSDOF 4
