REMARK  Name = *****
REMARK  3 active torsions:
REMARK  status: ('A' for Active; 'I' for Inactive)
REMARK    1  A    between atoms: C_1  and  C_2
REMARK    2  A    between atoms: C_5  and  N_8
REMARK    3  A    between atoms: C_10  and  C_11
REMARK                            x       y       z     vdW  Elec       q    Type
REMARK                         _______ _______ _______ _____ _____    ______ ____
ROOT
ATOM      1  N   UNL     1      -3.219   0.424   0.474  0.00  0.00    +0.000 N 
ATOM      2  C   UNL     1      -4.030   0.429  -0.741  0.00  0.00    +0.000 C 
ATOM      3  C   UNL     1      -3.825   1.699   0.037  0.00  0.00    +0.000 C 
ENDROOT
BRANCH   1   8
ATOM      4  C   UNL     1       2.414  -0.729   0.572  0.00  0.00    +0.000 C 
ATOM      5  C   UNL     1       0.953  -0.396   0.521  0.00  0.00    +0.000 A 
ATOM      6  C   UNL     1       0.138  -0.621   1.632  0.00  0.00    +0.000 A 
ATOM      7  C   UNL     1      -1.230  -0.335   1.574  0.00  0.00    +0.000 A 
ATOM      8  C   UNL     1      -1.824   0.177   0.410  0.00  0.00    +0.000 A 
ATOM      9  C   UNL     1      -1.000   0.376  -0.705  0.00  0.00    +0.000 A 
ATOM     10  C   UNL     1       0.371   0.093  -0.652  0.00  0.00    +0.000 A 
ENDBRANCH   1   8
BRANCH   3  11
ATOM     11  C   UNL     1      -3.022   2.853  -0.504  0.00  0.00    +0.000 A 
ATOM     12  C   UNL     1      -3.218   3.340  -1.809  0.00  0.00    +0.000 A 
ATOM     13  C   UNL     1      -2.484   4.425  -2.301  0.00  0.00    +0.000 A 
ATOM     14  C   UNL     1      -1.544   5.050  -1.487  0.00  0.00    +0.000 A 
ATOM     15  C   UNL     1      -1.339   4.604  -0.186  0.00  0.00    +0.000 A 
ATOM     16  C   UNL     1      -2.078   3.521   0.299  0.00  0.00    +0.000 A 
ATOM     17 CL   UNL     1      -0.639   6.381  -2.091  0.00  0.00    +0.000 Cl
ENDBRANCH   3  11
TORSDOF 2
