REMARK  Name = *****
REMARK  7 active torsions:
REMARK  status: ('A' for Active; 'I' for Inactive)
REMARK    1  A    between atoms: C_1  and  C_2
REMARK    2  A    between atoms: C_3  and  C_10
REMARK    3  A    between atoms: C_4  and  C_7
REMARK    4  A    between atoms: C_7  and  C_9
REMARK    5  A    between atoms: C_10  and  O_11
REMARK    6  A    between atoms: O_11  and  C_12
REMARK    7  A    between atoms: C_15  and  C_18
REMARK                            x       y       z     vdW  Elec       q    Type
REMARK                         _______ _______ _______ _____ _____    ______ ____
ROOT
ATOM      1  C   UNL     1      -2.126  -0.524  -1.011  0.00  0.00    +0.000 C 
ATOM      2  C   UNL     1      -0.785  -0.129  -0.500  0.00  0.00    +0.000 C 
ATOM      3  C   UNL     1      -0.294   1.099  -0.252  0.00  0.00    +0.000 C 
ATOM      4  C   UNL     1       1.133   1.040   0.244  0.00  0.00    +0.000 C 
ATOM      5  C   UNL     1       1.308  -0.451   0.577  0.00  0.00    +0.000 C 
ATOM      6  C   UNL     1       0.228  -1.195  -0.207  0.00  0.00    +0.000 C 
ENDROOT
BRANCH   4   7
ATOM      7  C   UNL     1       2.139   1.573  -0.765  0.00  0.00    +0.000 C 
ATOM      8  C   UNL     1       2.912   2.633  -0.470  0.00  0.00    +0.000 C 
ATOM      9  C   UNL     1       2.249   0.897  -2.106  0.00  0.00    +0.000 C 
ENDBRANCH   4   7
BRANCH   3  10
ATOM     10  C   UNL     1      -0.961   2.432  -0.406  0.00  0.00    +0.000 C 
BRANCH  10  11
ATOM     11  O   UNL     1      -1.030   3.043   0.882  0.00  0.00    +0.000 OA
BRANCH  11  12
ATOM     12  C   UNL     1      -1.589   4.289   0.953  0.00  0.00    +0.000 A 
ATOM     13  C   UNL     1      -2.076   5.036  -0.118  0.00  0.00    +0.000 A 
ATOM     14  C   UNL     1      -2.627   6.304   0.100  0.00  0.00    +0.000 A 
ATOM     15  C   UNL     1      -2.686   6.845   1.389  0.00  0.00    +0.000 A 
ATOM     16  C   UNL     1      -2.209   6.087   2.462  0.00  0.00    +0.000 A 
ATOM     17  C   UNL     1      -1.660   4.822   2.242  0.00  0.00    +0.000 A 
ATOM     18  C   UNL     1      -3.311   8.188   1.623  0.00  0.00    +0.000 C 
ENDBRANCH  11  12
ENDBRANCH  10  11
ENDBRANCH   3  10
TORSDOF 4
