REMARK  Name = *****
REMARK  4 active torsions:
REMARK  status: ('A' for Active; 'I' for Inactive)
REMARK    1  A    between atoms: C_1  and  C_2
REMARK    2  A    between atoms: C_5  and  C_8
REMARK    3  A    between atoms: C_8  and  N_9
REMARK    4  A    between atoms: C_10  and  C_11
REMARK                            x       y       z     vdW  Elec       q    Type
REMARK                         _______ _______ _______ _____ _____    ______ ____
ROOT
ATOM      1  N   UNL     1      -3.861   1.400  -0.056  0.00  0.00    +0.000 NA
ATOM      2  C   UNL     1      -5.134   1.608  -0.086  0.00  0.00    +0.000 C 
ATOM      3 CL   UNL     1      -6.254   0.278  -0.098  0.00  0.00    +0.000 Cl
ENDROOT
BRANCH   2   4
ATOM      4  C   UNL     1      -5.625   3.027  -0.112  0.00  0.00    +0.000 A 
ATOM      5  C   UNL     1      -4.694   4.078  -0.095  0.00  0.00    +0.000 A 
ATOM      6  C   UNL     1      -5.124   5.407  -0.119  0.00  0.00    +0.000 A 
ATOM      7  C   UNL     1      -6.485   5.698  -0.159  0.00  0.00    +0.000 A 
ATOM      8  C   UNL     1      -7.418   4.663  -0.175  0.00  0.00    +0.000 A 
ATOM      9  C   UNL     1      -6.992   3.331  -0.151  0.00  0.00    +0.000 A 
ENDBRANCH   2   4
BRANCH   1  10
ATOM     10  C   UNL     1      -3.327   0.042  -0.026  0.00  0.00    +0.000 C 
BRANCH  10  15
ATOM     11  C   UNL     1       2.505   0.087   0.036  0.00  0.00    +0.000 C 
ATOM     12  C   UNL     1       1.005   0.066   0.029  0.00  0.00    +0.000 A 
ATOM     13  C   UNL     1       0.288  -0.528   1.073  0.00  0.00    +0.000 A 
ATOM     14  C   UNL     1      -1.110  -0.534   1.060  0.00  0.00    +0.000 A 
ATOM     15  C   UNL     1      -1.815   0.057   0.004  0.00  0.00    +0.000 A 
ATOM     16  C   UNL     1      -1.093   0.653  -1.039  0.00  0.00    +0.000 A 
ATOM     17  C   UNL     1       0.303   0.659  -1.026  0.00  0.00    +0.000 A 
ENDBRANCH  10  15
ENDBRANCH   1  10
TORSDOF 3
