REMARK  Name = *****
REMARK  7 active torsions:
REMARK  status: ('A' for Active; 'I' for Inactive)
REMARK    1  A    between atoms: C_1  and  C_2
REMARK    2  A    between atoms: C_5  and  S_8
REMARK    3  A    between atoms: S_8  and  N_10
REMARK    4  A    between atoms: N_10  and  C_11
REMARK    5  A    between atoms: N_10  and  C_12
REMARK    6  A    between atoms: C_15  and  O_18
REMARK    7  A    between atoms: O_18  and  C_19
REMARK                            x       y       z     vdW  Elec       q    Type
REMARK                         _______ _______ _______ _____ _____    ______ ____
ROOT
ATOM      1  N   UNL     1      -4.082   1.325  -0.974  0.00  0.00    +0.000 N 
ATOM      2  C   UNL     1      -3.320   2.433  -1.549  0.00  0.00    +0.000 C 
ENDROOT
BRANCH   1   3
ATOM      3  C   UNL     1      -5.403   1.634  -0.570  0.00  0.00    +0.000 A 
ATOM      4  C   UNL     1      -5.695   2.866   0.046  0.00  0.00    +0.000 A 
ATOM      5  C   UNL     1      -6.994   3.210   0.453  0.00  0.00    +0.000 A 
ATOM      6  C   UNL     1      -8.045   2.321   0.258  0.00  0.00    +0.000 A 
ATOM      7  C   UNL     1      -7.779   1.092  -0.339  0.00  0.00    +0.000 A 
ATOM      8  C   UNL     1      -6.480   0.753  -0.742  0.00  0.00    +0.000 A 
BRANCH   6   9
ATOM      9  O   UNL     1      -9.352   2.526   0.600  0.00  0.00    +0.000 OA
ATOM     10  C   UNL     1      -9.666   3.762   1.229  0.00  0.00    +0.000 C 
ENDBRANCH   6   9
ENDBRANCH   1   3
BRANCH   1  11
ATOM     11  S   UNL     1      -3.512  -0.243  -1.216  0.00  0.00    +0.000 S 
ATOM     12  O   UNL     1      -4.252  -1.236  -0.370  0.00  0.00    +0.000 OA
BRANCH  11  17
ATOM     13  C   UNL     1       1.825   0.614   1.657  0.00  0.00    +0.000 C 
ATOM     14  C   UNL     1       0.513   0.437   0.951  0.00  0.00    +0.000 A 
ATOM     15  C   UNL     1       0.473   0.247  -0.436  0.00  0.00    +0.000 A 
ATOM     16  C   UNL     1      -0.745   0.043  -1.089  0.00  0.00    +0.000 A 
ATOM     17  C   UNL     1      -1.938   0.024  -0.359  0.00  0.00    +0.000 A 
ATOM     18  C   UNL     1      -1.900   0.187   1.029  0.00  0.00    +0.000 A 
ATOM     19  C   UNL     1      -0.682   0.391   1.681  0.00  0.00    +0.000 A 
ENDBRANCH  11  17
ENDBRANCH   1  11
TORSDOF 4
