REMARK  Name = *****
REMARK  4 active torsions:
REMARK  status: ('A' for Active; 'I' for Inactive)
REMARK    1  A    between atoms: C_1  and  C_2
REMARK    2  A    between atoms: C_7  and  O_8
REMARK    3  A    between atoms: O_8  and  C_9
REMARK    4  A    between atoms: C_9  and  C_11
REMARK                            x       y       z     vdW  Elec       q    Type
REMARK                         _______ _______ _______ _____ _____    ______ ____
ROOT
ATOM      1  C   UNL     1       2.031  -2.621  -0.196  0.00  0.00    +0.000 C 
ATOM      2  O   UNL     1       2.247  -2.336   0.972  0.00  0.00    +0.000 OA
ENDROOT
BRANCH   1   3
ATOM      3  C   UNL     1       2.742  -3.713  -0.890  0.00  0.00    +0.000 A 
ATOM      4  C   UNL     1       4.050  -4.018  -0.489  0.00  0.00    +0.000 A 
ATOM      5  C   UNL     1       4.754  -5.046  -1.122  0.00  0.00    +0.000 A 
ATOM      6  C   UNL     1       4.152  -5.778  -2.147  0.00  0.00    +0.000 A 
ATOM      7  C   UNL     1       2.844  -5.488  -2.534  0.00  0.00    +0.000 A 
ATOM      8  C   UNL     1       2.144  -4.461  -1.904  0.00  0.00    +0.000 A 
ATOM      9  F   UNL     1       0.877  -4.236  -2.280  0.00  0.00    +0.000 F 
ENDBRANCH   1   3
BRANCH   1  10
ATOM     10  O   UNL     1       1.215  -1.966  -1.095  0.00  0.00    +0.000 OA
BRANCH  10  17
ATOM     11  C   UNL     1       2.472   0.649  -0.889  0.00  0.00    +0.000 C 
ATOM     12  C   UNL     1       1.063   0.377  -0.456  0.00  0.00    +0.000 A 
ATOM     13  C   UNL     1       0.285   1.405   0.094  0.00  0.00    +0.000 A 
ATOM     14  C   UNL     1      -1.025   1.161   0.517  0.00  0.00    +0.000 A 
ATOM     15  C   UNL     1      -1.574  -0.116   0.402  0.00  0.00    +0.000 A 
ATOM     16  C   UNL     1      -0.812  -1.154  -0.127  0.00  0.00    +0.000 A 
ATOM     17  C   UNL     1       0.502  -0.905  -0.528  0.00  0.00    +0.000 A 
ENDBRANCH  10  17
ENDBRANCH   1  10
TORSDOF 3
