REMARK  Name = *****
REMARK  4 active torsions:
REMARK  status: ('A' for Active; 'I' for Inactive)
REMARK    1  A    between atoms: C_1  and  C_2
REMARK    2  A    between atoms: C_5  and  O_8
REMARK    3  A    between atoms: O_8  and  C_9
REMARK    4  A    between atoms: C_9  and  C_11
REMARK                            x       y       z     vdW  Elec       q    Type
REMARK                         _______ _______ _______ _____ _____    ______ ____
ROOT
ATOM      1  C   UNL     1      -3.882   1.497   0.400  0.00  0.00    +0.000 C 
ATOM      2  O   UNL     1      -3.127   1.164  -0.503  0.00  0.00    +0.000 OA
ENDROOT
BRANCH   1   3
ATOM      3  C   UNL     1      -5.364   1.454   0.255  0.00  0.00    +0.000 C 
ATOM      4  C   UNL     1      -6.010   0.485  -0.714  0.00  0.00    +0.000 C 
ATOM      5  C   UNL     1      -6.007   1.959  -1.022  0.00  0.00    +0.000 C 
ATOM      6  C   UNL     1      -7.346   2.632  -1.007  0.00  0.00    +0.000 C 
ATOM      7  C   UNL     1      -8.359   1.819  -1.817  0.00  0.00    +0.000 C 
ATOM      8  C   UNL     1      -8.360   0.309  -1.508  0.00  0.00    +0.000 C 
ATOM      9  C   UNL     1      -7.354  -0.120  -0.437  0.00  0.00    +0.000 C 
ENDBRANCH   1   3
BRANCH   1  10
ATOM     10  O   UNL     1      -3.533   1.961   1.661  0.00  0.00    +0.000 OA
BRANCH  10  15
ATOM     11  C   UNL     1       1.962   2.574   3.002  0.00  0.00    +0.000 C 
ATOM     12  C   UNL     1       0.524   2.389   2.616  0.00  0.00    +0.000 A 
ATOM     13  C   UNL     1       0.004   3.048   1.493  0.00  0.00    +0.000 A 
ATOM     14  C   UNL     1      -1.341   2.904   1.148  0.00  0.00    +0.000 A 
ATOM     15  C   UNL     1      -2.163   2.091   1.925  0.00  0.00    +0.000 A 
ATOM     16  C   UNL     1      -1.673   1.458   3.065  0.00  0.00    +0.000 A 
ATOM     17  C   UNL     1      -0.328   1.607   3.408  0.00  0.00    +0.000 A 
ENDBRANCH  10  15
ENDBRANCH   1  10
TORSDOF 3
