REMARK  Name = *****
REMARK  4 active torsions:
REMARK  status: ('A' for Active; 'I' for Inactive)
REMARK    1  A    between atoms: C_1  and  C_2
REMARK    2  A    between atoms: C_2  and  C_7
REMARK    3  A    between atoms: C_7  and  C_8
REMARK    4  A    between atoms: C_8  and  C_9
REMARK                            x       y       z     vdW  Elec       q    Type
REMARK                         _______ _______ _______ _____ _____    ______ ____
ROOT
ATOM      1  C   UNL     1       0.583   1.353   1.870  0.00  0.00    +0.000 C 
ENDROOT
BRANCH   1   3
ATOM      2  C   UNL     1       0.810   1.963  -0.611  0.00  0.00    +0.000 C 
ATOM      3  C   UNL     1       0.358   0.914   0.408  0.00  0.00    +0.000 C 
ATOM      4  S   UNL     1      -1.412   0.521   0.096  0.00  0.00    +0.000 S 
ATOM      5  C   UNL     1      -1.251  -1.279   0.134  0.00  0.00    +0.000 C 
ATOM      6  C   UNL     1       0.033  -1.628  -0.587  0.00  0.00    +0.000 C 
ATOM      7  S   UNL     1       1.354  -0.615   0.123  0.00  0.00    +0.000 S 
ENDBRANCH   1   3
BRANCH   1   8
ATOM      8  C   UNL     1      -0.106   2.667   2.271  0.00  0.00    +0.000 C 
BRANCH   8   9
ATOM      9  C   UNL     1       0.146   2.996   3.724  0.00  0.00    +0.000 A 
ATOM     10  C   UNL     1       1.262   3.756   4.099  0.00  0.00    +0.000 A 
ATOM     11  C   UNL     1       1.502   4.042   5.444  0.00  0.00    +0.000 A 
ATOM     12  C   UNL     1       0.632   3.569   6.425  0.00  0.00    +0.000 A 
ATOM     13  C   UNL     1      -0.477   2.807   6.063  0.00  0.00    +0.000 A 
ATOM     14  C   UNL     1      -0.719   2.519   4.719  0.00  0.00    +0.000 A 
ENDBRANCH   8   9
ENDBRANCH   1   8
TORSDOF 3
