REMARK  Name = *****
REMARK  6 active torsions:
REMARK  status: ('A' for Active; 'I' for Inactive)
REMARK    1  A    between atoms: C_4  and  C_7
REMARK    2  A    between atoms: C_7  and  O_8
REMARK    3  A    between atoms: O_8  and  C_9
REMARK    4  A    between atoms: C_12  and  C_14
REMARK    5  A    between atoms: C_14  and  C_15
REMARK    6  A    between atoms: C_15  and  C_16
REMARK                            x       y       z     vdW  Elec       q    Type
REMARK                         _______ _______ _______ _____ _____    ______ ____
ROOT
ATOM      1  C   UNL     1      -5.034  -0.736  -0.045  0.00  0.00    +0.000 A 
ATOM      2  N   UNL     1      -5.982  -1.335   0.680  0.00  0.00    +0.000 NA
ATOM      3  O   UNL     1      -7.172  -1.038   0.031  0.00  0.00    +0.000 OA
ATOM      4  C   UNL     1      -6.911  -0.258  -1.056  0.00  0.00    +0.000 A 
ATOM      5  C   UNL     1      -5.556  -0.045  -1.148  0.00  0.00    +0.000 A 
ENDROOT
BRANCH   1   6
ATOM      6  O   UNL     1      -3.726  -0.812   0.283  0.00  0.00    +0.000 OA
BRANCH   6   7
ATOM      7  C   UNL     1      -3.464  -1.528   1.491  0.00  0.00    +0.000 C 
BRANCH   7  11
ATOM      8  C   UNL     1       0.759  -1.523   2.415  0.00  0.00    +0.000 A 
ATOM      9  C   UNL     1       0.180  -0.404   1.821  0.00  0.00    +0.000 A 
ATOM     10  C   UNL     1      -1.182  -0.402   1.512  0.00  0.00    +0.000 A 
ATOM     11  C   UNL     1      -1.977  -1.526   1.780  0.00  0.00    +0.000 A 
ATOM     12  C   UNL     1      -1.383  -2.641   2.391  0.00  0.00    +0.000 A 
ATOM     13  C   UNL     1      -0.022  -2.640   2.703  0.00  0.00    +0.000 A 
ENDBRANCH   7  11
ENDBRANCH   6   7
ENDBRANCH   1   6
BRANCH   4  14
ATOM     14  C   UNL     1      -8.077   0.171  -1.862  0.00  0.00    +0.000 C 
BRANCH  14  15
ATOM     15  C   UNL     1      -9.043   1.070  -1.084  0.00  0.00    +0.000 C 
BRANCH  15  16
ATOM     16  C   UNL     1      -8.441   2.376  -0.570  0.00  0.00    +0.000 C 
ATOM     17 CL   UNL     1      -7.871   3.414  -1.897  0.00  0.00    +0.000 Cl
ENDBRANCH  15  16
ENDBRANCH  14  15
ENDBRANCH   4  14
TORSDOF 6
