REMARK  Name = *****
REMARK  2 active torsions:
REMARK  status: ('A' for Active; 'I' for Inactive)
REMARK    1  A    between atoms: C_1  and  C_2
REMARK    2  A    between atoms: C_9  and  C_11
REMARK                            x       y       z     vdW  Elec       q    Type
REMARK                         _______ _______ _______ _____ _____    ______ ____
ROOT
ATOM      1  C   UNL     1       1.026   0.087   0.012  0.00  0.00    +0.000 C 
ATOM      2  C   UNL     1       2.528   0.077   0.032  0.00  0.00    +0.000 A 
ATOM      3  C   UNL     1       3.223  -1.147  -0.043  0.00  0.00    +0.000 A 
ATOM      4  C   UNL     1       4.623  -1.123  -0.056  0.00  0.00    +0.000 A 
ATOM      5  C   UNL     1       5.273   0.098  -0.006  0.00  0.00    +0.000 A 
ATOM      6  C   UNL     1       4.638   1.331   0.054  0.00  0.00    +0.000 A 
ATOM      7  C   UNL     1       3.238   1.292   0.066  0.00  0.00    +0.000 A 
ATOM      8  O   UNL     1       6.614  -0.143  -0.032  0.00  0.00    +0.000 OA
ATOM      9  C   UNL     1       6.708  -1.508  -0.097  0.00  0.00    +0.000 A 
ATOM     10  N   UNL     1       5.546  -2.137  -0.114  0.00  0.00    +0.000 NA
ENDROOT
BRANCH   9  11
ATOM     11  C   UNL     1       8.046  -2.089  -0.136  0.00  0.00    +0.000 A 
ATOM     12  C   UNL     1       8.177  -3.488  -0.187  0.00  0.00    +0.000 A 
ATOM     13  C   UNL     1       9.438  -4.080  -0.225  0.00  0.00    +0.000 A 
ATOM     14  C   UNL     1      10.585  -3.299  -0.215  0.00  0.00    +0.000 A 
ATOM     15  C   UNL     1      10.471  -1.919  -0.167  0.00  0.00    +0.000 A 
ATOM     16  C   UNL     1       9.215  -1.316  -0.127  0.00  0.00    +0.000 A 
ATOM     17  F   UNL     1       9.158   0.023  -0.082  0.00  0.00    +0.000 F 
ATOM     18  F   UNL     1      11.576  -1.159  -0.157  0.00  0.00    +0.000 F 
ATOM     19  F   UNL     1      11.793  -3.877  -0.253  0.00  0.00    +0.000 F 
ATOM     20  F   UNL     1       9.533  -5.415  -0.272  0.00  0.00    +0.000 F 
ENDBRANCH   9  11
TORSDOF 1
