REMARK  Name = *****
REMARK  3 active torsions:
REMARK  status: ('A' for Active; 'I' for Inactive)
REMARK    1  A    between atoms: C_5  and  C_6
REMARK    2  A    between atoms: C_6  and  S_7
REMARK    3  A    between atoms: S_7  and  C_8
REMARK                            x       y       z     vdW  Elec       q    Type
REMARK                         _______ _______ _______ _____ _____    ______ ____
ROOT
ATOM      1  C   UNL     1      -0.887  -3.805   1.128  0.00  0.00    +0.000 C 
ENDROOT
BRANCH   1   6
ATOM      2  C   UNL     1       0.718   1.260   0.213  0.00  0.00    +0.000 C 
ATOM      3  C   UNL     1       1.414   0.044   0.813  0.00  0.00    +0.000 C 
ATOM      4  S   UNL     1       1.025  -1.499  -0.058  0.00  0.00    +0.000 S 
ATOM      5  C   UNL     1      -0.706  -1.485   0.063  0.00  0.00    +0.000 C 
ATOM      6  C   UNL     1      -1.406  -2.514   0.571  0.00  0.00    +0.000 C 
ATOM      7  S   UNL     1      -1.577  -0.118  -0.575  0.00  0.00    +0.000 S 
ATOM      8  C   UNL     1      -0.798   1.220   0.370  0.00  0.00    +0.000 C 
ENDBRANCH   1   6
BRANCH   1   9
ATOM      9  S   UNL     1      -1.188  -3.826   2.926  0.00  0.00    +0.000 S 
BRANCH   9  10
ATOM     10  C   UNL     1      -0.483  -5.417   3.310  0.00  0.00    +0.000 A 
ATOM     11  C   UNL     1       0.709  -5.488   4.037  0.00  0.00    +0.000 A 
ATOM     12  C   UNL     1       1.271  -6.728   4.348  0.00  0.00    +0.000 A 
ATOM     13  C   UNL     1       0.639  -7.902   3.940  0.00  0.00    +0.000 A 
ATOM     14  C   UNL     1      -0.556  -7.838   3.225  0.00  0.00    +0.000 A 
ATOM     15  C   UNL     1      -1.117  -6.598   2.913  0.00  0.00    +0.000 A 
ENDBRANCH   9  10
ENDBRANCH   1   9
TORSDOF 3
