REMARK  Name = *****
REMARK  4 active torsions:
REMARK  status: ('A' for Active; 'I' for Inactive)
REMARK    1  A    between atoms: C_1  and  C_2
REMARK    2  A    between atoms: C_1  and  C_9
REMARK    3  A    between atoms: C_2  and  C_3
REMARK    4  A    between atoms: C_9  and  C_10
REMARK                            x       y       z     vdW  Elec       q    Type
REMARK                         _______ _______ _______ _____ _____    ______ ____
ROOT
ATOM      1  C   UNL     1       2.049  -0.188   0.021  0.00  0.00    +0.000 C 
ENDROOT
BRANCH   1   2
ATOM      2  C   UNL     1       2.325  -1.268   1.068  0.00  0.00    +0.000 C 
BRANCH   2   3
ATOM      3  C   UNL     1       1.718  -0.919   2.404  0.00  0.00    +0.000 A 
ATOM      4  C   UNL     1       0.424  -1.345   2.731  0.00  0.00    +0.000 A 
ATOM      5  C   UNL     1      -0.143  -1.007   3.961  0.00  0.00    +0.000 A 
ATOM      6  C   UNL     1       0.577  -0.237   4.873  0.00  0.00    +0.000 A 
ATOM      7  C   UNL     1       1.862   0.197   4.555  0.00  0.00    +0.000 A 
ATOM      8  C   UNL     1       2.430  -0.140   3.326  0.00  0.00    +0.000 A 
ENDBRANCH   2   3
ENDBRANCH   1   2
BRANCH   1   9
ATOM      9  C   UNL     1       2.660  -0.565  -1.330  0.00  0.00    +0.000 C 
BRANCH   9  10
ATOM     10  C   UNL     1       2.410   0.495  -2.372  0.00  0.00    +0.000 A 
ATOM     11  C   UNL     1       3.336   1.528  -2.572  0.00  0.00    +0.000 A 
ATOM     12  C   UNL     1       3.096   2.518  -3.526  0.00  0.00    +0.000 A 
ATOM     13  C   UNL     1       1.927   2.489  -4.284  0.00  0.00    +0.000 A 
ATOM     14  C   UNL     1       0.996   1.470  -4.088  0.00  0.00    +0.000 A 
ATOM     15  C   UNL     1       1.235   0.479  -3.135  0.00  0.00    +0.000 A 
ENDBRANCH   9  10
ENDBRANCH   1   9
TORSDOF 4
