REMARK  Name = *****
REMARK  4 active torsions:
REMARK  status: ('A' for Active; 'I' for Inactive)
REMARK    1  A    between atoms: C_1  and  C_2
REMARK    2  A    between atoms: C_4  and  O_8
REMARK    3  A    between atoms: O_8  and  S_9
REMARK    4  A    between atoms: S_9  and  C_11
REMARK                            x       y       z     vdW  Elec       q    Type
REMARK                         _______ _______ _______ _____ _____    ______ ____
ROOT
ATOM      1  O   UNL     1      -1.272   2.944   0.006  0.00  0.00    +0.000 OA
ENDROOT
BRANCH   1   5
ATOM      2  C   UNL     1       2.436  -0.300  -0.273  0.00  0.00    +0.000 C 
ATOM      3  C   UNL     1       0.981   0.026  -0.106  0.00  0.00    +0.000 A 
ATOM      4  C   UNL     1       0.548   1.357  -0.106  0.00  0.00    +0.000 A 
ATOM      5  C   UNL     1      -0.812   1.652   0.028  0.00  0.00    +0.000 A 
ATOM      6  C   UNL     1      -1.753   0.627   0.107  0.00  0.00    +0.000 A 
ATOM      7  C   UNL     1      -1.329  -0.701   0.092  0.00  0.00    +0.000 A 
ATOM      8  C   UNL     1       0.031  -1.000  -0.013  0.00  0.00    +0.000 A 
ENDBRANCH   1   5
BRANCH   1   9
ATOM      9  S   UNL     1      -0.818   3.842   1.269  0.00  0.00    +0.000 S 
ATOM     10  O   UNL     1       0.350   4.678   0.831  0.00  0.00    +0.000 OA
BRANCH   9  11
ATOM     11  C   UNL     1      -2.271   4.917   1.141  0.00  0.00    +0.000 A 
ATOM     12  C   UNL     1      -3.543   4.401   1.420  0.00  0.00    +0.000 A 
ATOM     13  C   UNL     1      -4.669   5.224   1.343  0.00  0.00    +0.000 A 
ATOM     14  C   UNL     1      -4.529   6.566   0.992  0.00  0.00    +0.000 A 
ATOM     15  C   UNL     1      -3.266   7.088   0.720  0.00  0.00    +0.000 A 
ATOM     16  C   UNL     1      -2.139   6.267   0.796  0.00  0.00    +0.000 A 
ENDBRANCH   9  11
ENDBRANCH   1   9
TORSDOF 3
