REMARK  Name = *****
REMARK  2 active torsions:
REMARK  status: ('A' for Active; 'I' for Inactive)
REMARK    1  A    between atoms: C_1  and  C_2
REMARK    2  A    between atoms: C_10  and  C_13
REMARK                            x       y       z     vdW  Elec       q    Type
REMARK                         _______ _______ _______ _____ _____    ______ ____
ROOT
ATOM      1  C   UNL     1       0.978   0.219  -0.036  0.00  0.00    +0.000 C 
ATOM      2  C   UNL     1       2.502   0.076   0.000  0.00  0.00    +0.000 C 
ATOM      3  C   UNL     1       3.021  -0.741  -1.191  0.00  0.00    +0.000 C 
ATOM      4  C   UNL     1       2.728  -2.236  -1.060  0.00  0.00    +0.000 C 
ATOM      5  C   UNL     1       3.243  -2.825   0.263  0.00  0.00    +0.000 C 
ATOM      6  C   UNL     1       2.682  -2.022   1.447  0.00  0.00    +0.000 C 
ATOM      7  C   UNL     1       2.982  -0.527   1.328  0.00  0.00    +0.000 C 
ATOM      8  O   UNL     1       2.795  -4.192   0.292  0.00  0.00    +0.000 OA
ATOM      9  O   UNL     1       3.346  -4.830   1.497  0.00  0.00    +0.000 OA
ATOM     10  C   UNL     1       4.781  -4.791   1.399  0.00  0.00    +0.000 C 
ATOM     11  O   UNL     1       5.221  -3.421   1.404  0.00  0.00    +0.000 OA
ATOM     12  O   UNL     1       4.681  -2.768   0.202  0.00  0.00    +0.000 OA
ENDROOT
BRANCH  10  13
ATOM     13  C   UNL     1       5.358  -5.636   0.268  0.00  0.00    +0.000 A 
ATOM     14  C   UNL     1       6.600  -5.317  -0.309  0.00  0.00    +0.000 A 
ATOM     15  C   UNL     1       7.146  -6.115  -1.318  0.00  0.00    +0.000 A 
ATOM     16  C   UNL     1       6.462  -7.248  -1.751  0.00  0.00    +0.000 A 
ATOM     17  C   UNL     1       5.239  -7.592  -1.182  0.00  0.00    +0.000 A 
ATOM     18  C   UNL     1       4.693  -6.794  -0.173  0.00  0.00    +0.000 A 
ATOM     19 CL   UNL     1       7.135  -8.231  -2.993  0.00  0.00    +0.000 Cl
ENDBRANCH  10  13
TORSDOF 1
