REMARK  Name = *****
REMARK  5 active torsions:
REMARK  status: ('A' for Active; 'I' for Inactive)
REMARK    1  A    between atoms: C_1  and  S_2
REMARK    2  A    between atoms: S_2  and  C_3
REMARK    3  A    between atoms: S_2  and  C_4
REMARK    4  A    between atoms: S_2  and  S_10
REMARK    5  A    between atoms: S_10  and  C_11
REMARK                            x       y       z     vdW  Elec       q    Type
REMARK                         _______ _______ _______ _____ _____    ______ ____
ROOT
ATOM      1  C   UNL     1       1.212   0.046  -0.086  0.00  0.00    +0.000 C 
ATOM      2  S   UNL     1       2.967   0.018  -0.026  0.00  0.00    +0.000 S 
ATOM      3  C   UNL     1       3.422   1.312   1.075  0.00  0.00    +0.000 C 
ENDROOT
BRANCH   2   4
ATOM      4  C   UNL     1       3.571  -1.487   0.606  0.00  0.00    +0.000 A 
ATOM      5  C   UNL     1       4.933  -1.593   0.885  0.00  0.00    +0.000 A 
ATOM      6  C   UNL     1       5.444  -2.790   1.386  0.00  0.00    +0.000 A 
ATOM      7  C   UNL     1       4.595  -3.874   1.604  0.00  0.00    +0.000 A 
ATOM      8  C   UNL     1       3.234  -3.762   1.320  0.00  0.00    +0.000 A 
ATOM      9  C   UNL     1       2.717  -2.566   0.819  0.00  0.00    +0.000 A 
ENDBRANCH   2   4
BRANCH   2  10
ATOM     10  S   UNL     1       3.782   0.340  -1.908  0.00  0.00    +0.000 S 
BRANCH  10  11
ATOM     11  C   UNL     1       2.996  -0.922  -2.888  0.00  0.00    +0.000 A 
ATOM     12  C   UNL     1       1.923  -0.590  -3.721  0.00  0.00    +0.000 A 
ATOM     13  C   UNL     1       1.301  -1.573  -4.493  0.00  0.00    +0.000 A 
ATOM     14  C   UNL     1       1.753  -2.891  -4.440  0.00  0.00    +0.000 A 
ATOM     15  C   UNL     1       2.828  -3.226  -3.618  0.00  0.00    +0.000 A 
ATOM     16  C   UNL     1       3.450  -2.243  -2.847  0.00  0.00    +0.000 A 
ENDBRANCH  10  11
ENDBRANCH   2  10
TORSDOF 3
