REMARK  Name = *****
REMARK  1 active torsions:
REMARK  status: ('A' for Active; 'I' for Inactive)
REMARK    1  A    between atoms: N_10  and  C_11
REMARK                            x       y       z     vdW  Elec       q    Type
REMARK                         _______ _______ _______ _____ _____    ______ ____
ROOT
ATOM      1  C   UNL     1      -1.905   0.479  -0.406  0.00  0.00    +0.000 C 
ATOM      2  C   UNL     1      -0.431   0.450  -0.143  0.00  0.00    +0.000 A 
ATOM      3  C   UNL     1       0.405   1.546   0.041  0.00  0.00    +0.000 A 
ATOM      4  C   UNL     1       1.764   1.322   0.273  0.00  0.00    +0.000 A 
ATOM      5  C   UNL     1       2.272   0.017   0.317  0.00  0.00    +0.000 A 
ATOM      6  C   UNL     1       1.425  -1.076   0.123  0.00  0.00    +0.000 A 
ATOM      7  C   UNL     1       0.078  -0.839  -0.117  0.00  0.00    +0.000 A 
ATOM      8  S   UNL     1      -1.165  -2.078  -0.413  0.00  0.00    +0.000 S 
ATOM      9  O   UNL     1      -1.128  -2.974   0.787  0.00  0.00    +0.000 OA
ATOM     10  N   UNL     1      -2.392  -0.904  -0.300  0.00  0.00    +0.000 N 
ENDROOT
BRANCH  10  11
ATOM     11  C   UNL     1      -3.769  -1.217  -0.223  0.00  0.00    +0.000 A 
ATOM     12  C   UNL     1      -4.171  -2.466   0.313  0.00  0.00    +0.000 A 
ATOM     13  C   UNL     1      -5.510  -2.860   0.438  0.00  0.00    +0.000 A 
ATOM     14  C   UNL     1      -6.522  -2.012   0.026  0.00  0.00    +0.000 A 
ATOM     15  C   UNL     1      -6.185  -0.777  -0.511  0.00  0.00    +0.000 A 
ATOM     16  C   UNL     1      -4.838  -0.381  -0.640  0.00  0.00    +0.000 A 
ATOM     17 CL   UNL     1      -4.650   1.164  -1.408  0.00  0.00    +0.000 Cl
ENDBRANCH  10  11
TORSDOF 1
