REMARK  Name = *****
REMARK  6 active torsions:
REMARK  status: ('A' for Active; 'I' for Inactive)
REMARK    1  A    between atoms: C_1  and  C_2
REMARK    2  A    between atoms: C_5  and  C_8
REMARK    3  A    between atoms: C_9  and  C_10
REMARK    4  A    between atoms: C_11  and  C_15
REMARK    5  A    between atoms: C_15  and  O_17
REMARK    6  A    between atoms: O_17  and  C_18
REMARK                            x       y       z     vdW  Elec       q    Type
REMARK                         _______ _______ _______ _____ _____    ______ ____
ROOT
ATOM      1  C   UNL     1      -3.265   0.040  -0.167  0.00  0.00    +0.000 C 
ATOM      2  C   UNL     1      -4.080   1.103  -0.047  0.00  0.00    +0.000 C 
ENDROOT
BRANCH   1   7
ATOM      3  C   UNL     1       2.528   0.110  -0.050  0.00  0.00    +0.000 C 
ATOM      4  C   UNL     1       1.028   0.116  -0.072  0.00  0.00    +0.000 A 
ATOM      5  C   UNL     1       0.299   1.025   0.701  0.00  0.00    +0.000 A 
ATOM      6  C   UNL     1      -1.100   1.017   0.675  0.00  0.00    +0.000 A 
ATOM      7  C   UNL     1      -1.795   0.109  -0.133  0.00  0.00    +0.000 A 
ATOM      8  C   UNL     1      -1.061  -0.811  -0.892  0.00  0.00    +0.000 A 
ATOM      9  C   UNL     1       0.337  -0.804  -0.867  0.00  0.00    +0.000 A 
ENDBRANCH   1   7
BRANCH   2  10
ATOM     10  C   UNL     1      -5.517   1.055  -0.083  0.00  0.00    +0.000 A 
ATOM     11  C   UNL     1      -6.344   1.977   0.554  0.00  0.00    +0.000 A 
ATOM     12  S   UNL     1      -8.005   1.605   0.266  0.00  0.00    +0.000 S 
ATOM     13  C   UNL     1      -7.625   0.248  -0.688  0.00  0.00    +0.000 A 
ATOM     14  C   UNL     1      -6.268   0.064  -0.798  0.00  0.00    +0.000 A 
BRANCH  11  15
ATOM     15  C   UNL     1      -5.976   3.119   1.389  0.00  0.00    +0.000 C 
ATOM     16  O   UNL     1      -4.832   3.439   1.698  0.00  0.00    +0.000 OA
BRANCH  15  17
ATOM     17  O   UNL     1      -7.078   3.818   1.801  0.00  0.00    +0.000 OA
ATOM     18  C   UNL     1      -6.789   4.946   2.626  0.00  0.00    +0.000 C 
ENDBRANCH  15  17
ENDBRANCH  11  15
ENDBRANCH   2  10
TORSDOF 4
