REMARK  Name = *****
REMARK  2 active torsions:
REMARK  status: ('A' for Active; 'I' for Inactive)
REMARK    1  A    between atoms: C_4  and  C_7
REMARK    2  A    between atoms: C_8  and  C_9
REMARK                            x       y       z     vdW  Elec       q    Type
REMARK                         _______ _______ _______ _____ _____    ______ ____
ROOT
ATOM      1  C   UNL     1      -0.835  -2.841  -0.037  0.00  0.00    +0.000 C 
ATOM      2  C   UNL     1      -1.164  -3.997  -0.057  0.00  0.00    +0.000 C 
ENDROOT
BRANCH   2   3
ATOM      3  C   UNL     1      -1.554  -5.372  -0.084  0.00  0.00    +0.000 A 
ATOM      4  C   UNL     1      -0.666  -6.360   0.353  0.00  0.00    +0.000 A 
ATOM      5  C   UNL     1      -1.047  -7.703   0.324  0.00  0.00    +0.000 A 
ATOM      6  C   UNL     1      -2.312  -8.046  -0.142  0.00  0.00    +0.000 A 
ATOM      7  C   UNL     1      -3.204  -7.072  -0.579  0.00  0.00    +0.000 A 
ATOM      8  C   UNL     1      -2.824  -5.729  -0.550  0.00  0.00    +0.000 A 
ATOM      9  F   UNL     1      -2.677  -9.334  -0.170  0.00  0.00    +0.000 F 
ENDBRANCH   2   3
BRANCH   1  13
ATOM     10  C   UNL     1       0.352   1.275   0.352  0.00  0.00    +0.000 C 
ATOM     11  C   UNL     1       1.353   0.311  -0.274  0.00  0.00    +0.000 C 
ATOM     12  C   UNL     1       1.030  -1.138   0.099  0.00  0.00    +0.000 C 
ATOM     13  C   UNL     1      -0.438  -1.471  -0.015  0.00  0.00    +0.000 C 
ATOM     14  C   UNL     1      -1.378  -0.514  -0.116  0.00  0.00    +0.000 C 
ATOM     15  C   UNL     1      -1.075   0.956  -0.095  0.00  0.00    +0.000 C 
ENDBRANCH   1  13
TORSDOF 2
