REMARK  Name = *****
REMARK  8 active torsions:
REMARK  status: ('A' for Active; 'I' for Inactive)
REMARK    1  A    between atoms: C_1  and  C_2
REMARK    2  A    between atoms: C_3  and  C_18
REMARK    3  A    between atoms: C_4  and  C_17
REMARK    4  A    between atoms: C_5  and  C_10
REMARK    5  A    between atoms: C_6  and  C_9
REMARK    6  A    between atoms: C_7  and  C_8
REMARK    7  A    between atoms: C_10  and  S_11
REMARK    8  A    between atoms: S_11  and  C_12
REMARK                            x       y       z     vdW  Elec       q    Type
REMARK                         _______ _______ _______ _____ _____    ______ ____
ROOT
ATOM      1  C   UNL     1      -2.542   1.688   0.009  0.00  0.00    +0.000 C 
ATOM      2  C   UNL     1      -1.219   0.950  -0.003  0.00  0.00    +0.000 A 
ATOM      3  C   UNL     1      -0.014   1.697   0.059  0.00  0.00    +0.000 A 
ATOM      4  C   UNL     1       1.240   1.034  -0.016  0.00  0.00    +0.000 A 
ATOM      5  C   UNL     1       1.291  -0.387   0.004  0.00  0.00    +0.000 A 
ATOM      6  C   UNL     1       0.080  -1.132   0.081  0.00  0.00    +0.000 A 
ATOM      7  C   UNL     1      -1.171  -0.466  -0.017  0.00  0.00    +0.000 A 
ATOM      8  C   UNL     1      -2.461  -1.255  -0.105  0.00  0.00    +0.000 C 
ATOM      9  C   UNL     1       0.113  -2.639   0.229  0.00  0.00    +0.000 C 
ATOM     10  C   UNL     1       2.506   1.867  -0.031  0.00  0.00    +0.000 C 
ATOM     11  C   UNL     1      -0.063   3.209   0.146  0.00  0.00    +0.000 C 
ENDROOT
BRANCH   5  12
ATOM     12  C   UNL     1       2.631  -1.114  -0.042  0.00  0.00    +0.000 C 
BRANCH  12  13
ATOM     13  S   UNL     1       3.408  -1.210   1.595  0.00  0.00    +0.000 S 
BRANCH  13  14
ATOM     14  C   UNL     1       4.845  -2.085   1.197  0.00  0.00    +0.000 C 
ATOM     15  N   UNL     1       5.168  -2.443  -0.000  0.00  0.00    +0.000 NA
ATOM     16  C   UNL     1       6.426  -3.216   0.054  0.00  0.00    +0.000 C 
ATOM     17  C   UNL     1       7.227  -2.821   1.283  0.00  0.00    +0.000 C 
ATOM     18  S   UNL     1       5.941  -2.472   2.493  0.00  0.00    +0.000 S 
ENDBRANCH  13  14
ENDBRANCH  12  13
ENDBRANCH   5  12
TORSDOF 3
