REMARK  Name = *****
REMARK  5 active torsions:
REMARK  status: ('A' for Active; 'I' for Inactive)
REMARK    1  A    between atoms: C_1  and  C_2
REMARK    2  A    between atoms: C_2  and  C_4
REMARK    3  A    between atoms: C_4  and  C_5
REMARK    4  A    between atoms: C_4  and  S_11
REMARK    5  A    between atoms: S_11  and  C_12
REMARK                            x       y       z     vdW  Elec       q    Type
REMARK                         _______ _______ _______ _____ _____    ______ ____
ROOT
ATOM      1  C   UNL     1       3.399   1.228   0.671  0.00  0.00    +0.000 C 
ENDROOT
BRANCH   1   2
ATOM      2  C   UNL     1       3.047   1.215   2.153  0.00  0.00    +0.000 A 
ATOM      3  C   UNL     1       3.721   0.417   3.094  0.00  0.00    +0.000 A 
ATOM      4  C   UNL     1       3.335   0.413   4.437  0.00  0.00    +0.000 A 
ATOM      5  C   UNL     1       2.265   1.197   4.860  0.00  0.00    +0.000 A 
ATOM      6  C   UNL     1       1.576   1.984   3.941  0.00  0.00    +0.000 A 
ATOM      7  C   UNL     1       1.960   1.989   2.599  0.00  0.00    +0.000 A 
ENDBRANCH   1   2
BRANCH   1   9
ATOM      8  C   UNL     1       2.961  -1.316   0.229  0.00  0.00    +0.000 C 
ATOM      9  C   UNL     1       2.666   0.129  -0.095  0.00  0.00    +0.000 C 
ATOM     10  O   UNL     1       1.795   0.411  -0.927  0.00  0.00    +0.000 OA
ENDBRANCH   1   9
BRANCH   1  11
ATOM     11  S   UNL     1       5.210   1.200   0.343  0.00  0.00    +0.000 S 
BRANCH  11  12
ATOM     12  C   UNL     1       5.281   1.215  -1.441  0.00  0.00    +0.000 A 
ATOM     13  C   UNL     1       4.523   2.088  -2.226  0.00  0.00    +0.000 A 
ATOM     14  C   UNL     1       4.628   2.059  -3.619  0.00  0.00    +0.000 A 
ATOM     15  C   UNL     1       5.503   1.168  -4.237  0.00  0.00    +0.000 A 
ATOM     16  C   UNL     1       6.279   0.309  -3.463  0.00  0.00    +0.000 A 
ATOM     17  C   UNL     1       6.171   0.336  -2.070  0.00  0.00    +0.000 A 
ENDBRANCH  11  12
ENDBRANCH   1  11
TORSDOF 4
