REMARK  Name = *****
REMARK  3 active torsions:
REMARK  status: ('A' for Active; 'I' for Inactive)
REMARK    1  A    between atoms: C_4  and  C_7
REMARK    2  A    between atoms: C_7  and  C_8
REMARK    3  A    between atoms: C_8  and  C_10
REMARK                            x       y       z     vdW  Elec       q    Type
REMARK                         _______ _______ _______ _____ _____    ______ ____
ROOT
ATOM      1  C   UNL     1      -0.827   2.110   2.856  0.00  0.00    +0.000 C 
ATOM      2  O   UNL     1      -1.295   3.133   2.362  0.00  0.00    +0.000 OA
ENDROOT
BRANCH   1   3
ATOM      3  C   UNL     1      -1.127   1.804   4.285  0.00  0.00    +0.000 A 
ATOM      4  C   UNL     1      -0.301   0.983   5.062  0.00  0.00    +0.000 A 
ATOM      5  C   UNL     1      -0.622   0.734   6.401  0.00  0.00    +0.000 A 
ATOM      6  C   UNL     1      -1.760   1.309   6.964  0.00  0.00    +0.000 A 
ATOM      7  C   UNL     1      -2.582   2.136   6.202  0.00  0.00    +0.000 A 
ATOM      8  C   UNL     1      -2.264   2.386   4.865  0.00  0.00    +0.000 A 
ATOM      9 CL   UNL     1      -2.147   1.000   8.611  0.00  0.00    +0.000 Cl
ENDBRANCH   1   3
BRANCH   1  10
ATOM     10  C   UNL     1       0.086   1.176   2.083  0.00  0.00    +0.000 C 
BRANCH  10  14
ATOM     11  C   UNL     1      -0.280  -1.891  -0.263  0.00  0.00    +0.000 C 
ATOM     12  C   UNL     1       1.054  -1.257   0.098  0.00  0.00    +0.000 C 
ATOM     13  S   UNL     1       1.162   0.485  -0.392  0.00  0.00    +0.000 S 
ATOM     14  C   UNL     1      -0.214   1.200   0.581  0.00  0.00    +0.000 C 
ATOM     15  S   UNL     1      -1.804   0.414   0.127  0.00  0.00    +0.000 S 
ATOM     16  C   UNL     1      -1.461  -1.325   0.511  0.00  0.00    +0.000 C 
ENDBRANCH  10  14
ENDBRANCH   1  10
TORSDOF 3
