REMARK  Name = *****
REMARK  3 active torsions:
REMARK  status: ('A' for Active; 'I' for Inactive)
REMARK    1  A    between atoms: C_6  and  O_7
REMARK    2  A    between atoms: O_7  and  C_8
REMARK    3  A    between atoms: C_8  and  C_10
REMARK                            x       y       z     vdW  Elec       q    Type
REMARK                         _______ _______ _______ _____ _____    ______ ____
ROOT
ATOM      1  C   UNL     1       4.515   1.541  -0.053  0.00  0.00    +0.000 C 
ATOM      2  O   UNL     1       3.956   2.624  -0.121  0.00  0.00    +0.000 OA
ENDROOT
BRANCH   1   3
ATOM      3  C   UNL     1       5.996   1.399   0.028  0.00  0.00    +0.000 A 
ATOM      4  C   UNL     1       6.767   2.570   0.008  0.00  0.00    +0.000 A 
ATOM      5  C   UNL     1       8.154   2.486   0.082  0.00  0.00    +0.000 A 
ATOM      6  C   UNL     1       8.782   1.250   0.175  0.00  0.00    +0.000 A 
ATOM      7  C   UNL     1       8.031   0.079   0.197  0.00  0.00    +0.000 A 
ATOM      8  C   UNL     1       6.636   0.151   0.123  0.00  0.00    +0.000 A 
ATOM      9  F   UNL     1      10.118   1.174   0.246  0.00  0.00    +0.000 F 
ATOM     10  F   UNL     1       8.882   3.610   0.061  0.00  0.00    +0.000 F 
ENDBRANCH   1   3
BRANCH   1  11
ATOM     11  O   UNL     1       3.925   0.291  -0.037  0.00  0.00    +0.000 OA
BRANCH  11  17
ATOM     12  C   UNL     1       1.885   0.710  -1.292  0.00  0.00    +0.000 A 
ATOM     13  C   UNL     1       0.492   0.649  -1.361  0.00  0.00    +0.000 A 
ATOM     14  C   UNL     1      -0.235   0.162  -0.273  0.00  0.00    +0.000 A 
ATOM     15  C   UNL     1       0.417  -0.269   0.884  0.00  0.00    +0.000 A 
ATOM     16  C   UNL     1       1.809  -0.208   0.958  0.00  0.00    +0.000 A 
ATOM     17  C   UNL     1       2.528   0.298  -0.124  0.00  0.00    +0.000 A 
ATOM     18 CL   UNL     1      -1.952   0.083  -0.363  0.00  0.00    +0.000 Cl
ENDBRANCH  11  17
ENDBRANCH   1  11
TORSDOF 3
