REMARK  Name = *****
REMARK  4 active torsions:
REMARK  status: ('A' for Active; 'I' for Inactive)
REMARK    1  A    between atoms: C_1  and  C_2
REMARK    2  A    between atoms: C_5  and  N_8
REMARK    3  A    between atoms: N_8  and  C_9
REMARK    4  A    between atoms: C_9  and  C_10
REMARK                            x       y       z     vdW  Elec       q    Type
REMARK                         _______ _______ _______ _____ _____    ______ ____
ROOT
ATOM      1  C   UNL     1       1.045  -0.423  -0.081  0.00  0.00    +0.000 C 
ATOM      2  C   UNL     1       2.461   0.142   0.032  0.00  0.00    +0.000 C 
ATOM      3  C   UNL     1       2.569   1.523  -0.663  0.00  0.00    +0.000 C 
ATOM      4  C   UNL     1       3.176   1.499  -2.040  0.00  0.00    +0.000 C 
ATOM      5  C   UNL     1       3.891   0.456  -2.489  0.00  0.00    +0.000 C 
ATOM      6  C   UNL     1       4.093  -0.712  -1.661  0.00  0.00    +0.000 C 
ATOM      7  C   UNL     1       3.448  -0.871  -0.495  0.00  0.00    +0.000 C 
ATOM      8  F   UNL     1       2.706   0.336   1.364  0.00  0.00    +0.000 F 
ENDROOT
BRANCH   5   9
ATOM      9  N   UNL     1       4.441   0.406  -3.737  0.00  0.00    +0.000 NA
BRANCH   9  10
ATOM     10  C   UNL     1       5.577   1.021  -3.857  0.00  0.00    +0.000 C 
BRANCH  10  11
ATOM     11  C   UNL     1       6.307   1.067  -5.140  0.00  0.00    +0.000 A 
ATOM     12  C   UNL     1       5.797   0.437  -6.278  0.00  0.00    +0.000 A 
ATOM     13  C   UNL     1       6.505   0.494  -7.479  0.00  0.00    +0.000 A 
ATOM     14  C   UNL     1       7.720   1.179  -7.540  0.00  0.00    +0.000 A 
ATOM     15  C   UNL     1       8.228   1.808  -6.403  0.00  0.00    +0.000 A 
ATOM     16  C   UNL     1       7.523   1.753  -5.199  0.00  0.00    +0.000 A 
ENDBRANCH  10  11
ENDBRANCH   9  10
ENDBRANCH   5   9
TORSDOF 3
