REMARK  Name = *****
REMARK  5 active torsions:
REMARK  status: ('A' for Active; 'I' for Inactive)
REMARK    1  A    between atoms: C_1  and  C_2
REMARK    2  A    between atoms: C_3  and  C_16
REMARK    3  A    between atoms: C_5  and  N_8
REMARK    4  A    between atoms: C_9  and  C_10
REMARK    5  A    between atoms: C_9  and  C_11
REMARK                            x       y       z     vdW  Elec       q    Type
REMARK                         _______ _______ _______ _____ _____    ______ ____
ROOT
ATOM      1  C   UNL     1       1.895   1.384   0.461  0.00  0.00    +0.000 C 
ATOM      2  C   UNL     1       0.577   0.660   0.437  0.00  0.00    +0.000 A 
ATOM      3  C   UNL     1       0.408  -0.534  -0.293  0.00  0.00    +0.000 A 
ATOM      4  C   UNL     1      -0.842  -1.176  -0.278  0.00  0.00    +0.000 A 
ATOM      5  C   UNL     1      -1.919  -0.646   0.437  0.00  0.00    +0.000 A 
ATOM      6  C   UNL     1      -1.736   0.519   1.179  0.00  0.00    +0.000 A 
ATOM      7  C   UNL     1      -0.502   1.171   1.175  0.00  0.00    +0.000 A 
ATOM      8  C   UNL     1       1.536  -1.140  -1.082  0.00  0.00    +0.000 C 
ENDROOT
BRANCH   5   9
ATOM      9  N   UNL     1      -3.148  -1.313   0.453  0.00  0.00    +0.000 NA
ATOM     10  C   UNL     1      -4.099  -0.980  -0.373  0.00  0.00    +0.000 C 
ATOM     11  C   UNL     1      -3.986   0.123  -1.413  0.00  0.00    +0.000 C 
BRANCH  10  12
ATOM     12  C   UNL     1      -5.358  -1.716  -0.250  0.00  0.00    +0.000 A 
ATOM     13  C   UNL     1      -5.616  -2.801   0.572  0.00  0.00    +0.000 A 
ATOM     14  C   UNL     1      -6.952  -3.282   0.456  0.00  0.00    +0.000 A 
ATOM     15  C   UNL     1      -7.682  -2.546  -0.448  0.00  0.00    +0.000 A 
ATOM     16  S   UNL     1      -6.758  -1.291  -1.145  0.00  0.00    +0.000 S 
ENDBRANCH  10  12
ENDBRANCH   5   9
TORSDOF 2
