REMARK  Name = *****
REMARK  5 active torsions:
REMARK  status: ('A' for Active; 'I' for Inactive)
REMARK    1  A    between atoms: C_1  and  O_2
REMARK    2  A    between atoms: O_2  and  C_3
REMARK    3  A    between atoms: C_7  and  C_9
REMARK    4  A    between atoms: C_9  and  C_10
REMARK    5  A    between atoms: C_10  and  C_11
REMARK                            x       y       z     vdW  Elec       q    Type
REMARK                         _______ _______ _______ _____ _____    ______ ____
ROOT
ATOM      1  C   UNL     1       3.485  -0.761  -1.305  0.00  0.00    +0.000 A 
ATOM      2  C   UNL     1       2.589  -1.581  -1.991  0.00  0.00    +0.000 A 
ATOM      3  C   UNL     1       2.832  -2.953  -2.094  0.00  0.00    +0.000 A 
ATOM      4  C   UNL     1       3.970  -3.512  -1.511  0.00  0.00    +0.000 A 
ATOM      5  C   UNL     1       4.879  -2.704  -0.820  0.00  0.00    +0.000 A 
ATOM      6  C   UNL     1       4.627  -1.327  -0.729  0.00  0.00    +0.000 A 
ENDROOT
BRANCH   1   8
ATOM      7  C   UNL     1       2.191   1.204  -1.641  0.00  0.00    +0.000 C 
ATOM      8  O   UNL     1       3.367   0.590  -1.129  0.00  0.00    +0.000 OA
ENDBRANCH   1   8
BRANCH   5   9
ATOM      9  C   UNL     1       6.118  -3.298  -0.197  0.00  0.00    +0.000 C 
BRANCH   9  10
ATOM     10  C   UNL     1       7.196  -3.598  -1.243  0.00  0.00    +0.000 C 
BRANCH  10  11
ATOM     11  C   UNL     1       8.455  -4.137  -0.609  0.00  0.00    +0.000 A 
ATOM     12  C   UNL     1       8.530  -5.477  -0.203  0.00  0.00    +0.000 A 
ATOM     13  C   UNL     1       9.688  -5.969   0.400  0.00  0.00    +0.000 A 
ATOM     14  C   UNL     1      10.782  -5.129   0.602  0.00  0.00    +0.000 A 
ATOM     15  C   UNL     1      10.717  -3.795   0.204  0.00  0.00    +0.000 A 
ATOM     16  C   UNL     1       9.559  -3.300  -0.397  0.00  0.00    +0.000 A 
ENDBRANCH  10  11
ENDBRANCH   9  10
ENDBRANCH   5   9
TORSDOF 4
