REMARK  Name = *****
REMARK  8 active torsions:
REMARK  status: ('A' for Active; 'I' for Inactive)
REMARK    1  A    between atoms: C_1  and  C_2
REMARK    2  A    between atoms: C_4  and  C_9
REMARK    3  A    between atoms: C_5  and  C_8
REMARK    4  A    between atoms: C_10  and  C_11
REMARK    5  A    between atoms: C_12  and  O_19
REMARK    6  A    between atoms: C_15  and  O_17
REMARK    7  A    between atoms: O_17  and  C_18
REMARK    8  A    between atoms: O_19  and  C_20
REMARK                            x       y       z     vdW  Elec       q    Type
REMARK                         _______ _______ _______ _____ _____    ______ ____
ROOT
ATOM      1  C   UNL     1      -0.986   2.562  -0.499  0.00  0.00    +0.000 C 
ATOM      2  C   UNL     1      -0.807   3.522   0.422  0.00  0.00    +0.000 C 
ENDROOT
BRANCH   1   6
ATOM      3  C   UNL     1       3.216  -0.130  -0.290  0.00  0.00    +0.000 C 
ATOM      4  C   UNL     1       1.718  -0.066  -0.281  0.00  0.00    +0.000 A 
ATOM      5  C   UNL     1       1.061   1.168  -0.365  0.00  0.00    +0.000 A 
ATOM      6  C   UNL     1      -0.342   1.245  -0.392  0.00  0.00    +0.000 A 
ATOM      7  C   UNL     1      -1.103   0.061  -0.350  0.00  0.00    +0.000 A 
ATOM      8  C   UNL     1      -0.438  -1.174  -0.284  0.00  0.00    +0.000 A 
ATOM      9  C   UNL     1       0.957  -1.236  -0.254  0.00  0.00    +0.000 A 
ATOM     10  C   UNL     1      -2.607   0.085  -0.379  0.00  0.00    +0.000 C 
ENDBRANCH   1   6
BRANCH   2  11
ATOM     11  C   UNL     1      -1.460   4.840   0.368  0.00  0.00    +0.000 A 
ATOM     12  C   UNL     1      -1.952   5.446   1.534  0.00  0.00    +0.000 A 
ATOM     13  C   UNL     1      -2.501   6.729   1.500  0.00  0.00    +0.000 A 
ATOM     14  C   UNL     1      -2.595   7.418   0.289  0.00  0.00    +0.000 A 
ATOM     15  C   UNL     1      -2.121   6.832  -0.885  0.00  0.00    +0.000 A 
ATOM     16  C   UNL     1      -1.552   5.553  -0.837  0.00  0.00    +0.000 A 
BRANCH  15  17
ATOM     17  O   UNL     1      -2.144   7.399  -2.130  0.00  0.00    +0.000 OA
ATOM     18  C   UNL     1      -2.679   8.712  -2.231  0.00  0.00    +0.000 C 
ENDBRANCH  15  17
BRANCH  12  19
ATOM     19  O   UNL     1      -1.852   4.825   2.755  0.00  0.00    +0.000 OA
ATOM     20  C   UNL     1      -3.024   4.046   3.002  0.00  0.00    +0.000 C 
ENDBRANCH  12  19
ENDBRANCH   2  11
TORSDOF 4
