REMARK  Name = *****
REMARK  0 active torsions:
REMARK  status: ('A' for Active; 'I' for Inactive)
REMARK                            x       y       z     vdW  Elec       q    Type
REMARK                         _______ _______ _______ _____ _____    ______ ____
ROOT
ATOM      1  C   UNL     1      -3.861   0.118   1.183  0.00  0.00    +0.000 C 
ATOM      2  C   UNL     1      -4.102   0.516  -0.263  0.00  0.00    +0.000 C 
ATOM      3  C   UNL     1      -3.045  -0.265  -1.031  0.00  0.00    +0.000 C 
ATOM      4  C   UNL     1      -1.785  -0.200  -0.136  0.00  0.00    +0.000 C 
ATOM      5  C   UNL     1      -2.388  -0.300   1.281  0.00  0.00    +0.000 C 
ATOM      6  S   UNL     1      -0.961   1.417  -0.476  0.00  0.00    +0.000 S 
ATOM      7  C   UNL     1       0.392   1.438   0.734  0.00  0.00    +0.000 C 
ATOM      8  C   UNL     1       1.630   0.725   0.250  0.00  0.00    +0.000 A 
ATOM      9  C   UNL     1       2.724   1.484  -0.205  0.00  0.00    +0.000 A 
ATOM     10  C   UNL     1       3.886   0.863  -0.663  0.00  0.00    +0.000 A 
ATOM     11  C   UNL     1       3.970  -0.524  -0.680  0.00  0.00    +0.000 A 
ATOM     12  C   UNL     1       2.892  -1.291  -0.241  0.00  0.00    +0.000 A 
ATOM     13  C   UNL     1       1.715  -0.681   0.231  0.00  0.00    +0.000 A 
ATOM     14  C   UNL     1       0.562  -1.550   0.664  0.00  0.00    +0.000 C 
ATOM     15  S   UNL     1      -0.734  -1.626  -0.602  0.00  0.00    +0.000 S 
ENDROOT
TORSDOF 0
