REMARK  Name = *****
REMARK  2 active torsions:
REMARK  status: ('A' for Active; 'I' for Inactive)
REMARK    1  A    between atoms: C_8  and  C_9
REMARK    2  A    between atoms: C_10  and  C_11
REMARK                            x       y       z     vdW  Elec       q    Type
REMARK                         _______ _______ _______ _____ _____    ______ ____
ROOT
ATOM      1  C   UNL     1       2.744   1.300   1.124  0.00  0.00    +0.000 C 
ATOM      2  C   UNL     1       4.158   0.723   0.893  0.00  0.00    +0.000 C 
ATOM      3  C   UNL     1       4.138   0.796  -0.619  0.00  0.00    +0.000 C 
ATOM      4  C   UNL     1       2.888   0.495  -1.013  0.00  0.00    +0.000 C 
ATOM      5  C   UNL     1       2.083   0.221   0.239  0.00  0.00    +0.000 C 
ATOM      6  C   UNL     1       2.528  -1.044   0.993  0.00  0.00    +0.000 C 
ATOM      7  C   UNL     1       3.950  -0.697   1.446  0.00  0.00    +0.000 C 
ATOM      8  C   UNL     1       3.674  -1.990   0.717  0.00  0.00    +0.000 C 
ENDROOT
BRANCH   8   9
ATOM      9  C   UNL     1       4.173  -2.269  -0.628  0.00  0.00    +0.000 C 
ATOM     10  C   UNL     1       5.465  -2.451  -0.949  0.00  0.00    +0.000 C 
BRANCH  10  11
ATOM     11  C   UNL     1       5.959  -2.724  -2.306  0.00  0.00    +0.000 A 
ATOM     12  C   UNL     1       5.260  -3.533  -3.211  0.00  0.00    +0.000 A 
ATOM     13  C   UNL     1       5.779  -3.792  -4.482  0.00  0.00    +0.000 A 
ATOM     14  C   UNL     1       7.008  -3.252  -4.858  0.00  0.00    +0.000 A 
ATOM     15  C   UNL     1       7.720  -2.458  -3.962  0.00  0.00    +0.000 A 
ATOM     16  C   UNL     1       7.200  -2.200  -2.690  0.00  0.00    +0.000 A 
ENDBRANCH  10  11
ENDBRANCH   8   9
TORSDOF 2
