REMARK  Name = *****
REMARK  1 active torsions:
REMARK  status: ('A' for Active; 'I' for Inactive)
REMARK    1  A    between atoms: C_6  and  C_11
REMARK                            x       y       z     vdW  Elec       q    Type
REMARK                         _______ _______ _______ _____ _____    ______ ____
ROOT
ATOM      1  C   UNL     1       2.423  -0.721   0.017  0.00  0.00    +0.000 A 
ATOM      2  C   UNL     1       2.452   0.670   0.037  0.00  0.00    +0.000 A 
ATOM      3  C   UNL     1       1.258   1.393   0.032  0.00  0.00    +0.000 A 
ATOM      4  C   UNL     1       0.019   0.732   0.006  0.00  0.00    +0.000 A 
ATOM      5  C   UNL     1      -1.192   1.446  -0.001  0.00  0.00    +0.000 A 
ATOM      6  C   UNL     1      -2.422   0.778  -0.029  0.00  0.00    +0.000 A 
ATOM      7  C   UNL     1      -2.443  -0.618  -0.058  0.00  0.00    +0.000 A 
ATOM      8  C   UNL     1      -1.248  -1.342  -0.047  0.00  0.00    +0.000 A 
ATOM      9  C   UNL     1      -0.011  -0.681  -0.016  0.00  0.00    +0.000 A 
ATOM     10  C   UNL     1       1.200  -1.393  -0.009  0.00  0.00    +0.000 A 
ENDROOT
BRANCH   6  11
ATOM     11  C   UNL     1      -3.667   1.533  -0.056  0.00  0.00    +0.000 A 
ATOM     12  C   UNL     1      -4.393   1.813  -1.150  0.00  0.00    +0.000 A 
ATOM     13  C   UNL     1      -5.618   2.529  -0.876  0.00  0.00    +0.000 A 
ATOM     14  C   UNL     1      -5.833   2.796   0.421  0.00  0.00    +0.000 A 
ATOM     15  P   UNL     1      -4.434   2.213   1.446  0.00  0.00    +0.000 P 
ATOM     16  H   UNL     1      -3.711   3.222   2.049  0.00  0.00    +0.000 HD
ENDBRANCH   6  11
TORSDOF 1
