REMARK  Name = *****
REMARK  2 active torsions:
REMARK  status: ('A' for Active; 'I' for Inactive)
REMARK    1  A    between atoms: C_5  and  C_7
REMARK    2  A    between atoms: C_8  and  C_9
REMARK                            x       y       z     vdW  Elec       q    Type
REMARK                         _______ _______ _______ _____ _____    ______ ____
ROOT
ATOM      1  C   UNL     1       0.930  -2.435   0.017  0.00  0.00    +0.000 C 
ATOM      2  C   UNL     1       2.268  -2.554  -0.002  0.00  0.00    +0.000 C 
ENDROOT
BRANCH   1   7
ATOM      3  C   UNL     1      -1.719   0.129   0.780  0.00  0.00    +0.000 A 
ATOM      4  C   UNL     1      -1.275   1.243   0.069  0.00  0.00    +0.000 A 
ATOM      5  C   UNL     1      -0.097   1.166  -0.669  0.00  0.00    +0.000 A 
ATOM      6  C   UNL     1       0.634  -0.021  -0.690  0.00  0.00    +0.000 A 
ATOM      7  C   UNL     1       0.215  -1.149   0.029  0.00  0.00    +0.000 A 
ATOM      8  C   UNL     1      -0.982  -1.060   0.756  0.00  0.00    +0.000 A 
ATOM      9  F   UNL     1       1.751  -0.057  -1.434  0.00  0.00    +0.000 F 
ENDBRANCH   1   7
BRANCH   2  10
ATOM     10  C   UNL     1       2.974  -3.843   0.009  0.00  0.00    +0.000 A 
ATOM     11  C   UNL     1       2.525  -4.946  -0.733  0.00  0.00    +0.000 A 
ATOM     12  C   UNL     1       3.239  -6.146  -0.720  0.00  0.00    +0.000 A 
ATOM     13  C   UNL     1       4.408  -6.240   0.025  0.00  0.00    +0.000 A 
ATOM     14  C   UNL     1       4.880  -5.156   0.753  0.00  0.00    +0.000 A 
ATOM     15  C   UNL     1       4.166  -3.955   0.740  0.00  0.00    +0.000 A 
ATOM     16  F   UNL     1       5.093  -7.391   0.035  0.00  0.00    +0.000 F 
ENDBRANCH   2  10
TORSDOF 2
