REMARK  Name = *****
REMARK  2 active torsions:
REMARK  status: ('A' for Active; 'I' for Inactive)
REMARK    1  A    between atoms: C_2  and  C_11
REMARK    2  A    between atoms: C_3  and  C_4
REMARK                            x       y       z     vdW  Elec       q    Type
REMARK                         _______ _______ _______ _____ _____    ______ ____
ROOT
ATOM      1  C   UNL     1       0.038   0.832  -0.119  0.00  0.00    +0.000 C 
ATOM      2  C   UNL     1       0.718  -0.508  -0.008  0.00  0.00    +0.000 C 
ATOM      3  C   UNL     1      -0.807  -0.415   0.000  0.00  0.00    +0.000 C 
ATOM      4 BR   UNL     1      -1.788  -0.586   1.659  0.00  0.00    +0.000 Br
ENDROOT
BRANCH   3   5
ATOM      5  C   UNL     1      -1.580  -0.921  -1.201  0.00  0.00    +0.000 A 
ATOM      6  C   UNL     1      -1.444  -2.246  -1.653  0.00  0.00    +0.000 A 
ATOM      7  C   UNL     1      -2.156  -2.718  -2.759  0.00  0.00    +0.000 A 
ATOM      8  C   UNL     1      -3.029  -1.873  -3.436  0.00  0.00    +0.000 A 
ATOM      9  C   UNL     1      -3.193  -0.559  -3.006  0.00  0.00    +0.000 A 
ATOM     10  C   UNL     1      -2.477  -0.093  -1.900  0.00  0.00    +0.000 A 
ENDBRANCH   3   5
BRANCH   2  11
ATOM     11  C   UNL     1       1.524  -0.873   1.218  0.00  0.00    +0.000 A 
ATOM     12  C   UNL     1       1.439  -2.156   1.785  0.00  0.00    +0.000 A 
ATOM     13  C   UNL     1       2.197  -2.514   2.903  0.00  0.00    +0.000 A 
ATOM     14  C   UNL     1       3.072  -1.594   3.472  0.00  0.00    +0.000 A 
ATOM     15  C   UNL     1       3.190  -0.322   2.921  0.00  0.00    +0.000 A 
ATOM     16  C   UNL     1       2.427   0.030   1.804  0.00  0.00    +0.000 A 
ENDBRANCH   2  11
TORSDOF 2
