REMARK  Name = *****
REMARK  2 active torsions:
REMARK  status: ('A' for Active; 'I' for Inactive)
REMARK    1  A    between atoms: C_3  and  C_6
REMARK    2  A    between atoms: C_7  and  C_8
REMARK                            x       y       z     vdW  Elec       q    Type
REMARK                         _______ _______ _______ _____ _____    ______ ____
ROOT
ATOM      1  C   UNL     1       0.006   2.018  -1.268  0.00  0.00    +0.000 C 
ATOM      2  C   UNL     1       0.014   2.728  -2.238  0.00  0.00    +0.000 C 
ENDROOT
BRANCH   2   3
ATOM      3  C   UNL     1       0.028   3.582  -3.385  0.00  0.00    +0.000 A 
ATOM      4  C   UNL     1       1.246   3.988  -3.939  0.00  0.00    +0.000 A 
ATOM      5  C   UNL     1       1.259   4.831  -5.053  0.00  0.00    +0.000 A 
ATOM      6  C   UNL     1       0.056   5.258  -5.603  0.00  0.00    +0.000 A 
ATOM      7  C   UNL     1      -1.162   4.859  -5.062  0.00  0.00    +0.000 A 
ATOM      8  C   UNL     1      -1.177   4.016  -3.948  0.00  0.00    +0.000 A 
ATOM      9  F   UNL     1       0.069   6.069  -6.669  0.00  0.00    +0.000 F 
ENDBRANCH   2   3
BRANCH   1  12
ATOM     10  C   UNL     1       0.722  -1.049  -0.069  0.00  0.00    +0.000 C 
ATOM     11  C   UNL     1       1.165   0.220  -0.075  0.00  0.00    +0.000 C 
ATOM     12  C   UNL     1      -0.001   1.171  -0.073  0.00  0.00    +0.000 C 
ATOM     13  C   UNL     1      -1.164   0.217  -0.089  0.00  0.00    +0.000 C 
ATOM     14  C   UNL     1      -0.720  -1.049  -0.078  0.00  0.00    +0.000 C 
ENDBRANCH   1  12
TORSDOF 2
