REMARK  Name = *****
REMARK  5 active torsions:
REMARK  status: ('A' for Active; 'I' for Inactive)
REMARK    1  A    between atoms: C_1  and  C_2
REMARK    2  A    between atoms: C_5  and  C_8
REMARK    3  A    between atoms: C_8  and  N_9
REMARK    4  A    between atoms: N_9  and  O_10
REMARK    5  A    between atoms: O_10  and  C_11
REMARK                            x       y       z     vdW  Elec       q    Type
REMARK                         _______ _______ _______ _____ _____    ______ ____
ROOT
ATOM      1  C   UNL     1      -3.254   0.302   0.202  0.00  0.00    +0.000 C 
ENDROOT
BRANCH   1   6
ATOM      2  C   UNL     1       2.488  -0.192  -0.189  0.00  0.00    +0.000 C 
ATOM      3  C   UNL     1       0.999  -0.053  -0.061  0.00  0.00    +0.000 A 
ATOM      4  C   UNL     1       0.390   1.199  -0.210  0.00  0.00    +0.000 A 
ATOM      5  C   UNL     1      -0.998   1.327  -0.123  0.00  0.00    +0.000 A 
ATOM      6  C   UNL     1      -1.786   0.196   0.104  0.00  0.00    +0.000 A 
ATOM      7  C   UNL     1      -1.191  -1.060   0.240  0.00  0.00    +0.000 A 
ATOM      8  C   UNL     1       0.198  -1.183   0.151  0.00  0.00    +0.000 A 
ENDBRANCH   1   6
BRANCH   1   9
ATOM      9  N   UNL     1      -3.874   1.430   0.069  0.00  0.00    +0.000 NA
BRANCH   9  10
ATOM     10  O   UNL     1      -5.250   1.205   0.219  0.00  0.00    +0.000 OA
BRANCH  10  11
ATOM     11  C   UNL     1      -5.970   2.370   0.080  0.00  0.00    +0.000 A 
ATOM     12  C   UNL     1      -5.452   3.575  -0.402  0.00  0.00    +0.000 A 
ATOM     13  C   UNL     1      -6.277   4.697  -0.515  0.00  0.00    +0.000 A 
ATOM     14  C   UNL     1      -7.621   4.618  -0.149  0.00  0.00    +0.000 A 
ATOM     15  C   UNL     1      -8.143   3.416   0.327  0.00  0.00    +0.000 A 
ATOM     16  C   UNL     1      -7.319   2.295   0.439  0.00  0.00    +0.000 A 
ENDBRANCH  10  11
ENDBRANCH   9  10
ENDBRANCH   1   9
TORSDOF 4
