REMARK  Name = *****
REMARK  4 active torsions:
REMARK  status: ('A' for Active; 'I' for Inactive)
REMARK    1  A    between atoms: C_4  and  C_7
REMARK    2  A    between atoms: C_7  and  C_8
REMARK    3  A    between atoms: C_8  and  C_9
REMARK    4  A    between atoms: C_9  and  C_11
REMARK                            x       y       z     vdW  Elec       q    Type
REMARK                         _______ _______ _______ _____ _____    ______ ____
ROOT
ATOM      1  C   UNL     1      -5.102  -0.557  -0.582  0.00  0.00    +0.000 C 
ATOM      2  O   UNL     1      -5.570   0.575  -0.676  0.00  0.00    +0.000 OA
ENDROOT
BRANCH   1   3
ATOM      3  C   UNL     1      -6.019  -1.730  -0.725  0.00  0.00    +0.000 A 
ATOM      4  C   UNL     1      -5.560  -3.050  -0.659  0.00  0.00    +0.000 A 
ATOM      5  C   UNL     1      -6.464  -4.105  -0.800  0.00  0.00    +0.000 A 
ATOM      6  C   UNL     1      -7.820  -3.864  -1.007  0.00  0.00    +0.000 A 
ATOM      7  C   UNL     1      -8.272  -2.550  -1.072  0.00  0.00    +0.000 A 
ATOM      8  C   UNL     1      -7.384  -1.485  -0.934  0.00  0.00    +0.000 A 
ATOM      9 CL   UNL     1      -9.945  -2.239  -1.326  0.00  0.00    +0.000 Cl
ATOM     10 CL   UNL     1      -5.893  -5.727  -0.719  0.00  0.00    +0.000 Cl
ENDBRANCH   1   3
BRANCH   1  11
ATOM     11  C   UNL     1      -3.629  -0.809  -0.324  0.00  0.00    +0.000 C 
BRANCH  11  12
ATOM     12  C   UNL     1      -2.848   0.498  -0.185  0.00  0.00    +0.000 C 
BRANCH  12  16
ATOM     13  C   UNL     1       1.317  -0.305   0.590  0.00  0.00    +0.000 A 
ATOM     14  C   UNL     1       0.860  -0.199  -0.722  0.00  0.00    +0.000 A 
ATOM     15  C   UNL     1      -0.486   0.067  -0.974  0.00  0.00    +0.000 A 
ATOM     16  C   UNL     1      -1.387   0.235   0.086  0.00  0.00    +0.000 A 
ATOM     17  C   UNL     1      -0.918   0.122   1.402  0.00  0.00    +0.000 A 
ATOM     18  C   UNL     1       0.429  -0.145   1.652  0.00  0.00    +0.000 A 
ENDBRANCH  12  16
ENDBRANCH  11  12
ENDBRANCH   1  11
TORSDOF 4
