REMARK  Name = *****
REMARK  2 active torsions:
REMARK  status: ('A' for Active; 'I' for Inactive)
REMARK    1  A    between atoms: C_1  and  C_2
REMARK    2  A    between atoms: C_9  and  C_11
REMARK                            x       y       z     vdW  Elec       q    Type
REMARK                         _______ _______ _______ _____ _____    ______ ____
ROOT
ATOM      1  C   UNL     1       1.038  -0.062  -0.068  0.00  0.00    +0.000 C 
ATOM      2  C   UNL     1       2.539  -0.093  -0.042  0.00  0.00    +0.000 A 
ATOM      3  C   UNL     1       3.224  -1.324  -0.058  0.00  0.00    +0.000 A 
ATOM      4  C   UNL     1       4.626  -1.311  -0.036  0.00  0.00    +0.000 A 
ATOM      5  C   UNL     1       5.284  -0.095  -0.002  0.00  0.00    +0.000 A 
ATOM      6  C   UNL     1       4.659   1.144   0.014  0.00  0.00    +0.000 A 
ATOM      7  C   UNL     1       3.258   1.117  -0.008  0.00  0.00    +0.000 A 
ATOM      8  O   UNL     1       6.624  -0.346   0.013  0.00  0.00    +0.000 OA
ATOM      9  C   UNL     1       6.707  -1.717  -0.015  0.00  0.00    +0.000 A 
ATOM     10  N   UNL     1       5.538  -2.336  -0.044  0.00  0.00    +0.000 NA
ENDROOT
BRANCH   9  11
ATOM     11  C   UNL     1       8.050  -2.294  -0.011  0.00  0.00    +0.000 A 
ATOM     12  C   UNL     1       9.203  -1.495   0.025  0.00  0.00    +0.000 A 
ATOM     13  C   UNL     1      10.475  -2.075   0.027  0.00  0.00    +0.000 A 
ATOM     14  C   UNL     1      10.610  -3.461  -0.006  0.00  0.00    +0.000 A 
ATOM     15  C   UNL     1       9.475  -4.269  -0.041  0.00  0.00    +0.000 A 
ATOM     16  C   UNL     1       8.205  -3.688  -0.043  0.00  0.00    +0.000 A 
ENDBRANCH   9  11
TORSDOF 1
