REMARK  Name = *****
REMARK  2 active torsions:
REMARK  status: ('A' for Active; 'I' for Inactive)
REMARK    1  A    between atoms: C_1  and  C_2
REMARK    2  A    between atoms: C_7  and  C_10
REMARK                            x       y       z     vdW  Elec       q    Type
REMARK                         _______ _______ _______ _____ _____    ______ ____
ROOT
ATOM      1  C   UNL     1       0.944   0.000  -0.152  0.00  0.00    +0.000 C 
ATOM      2  C   UNL     1       2.444   0.005  -0.171  0.00  0.00    +0.000 A 
ATOM      3  C   UNL     1       3.153   1.210  -0.114  0.00  0.00    +0.000 A 
ATOM      4  C   UNL     1       4.558   1.226  -0.093  0.00  0.00    +0.000 A 
ATOM      5  C   UNL     1       5.262   0.011  -0.146  0.00  0.00    +0.000 A 
ATOM      6  C   UNL     1       6.772  -0.032  -0.102  0.00  0.00    +0.000 C 
ATOM      7  C   UNL     1       7.426   1.316  -0.454  0.00  0.00    +0.000 C 
ATOM      8  C   UNL     1       6.742   2.446   0.329  0.00  0.00    +0.000 C 
ATOM      9  C   UNL     1       5.273   2.554  -0.076  0.00  0.00    +0.000 C 
ATOM     10  C   UNL     1       4.549  -1.196  -0.176  0.00  0.00    +0.000 A 
ATOM     11  C   UNL     1       3.154  -1.199  -0.186  0.00  0.00    +0.000 A 
ENDROOT
BRANCH   7  12
ATOM     12  C   UNL     1       8.929   1.281  -0.234  0.00  0.00    +0.000 A 
ATOM     13  C   UNL     1       9.795   1.327  -1.337  0.00  0.00    +0.000 A 
ATOM     14  C   UNL     1      11.179   1.289  -1.159  0.00  0.00    +0.000 A 
ATOM     15  C   UNL     1      11.717   1.202   0.122  0.00  0.00    +0.000 A 
ATOM     16  C   UNL     1      10.870   1.151   1.227  0.00  0.00    +0.000 A 
ATOM     17  C   UNL     1       9.486   1.189   1.051  0.00  0.00    +0.000 A 
ENDBRANCH   7  12
TORSDOF 1
