REMARK  Name = *****
REMARK  3 active torsions:
REMARK  status: ('A' for Active; 'I' for Inactive)
REMARK    1  A    between atoms: C_3  and  C_8
REMARK    2  A    between atoms: C_8  and  O_9
REMARK    3  A    between atoms: O_9  and  C_10
REMARK                            x       y       z     vdW  Elec       q    Type
REMARK                         _______ _______ _______ _____ _____    ______ ____
ROOT
ATOM      1  C   UNL     1      -1.982   2.523   0.007  0.00  0.00    +0.000 C 
ENDROOT
BRANCH   1   4
ATOM      2  C   UNL     1       0.475  -0.237   0.969  0.00  0.00    +0.000 A 
ATOM      3  C   UNL     1      -0.252   0.956   0.983  0.00  0.00    +0.000 A 
ATOM      4  C   UNL     1      -1.188   1.239  -0.026  0.00  0.00    +0.000 A 
ATOM      5  C   UNL     1      -1.384   0.300  -1.047  0.00  0.00    +0.000 A 
ATOM      6  C   UNL     1      -0.654  -0.885  -1.051  0.00  0.00    +0.000 A 
ATOM      7  C   UNL     1       0.272  -1.162  -0.053  0.00  0.00    +0.000 A 
ATOM      8  F   UNL     1      -0.851  -1.775  -2.033  0.00  0.00    +0.000 F 
ENDBRANCH   1   4
BRANCH   1   9
ATOM      9  O   UNL     1      -1.072   3.621  -0.015  0.00  0.00    +0.000 OA
BRANCH   9  10
ATOM     10  C   UNL     1      -1.609   4.877   0.044  0.00  0.00    +0.000 A 
ATOM     11  C   UNL     1      -2.966   5.189   0.115  0.00  0.00    +0.000 A 
ATOM     12  C   UNL     1      -3.360   6.524   0.171  0.00  0.00    +0.000 A 
ATOM     13  C   UNL     1      -2.429   7.556   0.158  0.00  0.00    +0.000 A 
ATOM     14  C   UNL     1      -1.074   7.250   0.086  0.00  0.00    +0.000 A 
ATOM     15  C   UNL     1      -0.668   5.914   0.030  0.00  0.00    +0.000 A 
ATOM     16  F   UNL     1      -4.665   6.818   0.239  0.00  0.00    +0.000 F 
ENDBRANCH   9  10
ENDBRANCH   1   9
TORSDOF 3
