REMARK  Name = *****
REMARK  5 active torsions:
REMARK  status: ('A' for Active; 'I' for Inactive)
REMARK    1  A    between atoms: C_1  and  C_2
REMARK    2  A    between atoms: C_4  and  C_19
REMARK    3  A    between atoms: C_6  and  O_8
REMARK    4  A    between atoms: O_8  and  C_9
REMARK    5  A    between atoms: C_9  and  C_11
REMARK                            x       y       z     vdW  Elec       q    Type
REMARK                         _______ _______ _______ _____ _____    ______ ____
ROOT
ATOM      1  C   UNL     1       1.232  -3.813  -0.411  0.00  0.00    +0.000 C 
ATOM      2  O   UNL     1       1.705  -3.400  -1.456  0.00  0.00    +0.000 OA
ENDROOT
BRANCH   1   3
ATOM      3  C   UNL     1       1.351  -5.200   0.037  0.00  0.00    +0.000 A 
ATOM      4  C   UNL     1       2.603  -5.804   0.074  0.00  0.00    +0.000 A 
ATOM      5  C   UNL     1       2.737  -7.131   0.480  0.00  0.00    +0.000 A 
ATOM      6  C   UNL     1       1.608  -7.864   0.847  0.00  0.00    +0.000 A 
ATOM      7  C   UNL     1       0.348  -7.263   0.806  0.00  0.00    +0.000 A 
ATOM      8  C   UNL     1       0.226  -5.935   0.400  0.00  0.00    +0.000 A 
ATOM      9  F   UNL     1      -0.997  -5.389   0.350  0.00  0.00    +0.000 F 
ATOM     10  F   UNL     1       3.708  -5.118  -0.251  0.00  0.00    +0.000 F 
ENDBRANCH   1   3
BRANCH   1  11
ATOM     11  O   UNL     1       0.559  -3.114   0.572  0.00  0.00    +0.000 OA
BRANCH  11  17
ATOM     12  C   UNL     1       2.476   1.393  -0.087  0.00  0.00    +0.000 C 
ATOM     13  C   UNL     1       1.296   0.476   0.043  0.00  0.00    +0.000 A 
ATOM     14  C   UNL     1      -0.014   0.966  -0.076  0.00  0.00    +0.000 A 
ATOM     15  C   UNL     1      -1.119   0.109   0.034  0.00  0.00    +0.000 A 
ATOM     16  C   UNL     1      -0.905  -1.259   0.232  0.00  0.00    +0.000 A 
ATOM     17  C   UNL     1       0.397  -1.747   0.319  0.00  0.00    +0.000 A 
ATOM     18  C   UNL     1       1.497  -0.893   0.246  0.00  0.00    +0.000 A 
ATOM     19  C   UNL     1      -2.516   0.637  -0.104  0.00  0.00    +0.000 C 
ENDBRANCH  11  17
ENDBRANCH   1  11
TORSDOF 3
