REMARK  Name = *****
REMARK  4 active torsions:
REMARK  status: ('A' for Active; 'I' for Inactive)
REMARK    1  A    between atoms: C_4  and  C_7
REMARK    2  A    between atoms: C_7  and  C_8
REMARK    3  A    between atoms: C_8  and  S_10
REMARK    4  A    between atoms: S_10  and  C_11
REMARK                            x       y       z     vdW  Elec       q    Type
REMARK                         _______ _______ _______ _____ _____    ______ ____
ROOT
ATOM      1  C   UNL     1      -3.787  -0.778  -0.069  0.00  0.00    +0.000 C 
ATOM      2  F   UNL     1      -3.876  -1.151   1.239  0.00  0.00    +0.000 F 
ENDROOT
BRANCH   1   3
ATOM      3  C   UNL     1      -2.915   0.476  -0.166  0.00  0.00    +0.000 C 
BRANCH   3   7
ATOM      4  C   UNL     1       1.244  -0.424   0.570  0.00  0.00    +0.000 A 
ATOM      5  C   UNL     1       0.797  -0.211  -0.733  0.00  0.00    +0.000 A 
ATOM      6  C   UNL     1      -0.547   0.083  -0.973  0.00  0.00    +0.000 A 
ATOM      7  C   UNL     1      -1.455   0.170   0.091  0.00  0.00    +0.000 A 
ATOM      8  C   UNL     1      -0.995  -0.048   1.397  0.00  0.00    +0.000 A 
ATOM      9  C   UNL     1       0.348  -0.343   1.634  0.00  0.00    +0.000 A 
ENDBRANCH   3   7
ENDBRANCH   1   3
BRANCH   1  10
ATOM     10  S   UNL     1      -5.468  -0.411  -0.686  0.00  0.00    +0.000 S 
BRANCH  10  11
ATOM     11  C   UNL     1      -6.116  -2.063  -0.874  0.00  0.00    +0.000 A 
ATOM     12  C   UNL     1      -6.052  -3.011   0.152  0.00  0.00    +0.000 A 
ATOM     13  C   UNL     1      -6.583  -4.290  -0.033  0.00  0.00    +0.000 A 
ATOM     14  C   UNL     1      -7.190  -4.627  -1.242  0.00  0.00    +0.000 A 
ATOM     15  C   UNL     1      -7.273  -3.683  -2.263  0.00  0.00    +0.000 A 
ATOM     16  C   UNL     1      -6.742  -2.404  -2.078  0.00  0.00    +0.000 A 
ENDBRANCH  10  11
ENDBRANCH   1  10
TORSDOF 4
