REMARK  Name = *****
REMARK  4 active torsions:
REMARK  status: ('A' for Active; 'I' for Inactive)
REMARK    1  A    between atoms: C_1  and  C_2
REMARK    2  A    between atoms: C_5  and  S_8
REMARK    3  A    between atoms: S_8  and  C_10
REMARK    4  A    between atoms: C_10  and  C_12
REMARK                            x       y       z     vdW  Elec       q    Type
REMARK                         _______ _______ _______ _____ _____    ______ ____
ROOT
ATOM      1  S   UNL     1      -3.164   0.390  -0.997  0.00  0.00    +0.000 S 
ATOM      2  O   UNL     1      -4.066  -0.789  -0.775  0.00  0.00    +0.000 OA
ENDROOT
BRANCH   1   7
ATOM      3  C   UNL     1       1.080   0.112   3.400  0.00  0.00    +0.000 C 
ATOM      4  C   UNL     1       0.042   0.155   2.317  0.00  0.00    +0.000 A 
ATOM      5  C   UNL     1      -1.266  -0.274   2.571  0.00  0.00    +0.000 A 
ATOM      6  C   UNL     1      -2.239  -0.209   1.571  0.00  0.00    +0.000 A 
ATOM      7  C   UNL     1      -1.919   0.302   0.310  0.00  0.00    +0.000 A 
ATOM      8  C   UNL     1      -0.616   0.739   0.054  0.00  0.00    +0.000 A 
ATOM      9  C   UNL     1       0.357   0.674   1.055  0.00  0.00    +0.000 A 
ENDBRANCH   1   7
BRANCH   1  10
ATOM     10  C   UNL     1      -4.072   1.859  -0.478  0.00  0.00    +0.000 C 
ATOM     11  C   UNL     1      -3.434   3.041  -0.493  0.00  0.00    +0.000 C 
BRANCH  10  12
ATOM     12  C   UNL     1      -5.478   1.757  -0.111  0.00  0.00    +0.000 C 
ATOM     13  C   UNL     1      -5.912   2.105   1.116  0.00  0.00    +0.000 C 
ATOM     14  C   UNL     1      -7.351   2.041   1.541  0.00  0.00    +0.000 C 
ATOM     15  C   UNL     1      -8.249   1.300   0.551  0.00  0.00    +0.000 C 
ATOM     16  C   UNL     1      -7.893   1.655  -0.888  0.00  0.00    +0.000 C 
ATOM     17  C   UNL     1      -6.434   1.299  -1.191  0.00  0.00    +0.000 C 
ENDBRANCH  10  12
ENDBRANCH   1  10
TORSDOF 3
