REMARK  Name = *****
REMARK  4 active torsions:
REMARK  status: ('A' for Active; 'I' for Inactive)
REMARK    1  A    between atoms: C_1  and  N_2
REMARK    2  A    between atoms: N_2  and  C_3
REMARK    3  A    between atoms: N_2  and  C_10
REMARK    4  A    between atoms: C_3  and  C_4
REMARK                            x       y       z     vdW  Elec       q    Type
REMARK                         _______ _______ _______ _____ _____    ______ ____
ROOT
ATOM      1  C   UNL     1       2.361  -0.568   1.510  0.00  0.00    +0.000 C 
ATOM      2  N   UNL     1       2.424  -0.156   0.110  0.00  0.00    +0.000 N 
ENDROOT
BRANCH   2   3
ATOM      3  C   UNL     1       1.713   0.958  -0.326  0.00  0.00    +0.000 A 
ATOM      4  C   UNL     1       0.859   1.679   0.531  0.00  0.00    +0.000 A 
ATOM      5  C   UNL     1       0.138   2.804   0.105  0.00  0.00    +0.000 A 
ATOM      6  C   UNL     1       0.257   3.242  -1.205  0.00  0.00    +0.000 A 
ATOM      7  C   UNL     1       1.089   2.566  -2.084  0.00  0.00    +0.000 A 
ATOM      8  C   UNL     1       1.804   1.443  -1.643  0.00  0.00    +0.000 A 
ATOM      9 CL   UNL     1      -0.624   4.620  -1.737  0.00  0.00    +0.000 Cl
ENDBRANCH   2   3
BRANCH   2  10
ATOM     10  C   UNL     1       3.191  -1.019  -0.796  0.00  0.00    +0.000 C 
BRANCH  10  11
ATOM     11  C   UNL     1       2.276  -1.929  -1.588  0.00  0.00    +0.000 C 
ATOM     12  C   UNL     1       2.284  -1.953  -2.936  0.00  0.00    +0.000 C 
ATOM     13  C   UNL     1       1.382  -2.818  -3.767  0.00  0.00    +0.000 C 
ATOM     14  C   UNL     1       0.249  -3.457  -2.964  0.00  0.00    +0.000 C 
ATOM     15  C   UNL     1       0.757  -3.975  -1.624  0.00  0.00    +0.000 C 
ATOM     16  C   UNL     1       1.370  -2.844  -0.794  0.00  0.00    +0.000 C 
ENDBRANCH  10  11
ENDBRANCH   2  10
TORSDOF 3
