REMARK  Name = *****
REMARK  3 active torsions:
REMARK  status: ('A' for Active; 'I' for Inactive)
REMARK    1  A    between atoms: C_4  and  C_7
REMARK    2  A    between atoms: C_7  and  C_8
REMARK    3  A    between atoms: C_8  and  C_10
REMARK                            x       y       z     vdW  Elec       q    Type
REMARK                         _______ _______ _______ _____ _____    ______ ____
ROOT
ATOM      1  C   UNL     1       3.326  -2.003   0.532  0.00  0.00    +0.000 C 
ATOM      2  O   UNL     1       2.757  -2.517   1.496  0.00  0.00    +0.000 OA
ENDROOT
BRANCH   1   3
ATOM      3  C   UNL     1       4.720  -2.450   0.103  0.00  0.00    +0.000 C 
ATOM      4  C   UNL     1       4.829  -3.979   0.124  0.00  0.00    +0.000 C 
ATOM      5  C   UNL     1       6.245  -4.447  -0.201  0.00  0.00    +0.000 C 
ATOM      6  C   UNL     1       7.271  -3.805   0.728  0.00  0.00    +0.000 C 
ATOM      7  C   UNL     1       7.176  -2.282   0.700  0.00  0.00    +0.000 C 
ATOM      8  C   UNL     1       5.763  -1.799   1.017  0.00  0.00    +0.000 C 
ENDBRANCH   1   3
BRANCH   1   9
ATOM      9  C   UNL     1       2.717  -0.850  -0.256  0.00  0.00    +0.000 C 
BRANCH   9  13
ATOM     10  C   UNL     1      -1.513   0.312  -0.304  0.00  0.00    +0.000 C 
ATOM     11  C   UNL     1      -1.149  -1.070   0.229  0.00  0.00    +0.000 C 
ATOM     12  C   UNL     1       0.254  -1.490  -0.203  0.00  0.00    +0.000 C 
ATOM     13  C   UNL     1       1.310  -0.450   0.215  0.00  0.00    +0.000 C 
ATOM     14  C   UNL     1       0.936   0.932  -0.346  0.00  0.00    +0.000 C 
ATOM     15  C   UNL     1      -0.469   1.355   0.080  0.00  0.00    +0.000 C 
ENDBRANCH   9  13
ENDBRANCH   1   9
TORSDOF 3
