REMARK  Name = *****
REMARK  4 active torsions:
REMARK  status: ('A' for Active; 'I' for Inactive)
REMARK    1  A    between atoms: C_4  and  C_7
REMARK    2  A    between atoms: C_7  and  C_8
REMARK    3  A    between atoms: C_8  and  C_9
REMARK    4  A    between atoms: C_14  and  C_15
REMARK                            x       y       z     vdW  Elec       q    Type
REMARK                         _______ _______ _______ _____ _____    ______ ____
ROOT
ATOM      1  C   UNL     1      -5.042  -0.458  -0.792  0.00  0.00    +0.000 A 
ATOM      2  C   UNL     1      -5.511  -0.020  -2.046  0.00  0.00    +0.000 A 
ATOM      3  C   UNL     1      -6.857   0.279  -2.235  0.00  0.00    +0.000 A 
ATOM      4  C   UNL     1      -7.757   0.154  -1.187  0.00  0.00    +0.000 A 
ATOM      5  C   UNL     1      -7.324  -0.271   0.062  0.00  0.00    +0.000 A 
ATOM      6  C   UNL     1      -5.969  -0.578   0.267  0.00  0.00    +0.000 A 
ATOM      7  F   UNL     1      -9.052   0.444  -1.372  0.00  0.00    +0.000 F 
ATOM      8  F   UNL     1      -7.275   0.690  -3.440  0.00  0.00    +0.000 F 
ENDROOT
BRANCH   6   9
ATOM      9  C   UNL     1      -5.569  -1.027   1.622  0.00  0.00    +0.000 C 
ATOM     10  O   UNL     1      -6.376  -1.106   2.541  0.00  0.00    +0.000 OA
ENDBRANCH   6   9
BRANCH   1  11
ATOM     11  C   UNL     1      -3.564  -0.750  -0.650  0.00  0.00    +0.000 C 
BRANCH  11  12
ATOM     12  C   UNL     1      -2.802   0.421  -0.019  0.00  0.00    +0.000 C 
BRANCH  12  16
ATOM     13  C   UNL     1       1.441  -0.343   0.119  0.00  0.00    +0.000 A 
ATOM     14  C   UNL     1       0.586  -0.998   1.003  0.00  0.00    +0.000 A 
ATOM     15  C   UNL     1      -0.787  -0.748   0.964  0.00  0.00    +0.000 A 
ATOM     16  C   UNL     1      -1.317   0.159   0.036  0.00  0.00    +0.000 A 
ATOM     17  C   UNL     1      -0.448   0.812  -0.849  0.00  0.00    +0.000 A 
ATOM     18  C   UNL     1       0.924   0.562  -0.805  0.00  0.00    +0.000 A 
ENDBRANCH  12  16
ENDBRANCH  11  12
ENDBRANCH   1  11
TORSDOF 4
