REMARK  Name = *****
REMARK  5 active torsions:
REMARK  status: ('A' for Active; 'I' for Inactive)
REMARK    1  A    between atoms: C_1  and  C_2
REMARK    2  A    between atoms: C_5  and  S_7
REMARK    3  A    between atoms: S_7  and  S_8
REMARK    4  A    between atoms: S_8  and  C_9
REMARK    5  A    between atoms: C_11  and  C_14
REMARK                            x       y       z     vdW  Elec       q    Type
REMARK                         _______ _______ _______ _____ _____    ______ ____
ROOT
ATOM      1  S   UNL     1       6.279  -1.643  -2.079  0.00  0.00    +0.000 S 
ENDROOT
BRANCH   1   6
ATOM      2  C   UNL     1       1.638  -0.502   0.410  0.00  0.00    +0.000 C 
ATOM      3  C   UNL     1       3.100  -0.614   0.163  0.00  0.00    +0.000 A 
ATOM      4  N   UNL     1       3.937  -0.179   1.105  0.00  0.00    +0.000 NA
ATOM      5  S   UNL     1       5.495  -0.412   0.590  0.00  0.00    +0.000 S 
ATOM      6  C   UNL     1       5.087  -1.115  -0.913  0.00  0.00    +0.000 A 
ATOM      7  C   UNL     1       3.712  -1.152  -1.016  0.00  0.00    +0.000 A 
ENDBRANCH   1   6
BRANCH   1   8
ATOM      8  S   UNL     1       5.837  -3.654  -2.121  0.00  0.00    +0.000 S 
BRANCH   8   9
ATOM      9  C   UNL     1       6.733  -4.170  -0.710  0.00  0.00    +0.000 A 
ATOM     10  C   UNL     1       8.096  -4.139  -0.501  0.00  0.00    +0.000 A 
ATOM     11  C   UNL     1       8.424  -4.664   0.791  0.00  0.00    +0.000 A 
ATOM     12  N   UNL     1       7.393  -5.080   1.528  0.00  0.00    +0.000 NA
ATOM     13  S   UNL     1       5.992  -4.851   0.671  0.00  0.00    +0.000 S 
ATOM     14  C   UNL     1       9.793  -4.772   1.363  0.00  0.00    +0.000 C 
ENDBRANCH   8   9
ENDBRANCH   1   8
TORSDOF 3
