REMARK  Name = *****
REMARK  5 active torsions:
REMARK  status: ('A' for Active; 'I' for Inactive)
REMARK    1  A    between atoms: C_1  and  C_2
REMARK    2  A    between atoms: C_2  and  C_18
REMARK    3  A    between atoms: P_5  and  S_9
REMARK    4  A    between atoms: S_9  and  C_10
REMARK    5  A    between atoms: C_10  and  C_12
REMARK                            x       y       z     vdW  Elec       q    Type
REMARK                         _______ _______ _______ _____ _____    ______ ____
ROOT
ATOM      1  C   UNL     1      -2.711  -0.630  -1.274  0.00  0.00    +0.000 C 
ATOM      2  C   UNL     1      -1.975  -0.390   0.055  0.00  0.00    +0.000 C 
ATOM      3  C   UNL     1      -0.999  -1.561   0.295  0.00  0.00    +0.000 C 
ATOM      4  O   UNL     1       0.146  -1.106   0.997  0.00  0.00    +0.000 OA
ATOM      5  P   UNL     1       1.154  -0.114   0.188  0.00  0.00    +0.000 P 
ATOM      6  S   UNL     1       2.175   1.026   1.394  0.00  0.00    +0.000 S 
ATOM      7  O   UNL     1       0.042   0.747  -0.645  0.00  0.00    +0.000 OA
ATOM      8  C   UNL     1      -1.205   0.943   0.004  0.00  0.00    +0.000 C 
ATOM      9  C   UNL     1      -3.013  -0.319   1.187  0.00  0.00    +0.000 C 
ENDROOT
BRANCH   5  10
ATOM     10  S   UNL     1       2.184  -1.218  -1.261  0.00  0.00    +0.000 S 
BRANCH  10  11
ATOM     11  C   UNL     1       3.138  -2.256  -0.227  0.00  0.00    +0.000 C 
ATOM     12  O   UNL     1       2.596  -2.971   0.603  0.00  0.00    +0.000 OA
BRANCH  11  13
ATOM     13  C   UNL     1       4.633  -2.240  -0.501  0.00  0.00    +0.000 C 
ATOM     14  C   UNL     1       4.982  -3.323  -1.529  0.00  0.00    +0.000 C 
ATOM     15  C   UNL     1       6.486  -3.398  -1.778  0.00  0.00    +0.000 C 
ATOM     16  C   UNL     1       7.265  -3.590  -0.481  0.00  0.00    +0.000 C 
ATOM     17  C   UNL     1       6.920  -2.516   0.547  0.00  0.00    +0.000 C 
ATOM     18  C   UNL     1       5.417  -2.448   0.802  0.00  0.00    +0.000 C 
ENDBRANCH  11  13
ENDBRANCH  10  11
ENDBRANCH   5  10
TORSDOF 3
