REMARK  Name = *****
REMARK  6 active torsions:
REMARK  status: ('A' for Active; 'I' for Inactive)
REMARK    1  A    between atoms: C_1  and  C_2
REMARK    2  A    between atoms: C_7  and  C_8
REMARK    3  A    between atoms: C_7  and  C_9
REMARK    4  A    between atoms: C_9  and  O_10
REMARK    5  A    between atoms: O_10  and  C_11
REMARK    6  A    between atoms: C_11  and  C_12
REMARK                            x       y       z     vdW  Elec       q    Type
REMARK                         _______ _______ _______ _____ _____    ______ ____
ROOT
ATOM      1  C   UNL     1       3.918  -2.229   0.461  0.00  0.00    +0.000 C 
ENDROOT
BRANCH   1   8
ATOM      2  C   UNL     1       3.893   0.577   1.319  0.00  0.00    +0.000 C 
ATOM      3  C   UNL     1       2.763   0.072   0.404  0.00  0.00    +0.000 C 
ATOM      4  C   UNL     1       2.312   1.215  -0.530  0.00  0.00    +0.000 C 
ATOM      5  C   UNL     1       3.373   1.575  -1.573  0.00  0.00    +0.000 C 
ATOM      6  C   UNL     1       4.061   0.377  -2.153  0.00  0.00    +0.000 C 
ATOM      7  C   UNL     1       3.947  -0.862  -1.653  0.00  0.00    +0.000 C 
ATOM      8  C   UNL     1       3.126  -1.219  -0.419  0.00  0.00    +0.000 C 
ATOM      9  C   UNL     1       1.829  -1.900  -0.915  0.00  0.00    +0.000 C 
ENDBRANCH   1   8
BRANCH   1  10
ATOM     10  O   UNL     1       4.077  -3.484  -0.209  0.00  0.00    +0.000 OA
BRANCH  10  11
ATOM     11  C   UNL     1       4.818  -4.416   0.577  0.00  0.00    +0.000 C 
BRANCH  11  12
ATOM     12  C   UNL     1       4.920  -5.736  -0.145  0.00  0.00    +0.000 A 
ATOM     13  C   UNL     1       6.102  -6.487  -0.082  0.00  0.00    +0.000 A 
ATOM     14  C   UNL     1       6.190  -7.729  -0.715  0.00  0.00    +0.000 A 
ATOM     15  C   UNL     1       5.094  -8.239  -1.408  0.00  0.00    +0.000 A 
ATOM     16  C   UNL     1       3.909  -7.509  -1.468  0.00  0.00    +0.000 A 
ATOM     17  C   UNL     1       3.820  -6.267  -0.836  0.00  0.00    +0.000 A 
ENDBRANCH  11  12
ENDBRANCH  10  11
ENDBRANCH   1  10
TORSDOF 4
