REMARK  Name = *****
REMARK  4 active torsions:
REMARK  status: ('A' for Active; 'I' for Inactive)
REMARK    1  A    between atoms: C_1  and  C_2
REMARK    2  A    between atoms: C_3  and  C_7
REMARK    3  A    between atoms: C_7  and  N_9
REMARK    4  A    between atoms: N_9  and  C_10
REMARK                            x       y       z     vdW  Elec       q    Type
REMARK                         _______ _______ _______ _____ _____    ______ ____
ROOT
ATOM      1  C   UNL     1       0.337  -2.290  -0.768  0.00  0.00    +0.000 C 
ATOM      2  S   UNL     1      -0.970  -2.776  -1.690  0.00  0.00    +0.000 S 
ENDROOT
BRANCH   1   5
ATOM      3  C   UNL     1      -1.661  -0.907   1.321  0.00  0.00    +0.000 C 
ATOM      4  C   UNL     1      -0.517  -0.271   0.599  0.00  0.00    +0.000 A 
ATOM      5  C   UNL     1       0.329  -0.906  -0.304  0.00  0.00    +0.000 A 
ATOM      6  S   UNL     1       1.560   0.148  -0.880  0.00  0.00    +0.000 S 
ATOM      7  C   UNL     1       0.948   1.462   0.016  0.00  0.00    +0.000 A 
ATOM      8  C   UNL     1      -0.152   1.108   0.762  0.00  0.00    +0.000 A 
ENDBRANCH   1   5
BRANCH   1   9
ATOM      9  N   UNL     1       1.463  -2.988  -0.365  0.00  0.00    +0.000 N 
ATOM     10  H   UNL     1       2.092  -2.441   0.158  0.00  0.00    +0.000 HD
BRANCH   9  11
ATOM     11  C   UNL     1       1.900  -4.319  -0.546  0.00  0.00    +0.000 A 
ATOM     12  C   UNL     1       1.203  -5.328  -1.208  0.00  0.00    +0.000 A 
ATOM     13  C   UNL     1       1.742  -6.617  -1.320  0.00  0.00    +0.000 A 
ATOM     14  C   UNL     1       2.985  -6.913  -0.770  0.00  0.00    +0.000 A 
ATOM     15  C   UNL     1       3.693  -5.919  -0.104  0.00  0.00    +0.000 A 
ATOM     16  C   UNL     1       3.153  -4.635   0.007  0.00  0.00    +0.000 A 
ENDBRANCH   9  11
ENDBRANCH   1   9
TORSDOF 3
