REMARK  Name = *****
REMARK  5 active torsions:
REMARK  status: ('A' for Active; 'I' for Inactive)
REMARK    1  A    between atoms: C_3  and  O_8
REMARK    2  A    between atoms: O_8  and  C_9
REMARK    3  A    between atoms: C_9  and  O_11
REMARK    4  A    between atoms: O_11  and  C_12
REMARK    5  A    between atoms: C_12  and  C_13
REMARK                            x       y       z     vdW  Elec       q    Type
REMARK                         _______ _______ _______ _____ _____    ______ ____
ROOT
ATOM      1  O   UNL     1      -1.318   2.620  -0.583  0.00  0.00    +0.000 OA
ENDROOT
BRANCH   1   4
ATOM      2  C   UNL     1      -1.174  -0.858   0.618  0.00  0.00    +0.000 A 
ATOM      3  C   UNL     1      -1.665   0.417   0.333  0.00  0.00    +0.000 A 
ATOM      4  C   UNL     1      -0.819   1.359  -0.256  0.00  0.00    +0.000 A 
ATOM      5  C   UNL     1       0.493   1.043  -0.597  0.00  0.00    +0.000 A 
ATOM      6  C   UNL     1       0.964  -0.230  -0.305  0.00  0.00    +0.000 A 
ATOM      7  C   UNL     1       0.146  -1.181   0.301  0.00  0.00    +0.000 A 
ATOM      8  F   UNL     1       2.227  -0.552  -0.617  0.00  0.00    +0.000 F 
ENDBRANCH   1   4
BRANCH   1   9
ATOM      9  C   UNL     1      -1.258   3.510   0.473  0.00  0.00    +0.000 C 
ATOM     10  O   UNL     1      -0.811   3.303   1.591  0.00  0.00    +0.000 OA
BRANCH   9  11
ATOM     11  O   UNL     1      -1.797   4.687   0.056  0.00  0.00    +0.000 OA
BRANCH  11  12
ATOM     12  C   UNL     1      -1.868   5.740   1.043  0.00  0.00    +0.000 C 
BRANCH  12  13
ATOM     13  C   UNL     1      -3.278   5.906   1.640  0.00  0.00    +0.000 C 
ATOM     14 CL   UNL     1      -4.464   6.275   0.345  0.00  0.00    +0.000 Cl
ATOM     15 CL   UNL     1      -3.817   4.435   2.501  0.00  0.00    +0.000 Cl
ATOM     16 CL   UNL     1      -3.273   7.275   2.800  0.00  0.00    +0.000 Cl
ENDBRANCH  12  13
ENDBRANCH  11  12
ENDBRANCH   9  11
ENDBRANCH   1   9
TORSDOF 5
