REMARK  Name = *****
REMARK  5 active torsions:
REMARK  status: ('A' for Active; 'I' for Inactive)
REMARK    1  A    between atoms: C_1  and  C_2
REMARK    2  A    between atoms: C_2  and  C_3
REMARK    3  A    between atoms: C_2  and  O_8
REMARK    4  A    between atoms: O_8  and  C_9
REMARK    5  A    between atoms: C_9  and  C_11
REMARK                            x       y       z     vdW  Elec       q    Type
REMARK                         _______ _______ _______ _____ _____    ______ ____
ROOT
ATOM      1  C   UNL     1       3.037   2.107   0.872  0.00  0.00    +0.000 C 
ATOM      2  O   UNL     1       3.068   1.879   2.070  0.00  0.00    +0.000 OA
ENDROOT
BRANCH   1   3
ATOM      3  C   UNL     1       3.292   3.450   0.287  0.00  0.00    +0.000 A 
ATOM      4  C   UNL     1       3.240   3.689  -1.091  0.00  0.00    +0.000 A 
ATOM      5  C   UNL     1       3.490   4.970  -1.572  0.00  0.00    +0.000 A 
ATOM      6  C   UNL     1       3.791   6.020  -0.710  0.00  0.00    +0.000 A 
ATOM      7  C   UNL     1       3.845   5.789   0.663  0.00  0.00    +0.000 A 
ATOM      8  C   UNL     1       3.596   4.507   1.160  0.00  0.00    +0.000 A 
ATOM      9  F   UNL     1       3.439   5.197  -2.891  0.00  0.00    +0.000 F 
ENDBRANCH   1   3
BRANCH   1  10
ATOM     10  O   UNL     1       2.774   1.208  -0.107  0.00  0.00    +0.000 OA
BRANCH  10  12
ATOM     11  C   UNL     1       1.038  -0.284   0.653  0.00  0.00    +0.000 C 
ATOM     12  C   UNL     1       2.521  -0.149   0.318  0.00  0.00    +0.000 C 
BRANCH  12  13
ATOM     13  C   UNL     1       2.934  -1.069  -0.838  0.00  0.00    +0.000 C 
ATOM     14  C   UNL     1       2.771  -2.561  -0.551  0.00  0.00    +0.000 C 
ATOM     15  C   UNL     1       3.698  -3.258  -1.545  0.00  0.00    +0.000 C 
ATOM     16  C   UNL     1       4.675  -2.195  -2.044  0.00  0.00    +0.000 C 
ATOM     17  C   UNL     1       4.421  -0.964  -1.184  0.00  0.00    +0.000 C 
ENDBRANCH  12  13
ENDBRANCH  10  12
ENDBRANCH   1  10
TORSDOF 4
