REMARK  Name = *****
REMARK  3 active torsions:
REMARK  status: ('A' for Active; 'I' for Inactive)
REMARK    1  A    between atoms: C_8  and  O_9
REMARK    2  A    between atoms: O_9  and  C_10
REMARK    3  A    between atoms: C_10  and  C_12
REMARK                            x       y       z     vdW  Elec       q    Type
REMARK                         _______ _______ _______ _____ _____    ______ ____
ROOT
ATOM      1  O   UNL     1      -0.220  -1.400  -2.277  0.00  0.00    +0.000 OA
ENDROOT
BRANCH   1   9
ATOM      2  C   UNL     1       0.640   1.452  -0.400  0.00  0.00    +0.000 C 
ATOM      3  C   UNL     1      -0.792   1.087  -0.812  0.00  0.00    +0.000 C 
ATOM      4  C   UNL     1      -1.157  -0.313  -0.283  0.00  0.00    +0.000 C 
ATOM      5  C   UNL     1      -1.039  -0.301   1.250  0.00  0.00    +0.000 C 
ATOM      6  C   UNL     1       0.393   0.063   1.666  0.00  0.00    +0.000 C 
ATOM      7  C   UNL     1       1.264   0.313   0.423  0.00  0.00    +0.000 C 
ATOM      8  C   UNL     1       1.278  -0.962  -0.439  0.00  0.00    +0.000 C 
ATOM      9  C   UNL     1      -0.158  -1.354  -0.839  0.00  0.00    +0.000 C 
ENDBRANCH   1   9
BRANCH   1  10
ATOM     10  C   UNL     1      -1.218  -2.150  -2.807  0.00  0.00    +0.000 C 
ATOM     11  O   UNL     1      -2.044  -2.792  -2.179  0.00  0.00    +0.000 OA
BRANCH  10  12
ATOM     12  C   UNL     1      -1.177  -2.093  -4.294  0.00  0.00    +0.000 A 
ATOM     13  C   UNL     1      -0.255  -1.301  -4.992  0.00  0.00    +0.000 A 
ATOM     14  C   UNL     1      -0.262  -1.282  -6.389  0.00  0.00    +0.000 A 
ATOM     15  C   UNL     1      -1.188  -2.052  -7.094  0.00  0.00    +0.000 A 
ATOM     16  C   UNL     1      -2.109  -2.841  -6.406  0.00  0.00    +0.000 A 
ATOM     17  C   UNL     1      -2.105  -2.862  -5.010  0.00  0.00    +0.000 A 
ENDBRANCH  10  12
ENDBRANCH   1  10
TORSDOF 3
