REMARK  Name = *****
REMARK  5 active torsions:
REMARK  status: ('A' for Active; 'I' for Inactive)
REMARK    1  A    between atoms: C_1  and  C_2
REMARK    2  A    between atoms: C_2  and  C_14
REMARK    3  A    between atoms: N_3  and  O_4
REMARK    4  A    between atoms: O_4  and  C_5
REMARK    5  A    between atoms: C_5  and  C_6
REMARK                            x       y       z     vdW  Elec       q    Type
REMARK                         _______ _______ _______ _____ _____    ______ ____
ROOT
ATOM      1  O   UNL     1       4.622  -0.862   0.700  0.00  0.00    +0.000 OA
ENDROOT
BRANCH   1   4
ATOM      2  C   UNL     1       1.071  -0.213   0.120  0.00  0.00    +0.000 C 
ATOM      3  C   UNL     1       2.583  -0.154   0.032  0.00  0.00    +0.000 C 
ATOM      4  N   UNL     1       3.229  -1.008   0.774  0.00  0.00    +0.000 NA
BRANCH   3   5
ATOM      5  C   UNL     1       3.185   0.843  -0.848  0.00  0.00    +0.000 A 
ATOM      6  C   UNL     1       4.316   0.743  -1.639  0.00  0.00    +0.000 A 
ATOM      7  C   UNL     1       4.596   1.939  -2.362  0.00  0.00    +0.000 A 
ATOM      8  C   UNL     1       3.667   2.921  -2.107  0.00  0.00    +0.000 A 
ATOM      9  S   UNL     1       2.469   2.397  -1.007  0.00  0.00    +0.000 S 
ENDBRANCH   3   5
ENDBRANCH   1   4
BRANCH   1  10
ATOM     10  C   UNL     1       5.239  -1.593   1.763  0.00  0.00    +0.000 C 
BRANCH  10  11
ATOM     11  C   UNL     1       5.285  -0.755   3.017  0.00  0.00    +0.000 A 
ATOM     12  C   UNL     1       4.459  -1.026   4.123  0.00  0.00    +0.000 A 
ATOM     13  C   UNL     1       4.498  -0.220   5.268  0.00  0.00    +0.000 A 
ATOM     14  C   UNL     1       5.356   0.874   5.332  0.00  0.00    +0.000 A 
ATOM     15  C   UNL     1       6.177   1.163   4.248  0.00  0.00    +0.000 A 
ATOM     16  C   UNL     1       6.141   0.360   3.102  0.00  0.00    +0.000 A 
ATOM     17 CL   UNL     1       7.204   0.802   1.808  0.00  0.00    +0.000 Cl
ATOM     18 CL   UNL     1       3.356  -2.358   4.156  0.00  0.00    +0.000 Cl
ENDBRANCH  10  11
ENDBRANCH   1  10
TORSDOF 4
