REMARK  Name = *****
REMARK  5 active torsions:
REMARK  status: ('A' for Active; 'I' for Inactive)
REMARK    1  A    between atoms: C_1  and  C_2
REMARK    2  A    between atoms: C_4  and  C_18
REMARK    3  A    between atoms: C_5  and  C_9
REMARK    4  A    between atoms: C_6  and  C_8
REMARK    5  A    between atoms: C_10  and  C_12
REMARK                            x       y       z     vdW  Elec       q    Type
REMARK                         _______ _______ _______ _____ _____    ______ ____
ROOT
ATOM      1  C   UNL     1       2.192   1.847   0.415  0.00  0.00    +0.000 C 
ATOM      2  C   UNL     1       1.068   0.882   0.185  0.00  0.00    +0.000 A 
ATOM      3  C   UNL     1       1.302  -0.492   0.151  0.00  0.00    +0.000 A 
ATOM      4  C   UNL     1       0.248  -1.405  -0.035  0.00  0.00    +0.000 A 
ATOM      5  C   UNL     1      -1.093  -0.953  -0.145  0.00  0.00    +0.000 A 
ATOM      6  C   UNL     1      -1.312   0.449  -0.134  0.00  0.00    +0.000 A 
ATOM      7  C   UNL     1      -0.241   1.342   0.049  0.00  0.00    +0.000 A 
ATOM      8  C   UNL     1      -2.694   1.025  -0.297  0.00  0.00    +0.000 C 
ATOM      9  C   UNL     1       0.585  -2.875  -0.071  0.00  0.00    +0.000 C 
ENDROOT
BRANCH   5  10
ATOM     10  C   UNL     1      -2.249  -1.930  -0.307  0.00  0.00    +0.000 C 
ATOM     11  C   UNL     1      -3.307  -2.071   0.784  0.00  0.00    +0.000 C 
ATOM     12  O   UNL     1      -2.291  -3.060   0.583  0.00  0.00    +0.000 OA
BRANCH  11  13
ATOM     13  C   UNL     1      -4.720  -2.472   0.439  0.00  0.00    +0.000 A 
ATOM     14  C   UNL     1      -5.241  -3.712   0.849  0.00  0.00    +0.000 A 
ATOM     15  C   UNL     1      -6.552  -4.090   0.547  0.00  0.00    +0.000 A 
ATOM     16  C   UNL     1      -7.375  -3.230  -0.173  0.00  0.00    +0.000 A 
ATOM     17  C   UNL     1      -6.887  -1.995  -0.588  0.00  0.00    +0.000 A 
ATOM     18  C   UNL     1      -5.574  -1.622  -0.281  0.00  0.00    +0.000 A 
ENDBRANCH  11  13
ENDBRANCH   5  10
TORSDOF 2
