REMARK  Name = *****
REMARK  5 active torsions:
REMARK  status: ('A' for Active; 'I' for Inactive)
REMARK    1  A    between atoms: C_1  and  C_2
REMARK    2  A    between atoms: C_3  and  C_11
REMARK    3  A    between atoms: C_4  and  O_9
REMARK    4  A    between atoms: O_9  and  C_10
REMARK    5  A    between atoms: C_12  and  C_13
REMARK                            x       y       z     vdW  Elec       q    Type
REMARK                         _______ _______ _______ _____ _____    ______ ____
ROOT
ATOM      1  C   UNL     1       2.326  -1.396   0.054  0.00  0.00    +0.000 C 
ATOM      2  C   UNL     1       1.294  -0.306   0.044  0.00  0.00    +0.000 A 
ATOM      3  C   UNL     1       1.515   1.020   0.201  0.00  0.00    +0.000 A 
ATOM      4  C   UNL     1       0.333   1.880   0.232  0.00  0.00    +0.000 A 
ATOM      5  C   UNL     1      -0.907   1.395   0.127  0.00  0.00    +0.000 A 
ATOM      6  C   UNL     1      -1.128  -0.036  -0.087  0.00  0.00    +0.000 A 
ATOM      7  O   UNL     1      -2.262  -0.476  -0.230  0.00  0.00    +0.000 OA
ATOM      8  O   UNL     1      -0.020  -0.828  -0.119  0.00  0.00    +0.000 OA
ENDROOT
BRANCH   4   9
ATOM      9  O   UNL     1       0.557   3.221   0.483  0.00  0.00    +0.000 OA
ATOM     10  C   UNL     1       0.562   3.977  -0.729  0.00  0.00    +0.000 C 
ENDBRANCH   4   9
BRANCH   3  11
ATOM     11  C   UNL     1       2.861   1.566   0.359  0.00  0.00    +0.000 C 
ATOM     12  C   UNL     1       3.829   1.468  -0.567  0.00  0.00    +0.000 C 
BRANCH  12  13
ATOM     13  C   UNL     1       5.168   2.059  -0.432  0.00  0.00    +0.000 A 
ATOM     14  C   UNL     1       5.830   2.150   0.800  0.00  0.00    +0.000 A 
ATOM     15  C   UNL     1       7.116   2.692   0.879  0.00  0.00    +0.000 A 
ATOM     16  C   UNL     1       7.759   3.137  -0.274  0.00  0.00    +0.000 A 
ATOM     17  C   UNL     1       7.119   3.036  -1.507  0.00  0.00    +0.000 A 
ATOM     18  C   UNL     1       5.833   2.495  -1.586  0.00  0.00    +0.000 A 
ENDBRANCH  12  13
ENDBRANCH   3  11
TORSDOF 3
