REMARK  Name = *****
REMARK  6 active torsions:
REMARK  status: ('A' for Active; 'I' for Inactive)
REMARK    1  A    between atoms: C_1  and  N_2
REMARK    2  A    between atoms: N_2  and  C_3
REMARK    3  A    between atoms: N_2  and  C_4
REMARK    4  A    between atoms: C_7  and  S_10
REMARK    5  A    between atoms: S_10  and  C_11
REMARK    6  A    between atoms: C_11  and  C_13
REMARK                            x       y       z     vdW  Elec       q    Type
REMARK                         _______ _______ _______ _____ _____    ______ ____
ROOT
ATOM      1  C   UNL     1       3.183  -0.658   0.941  0.00  0.00    +0.000 A 
ATOM      2  C   UNL     1       2.557  -1.630   1.742  0.00  0.00    +0.000 A 
ATOM      3  C   UNL     1       3.273  -2.453   2.624  0.00  0.00    +0.000 A 
ATOM      4  C   UNL     1       4.655  -2.334   2.738  0.00  0.00    +0.000 A 
ATOM      5  C   UNL     1       5.301  -1.361   1.980  0.00  0.00    +0.000 A 
ATOM      6  C   UNL     1       4.575  -0.540   1.102  0.00  0.00    +0.000 A 
ENDROOT
BRANCH   1   8
ATOM      7  C   UNL     1       1.141  -0.285  -0.376  0.00  0.00    +0.000 C 
ATOM      8  N   UNL     1       2.455   0.170   0.076  0.00  0.00    +0.000 N 
ATOM      9  C   UNL     1       3.176   1.032  -0.858  0.00  0.00    +0.000 C 
ENDBRANCH   1   8
BRANCH   4  10
ATOM     10  S   UNL     1       5.590  -3.325   3.881  0.00  0.00    +0.000 S 
BRANCH  10  11
ATOM     11  C   UNL     1       5.275  -4.967   3.320  0.00  0.00    +0.000 C 
ATOM     12  O   UNL     1       4.808  -5.192   2.209  0.00  0.00    +0.000 OA
BRANCH  11  13
ATOM     13  C   UNL     1       5.606  -6.103   4.238  0.00  0.00    +0.000 A 
ATOM     14  C   UNL     1       6.166  -5.943   5.514  0.00  0.00    +0.000 A 
ATOM     15  C   UNL     1       6.443  -7.058   6.312  0.00  0.00    +0.000 A 
ATOM     16  C   UNL     1       6.164  -8.341   5.846  0.00  0.00    +0.000 A 
ATOM     17  C   UNL     1       5.608  -8.515   4.582  0.00  0.00    +0.000 A 
ATOM     18  C   UNL     1       5.331  -7.404   3.782  0.00  0.00    +0.000 A 
ENDBRANCH  11  13
ENDBRANCH  10  11
ENDBRANCH   4  10
TORSDOF 4
