REMARK  Name = *****
REMARK  4 active torsions:
REMARK  status: ('A' for Active; 'I' for Inactive)
REMARK    1  A    between atoms: C_1  and  C_2
REMARK    2  A    between atoms: C_5  and  C_7
REMARK    3  A    between atoms: C_8  and  C_9
REMARK    4  A    between atoms: C_12  and  C_14
REMARK                            x       y       z     vdW  Elec       q    Type
REMARK                         _______ _______ _______ _____ _____    ______ ____
ROOT
ATOM      1  C   UNL     1      -2.990   0.650   0.032  0.00  0.00    +0.000 C 
ATOM      2  C   UNL     1      -4.133  -0.055   0.039  0.00  0.00    +0.000 C 
ENDROOT
BRANCH   1   7
ATOM      3  C   UNL     1       2.240  -0.074   0.006  0.00  0.00    +0.000 C 
ATOM      4  C   UNL     1       0.767  -0.301   0.010  0.00  0.00    +0.000 A 
ATOM      5  C   UNL     1       0.085  -1.496   0.006  0.00  0.00    +0.000 A 
ATOM      6  C   UNL     1      -1.329  -1.309   0.013  0.00  0.00    +0.000 A 
ATOM      7  C   UNL     1      -1.705   0.025   0.023  0.00  0.00    +0.000 A 
ATOM      8  S   UNL     1      -0.300   1.031   0.023  0.00  0.00    +0.000 S 
ENDBRANCH   1   7
BRANCH   2   9
ATOM      9  C   UNL     1      -5.420   0.566   0.048  0.00  0.00    +0.000 A 
ATOM     10  C   UNL     1      -5.794   1.901   0.056  0.00  0.00    +0.000 A 
ATOM     11  C   UNL     1      -7.207   2.092   0.062  0.00  0.00    +0.000 A 
ATOM     12  C   UNL     1      -7.892   0.898   0.059  0.00  0.00    +0.000 A 
ATOM     13  S   UNL     1      -6.827  -0.435   0.049  0.00  0.00    +0.000 S 
ATOM     14  C   UNL     1      -9.365   0.673   0.063  0.00  0.00    +0.000 C 
ENDBRANCH   2   9
TORSDOF 2
