REMARK  Name = *****
REMARK  7 active torsions:
REMARK  status: ('A' for Active; 'I' for Inactive)
REMARK    1  A    between atoms: C_1  and  C_2
REMARK    2  A    between atoms: C_5  and  S_8
REMARK    3  A    between atoms: S_8  and  C_9
REMARK    4  A    between atoms: C_9  and  C_10
REMARK    5  A    between atoms: C_12  and  C_16
REMARK    6  A    between atoms: C_12  and  O_17
REMARK    7  A    between atoms: O_17  and  C_18
REMARK                            x       y       z     vdW  Elec       q    Type
REMARK                         _______ _______ _______ _____ _____    ______ ____
ROOT
ATOM      1  C   UNL     1      -4.197   1.754   0.305  0.00  0.00    +0.000 C 
ENDROOT
BRANCH   1   2
ATOM      2  C   UNL     1      -5.728   1.906   0.179  0.00  0.00    +0.000 C 
ATOM      3  C   UNL     1      -6.468   0.634  -0.300  0.00  0.00    +0.000 C 
ATOM      4  C   UNL     1      -6.642   0.495  -1.831  0.00  0.00    +0.000 C 
ATOM      5  C   UNL     1      -7.301   1.783  -2.387  0.00  0.00    +0.000 C 
ATOM      6  C   UNL     1      -6.764   3.059  -1.809  0.00  0.00    +0.000 C 
ATOM      7  C   UNL     1      -6.054   3.111  -0.674  0.00  0.00    +0.000 C 
ATOM      8  C   UNL     1      -5.312   0.245  -2.562  0.00  0.00    +0.000 C 
BRANCH   4   9
ATOM      9  O   UNL     1      -7.570  -0.565  -2.152  0.00  0.00    +0.000 OA
ATOM     10  C   UNL     1      -7.247  -1.868  -1.688  0.00  0.00    +0.000 C 
ENDBRANCH   4   9
ENDBRANCH   1   2
BRANCH   1  11
ATOM     11  S   UNL     1      -3.709   0.536   1.583  0.00  0.00    +0.000 S 
BRANCH  11  16
ATOM     12  C   UNL     1       2.319   0.387   0.694  0.00  0.00    +0.000 C 
ATOM     13  C   UNL     1       0.832   0.440   0.884  0.00  0.00    +0.000 A 
ATOM     14  C   UNL     1       0.215   1.612   1.335  0.00  0.00    +0.000 A 
ATOM     15  C   UNL     1      -1.166   1.651   1.546  0.00  0.00    +0.000 A 
ATOM     16  C   UNL     1      -1.948   0.517   1.313  0.00  0.00    +0.000 A 
ATOM     17  C   UNL     1      -1.331  -0.663   0.890  0.00  0.00    +0.000 A 
ATOM     18  C   UNL     1       0.050  -0.702   0.678  0.00  0.00    +0.000 A 
ENDBRANCH  11  16
ENDBRANCH   1  11
TORSDOF 4
