REMARK  Name = *****
REMARK  4 active torsions:
REMARK  status: ('A' for Active; 'I' for Inactive)
REMARK    1  A    between atoms: C_1  and  C_2
REMARK    2  A    between atoms: C_2  and  S_4
REMARK    3  A    between atoms: S_4  and  C_5
REMARK    4  A    between atoms: C_10  and  C_11
REMARK                            x       y       z     vdW  Elec       q    Type
REMARK                         _______ _______ _______ _____ _____    ______ ____
ROOT
ATOM      1  C   UNL     1       5.018  -1.278  -0.516  0.00  0.00    +0.000 C 
ATOM      2  C   UNL     1       5.358  -1.651   0.945  0.00  0.00    +0.000 C 
ATOM      3  C   UNL     1       5.495  -3.127   1.195  0.00  0.00    +0.000 C 
ATOM      4  C   UNL     1       5.590  -4.036   0.215  0.00  0.00    +0.000 C 
ATOM      5  C   UNL     1       5.595  -3.677  -1.243  0.00  0.00    +0.000 C 
ATOM      6  C   UNL     1       5.770  -2.170  -1.532  0.00  0.00    +0.000 C 
ENDROOT
BRANCH   6   7
ATOM      7  C   UNL     1       7.227  -1.810  -1.605  0.00  0.00    +0.000 A 
ATOM      8  N   UNL     1       7.942  -1.034  -0.811  0.00  0.00    +0.000 NA
ATOM      9  C   UNL     1       9.193  -1.055  -1.373  0.00  0.00    +0.000 A 
ATOM     10  C   UNL     1      10.388  -0.434  -0.987  0.00  0.00    +0.000 A 
ATOM     11  C   UNL     1      11.528  -0.646  -1.778  0.00  0.00    +0.000 A 
ATOM     12  C   UNL     1      11.476  -1.454  -2.922  0.00  0.00    +0.000 A 
ATOM     13  C   UNL     1      10.288  -2.079  -3.320  0.00  0.00    +0.000 A 
ATOM     14  C   UNL     1       9.184  -1.844  -2.510  0.00  0.00    +0.000 A 
ATOM     15  O   UNL     1       7.919  -2.328  -2.672  0.00  0.00    +0.000 OA
ENDBRANCH   6   7
BRANCH   1  16
ATOM     16  S   UNL     1       3.195  -1.422  -0.820  0.00  0.00    +0.000 S 
BRANCH  16  18
ATOM     17  C   UNL     1       1.125   0.010   0.261  0.00  0.00    +0.000 C 
ATOM     18  C   UNL     1       2.615  -0.024   0.079  0.00  0.00    +0.000 C 
ATOM     19  O   UNL     1       3.364   0.845   0.506  0.00  0.00    +0.000 OA
ENDBRANCH  16  18
ENDBRANCH   1  16
TORSDOF 3
