REMARK  Name = *****
REMARK  2 active torsions:
REMARK  status: ('A' for Active; 'I' for Inactive)
REMARK    1  A    between atoms: C_1  and  C_2
REMARK    2  A    between atoms: C_5  and  C_8
REMARK                            x       y       z     vdW  Elec       q    Type
REMARK                         _______ _______ _______ _____ _____    ______ ____
ROOT
ATOM      1  C   UNL     1      -3.223   0.055  -0.074  0.00  0.00    +0.000 A 
ATOM      2  C   UNL     1      -3.923   0.995  -0.850  0.00  0.00    +0.000 A 
ATOM      3  C   UNL     1      -5.318   1.004  -0.855  0.00  0.00    +0.000 A 
ATOM      4  C   UNL     1      -6.034   0.084  -0.092  0.00  0.00    +0.000 A 
ATOM      5  C   UNL     1      -5.365  -0.855   0.684  0.00  0.00    +0.000 A 
ATOM      6  C   UNL     1      -3.966  -0.866   0.691  0.00  0.00    +0.000 A 
ATOM      7  S   UNL     1      -7.802   0.195  -0.182  0.00  0.00    +0.000 S 
ATOM      8  C   UNL     1      -7.859   1.550  -1.305  0.00  0.00    +0.000 A 
ATOM      9  O   UNL     1      -8.908   2.034  -1.704  0.00  0.00    +0.000 OA
ATOM     10  S   UNL     1      -6.281   2.151  -1.807  0.00  0.00    +0.000 S 
ENDROOT
BRANCH   1  15
ATOM     11  C   UNL     1       2.581  -0.031   0.005  0.00  0.00    +0.000 C 
ATOM     12  C   UNL     1       1.082   0.000  -0.042  0.00  0.00    +0.000 A 
ATOM     13  C   UNL     1       0.385   1.174   0.257  0.00  0.00    +0.000 A 
ATOM     14  C   UNL     1      -1.014   1.191   0.242  0.00  0.00    +0.000 A 
ATOM     15  C   UNL     1      -1.751   0.035  -0.059  0.00  0.00    +0.000 A 
ATOM     16  C   UNL     1      -1.040  -1.141  -0.342  0.00  0.00    +0.000 A 
ATOM     17  C   UNL     1       0.359  -1.161  -0.330  0.00  0.00    +0.000 A 
ENDBRANCH   1  15
TORSDOF 1
