REMARK  Name = *****
REMARK  3 active torsions:
REMARK  status: ('A' for Active; 'I' for Inactive)
REMARK    1  A    between atoms: C_4  and  C_7
REMARK    2  A    between atoms: C_8  and  C_9
REMARK    3  A    between atoms: C_9  and  C_11
REMARK                            x       y       z     vdW  Elec       q    Type
REMARK                         _______ _______ _______ _____ _____    ______ ____
ROOT
ATOM      1  C   UNL     1      -2.728   0.667   0.138  0.00  0.00    +0.000 C 
ATOM      2  C   UNL     1      -3.263   1.792  -0.355  0.00  0.00    +0.000 C 
ATOM      3  F   UNL     1      -3.589  -0.194   0.734  0.00  0.00    +0.000 F 
ENDROOT
BRANCH   1   7
ATOM      4  C   UNL     1       1.354  -0.561   0.445  0.00  0.00    +0.000 A 
ATOM      5  C   UNL     1       0.571  -0.409   1.588  0.00  0.00    +0.000 A 
ATOM      6  C   UNL     1      -0.759   0.003   1.473  0.00  0.00    +0.000 A 
ATOM      7  C   UNL     1      -1.315   0.279   0.216  0.00  0.00    +0.000 A 
ATOM      8  C   UNL     1      -0.525   0.101  -0.925  0.00  0.00    +0.000 A 
ATOM      9  C   UNL     1       0.806  -0.309  -0.811  0.00  0.00    +0.000 A 
ENDBRANCH   1   7
BRANCH   2  10
ATOM     10  C   UNL     1      -2.533   2.923  -0.981  0.00  0.00    +0.000 C 
ATOM     11  O   UNL     1      -1.540   2.764  -1.679  0.00  0.00    +0.000 OA
BRANCH  10  12
ATOM     12  C   UNL     1      -3.112   4.286  -0.815  0.00  0.00    +0.000 A 
ATOM     13  C   UNL     1      -3.925   4.629   0.275  0.00  0.00    +0.000 A 
ATOM     14  C   UNL     1      -4.438   5.925   0.386  0.00  0.00    +0.000 A 
ATOM     15  C   UNL     1      -4.135   6.883  -0.581  0.00  0.00    +0.000 A 
ATOM     16  C   UNL     1      -3.314   6.553  -1.658  0.00  0.00    +0.000 A 
ATOM     17  C   UNL     1      -2.800   5.261  -1.773  0.00  0.00    +0.000 A 
ENDBRANCH  10  12
ENDBRANCH   2  10
TORSDOF 3
