REMARK  Name = *****
REMARK  3 active torsions:
REMARK  status: ('A' for Active; 'I' for Inactive)
REMARK    1  A    between atoms: C_2  and  C_3
REMARK    2  A    between atoms: C_2  and  C_11
REMARK    3  A    between atoms: C_3  and  C_4
REMARK                            x       y       z     vdW  Elec       q    Type
REMARK                         _______ _______ _______ _____ _____    ______ ____
ROOT
ATOM      1  C   UNL     1       0.671   0.060   0.333  0.00  0.00    +0.000 C 
ATOM      2  C   UNL     1       1.988   0.022   0.068  0.00  0.00    +0.000 C 
ENDROOT
BRANCH   2   3
ATOM      3  C   UNL     1       2.948   0.050   1.188  0.00  0.00    +0.000 A 
ATOM      4  C   UNL     1       3.776  -1.050   1.446  0.00  0.00    +0.000 A 
ATOM      5  C   UNL     1       4.691  -1.015   2.501  0.00  0.00    +0.000 A 
ATOM      6  C   UNL     1       4.786   0.120   3.305  0.00  0.00    +0.000 A 
ATOM      7  C   UNL     1       3.965   1.219   3.058  0.00  0.00    +0.000 A 
ATOM      8  C   UNL     1       3.049   1.183   2.005  0.00  0.00    +0.000 A 
ENDBRANCH   2   3
BRANCH   2   9
ATOM      9  C   UNL     1       2.542  -0.109  -1.332  0.00  0.00    +0.000 C 
BRANCH   9  10
ATOM     10  C   UNL     1       3.187   1.165  -1.837  0.00  0.00    +0.000 A 
ATOM     11  C   UNL     1       4.565   1.380  -1.671  0.00  0.00    +0.000 A 
ATOM     12  C   UNL     1       5.153   2.564  -2.117  0.00  0.00    +0.000 A 
ATOM     13  C   UNL     1       4.365   3.535  -2.724  0.00  0.00    +0.000 A 
ATOM     14  C   UNL     1       2.999   3.346  -2.890  0.00  0.00    +0.000 A 
ATOM     15  C   UNL     1       2.408   2.163  -2.444  0.00  0.00    +0.000 A 
ATOM     16  F   UNL     1       4.931   4.672  -3.150  0.00  0.00    +0.000 F 
ENDBRANCH   9  10
ENDBRANCH   2   9
TORSDOF 3
