REMARK  Name = *****
REMARK  3 active torsions:
REMARK  status: ('A' for Active; 'I' for Inactive)
REMARK    1  A    between atoms: C_4  and  S_7
REMARK    2  A    between atoms: S_7  and  C_8
REMARK    3  A    between atoms: C_8  and  C_10
REMARK                            x       y       z     vdW  Elec       q    Type
REMARK                         _______ _______ _______ _____ _____    ______ ____
ROOT
ATOM      1  C   UNL     1      -3.964  -0.918  -0.334  0.00  0.00    +0.000 C 
ATOM      2  O   UNL     1      -3.351  -1.965  -0.164  0.00  0.00    +0.000 OA
ENDROOT
BRANCH   1   3
ATOM      3  C   UNL     1      -5.430  -0.951  -0.619  0.00  0.00    +0.000 A 
ATOM      4  C   UNL     1      -6.288   0.134  -0.381  0.00  0.00    +0.000 A 
ATOM      5  C   UNL     1      -7.651   0.031  -0.675  0.00  0.00    +0.000 A 
ATOM      6  C   UNL     1      -8.156  -1.153  -1.202  0.00  0.00    +0.000 A 
ATOM      7  C   UNL     1      -7.325  -2.241  -1.435  0.00  0.00    +0.000 A 
ATOM      8  C   UNL     1      -5.964  -2.144  -1.139  0.00  0.00    +0.000 A 
ATOM      9  F   UNL     1      -9.461  -1.245  -1.484  0.00  0.00    +0.000 F 
ENDBRANCH   1   3
BRANCH   1  10
ATOM     10  S   UNL     1      -3.181   0.658  -0.294  0.00  0.00    +0.000 S 
BRANCH  10  14
ATOM     11  C   UNL     1       1.270  -0.154  -1.056  0.00  0.00    +0.000 A 
ATOM     12  C   UNL     1       0.315  -0.798  -1.840  0.00  0.00    +0.000 A 
ATOM     13  C   UNL     1      -1.046  -0.571  -1.614  0.00  0.00    +0.000 A 
ATOM     14  C   UNL     1      -1.463   0.288  -0.591  0.00  0.00    +0.000 A 
ATOM     15  C   UNL     1      -0.494   0.939   0.183  0.00  0.00    +0.000 A 
ATOM     16  C   UNL     1       0.866   0.717  -0.047  0.00  0.00    +0.000 A 
ENDBRANCH  10  14
ENDBRANCH   1  10
TORSDOF 3
