REMARK  Name = *****
REMARK  5 active torsions:
REMARK  status: ('A' for Active; 'I' for Inactive)
REMARK    1  A    between atoms: C_1  and  C_2
REMARK    2  A    between atoms: C_5  and  C_8
REMARK    3  A    between atoms: C_9  and  C_10
REMARK    4  A    between atoms: C_10  and  S_11
REMARK    5  A    between atoms: S_11  and  C_12
REMARK                            x       y       z     vdW  Elec       q    Type
REMARK                         _______ _______ _______ _____ _____    ______ ____
ROOT
ATOM      1  C   UNL     1      -3.283  -0.099   0.004  0.00  0.00    +0.000 C 
ATOM      2  C   UNL     1      -4.096   0.877  -0.433  0.00  0.00    +0.000 C 
ENDROOT
BRANCH   1   7
ATOM      3  C   UNL     1       2.505   0.041  -0.039  0.00  0.00    +0.000 C 
ATOM      4  C   UNL     1       1.006   0.024  -0.061  0.00  0.00    +0.000 A 
ATOM      5  C   UNL     1       0.278   1.181   0.237  0.00  0.00    +0.000 A 
ATOM      6  C   UNL     1      -1.120   1.156   0.250  0.00  0.00    +0.000 A 
ATOM      7  C   UNL     1      -1.816  -0.025  -0.034  0.00  0.00    +0.000 A 
ATOM      8  C   UNL     1      -1.084  -1.188  -0.300  0.00  0.00    +0.000 A 
ATOM      9  C   UNL     1       0.314  -1.165  -0.314  0.00  0.00    +0.000 A 
ENDBRANCH   1   7
BRANCH   2  10
ATOM     10  C   UNL     1      -5.592   0.791  -0.407  0.00  0.00    +0.000 C 
BRANCH  10  11
ATOM     11  S   UNL     1      -6.235   2.070   0.693  0.00  0.00    +0.000 S 
BRANCH  11  12
ATOM     12  C   UNL     1      -7.961   1.668   0.501  0.00  0.00    +0.000 C 
ATOM     13  F   UNL     1      -8.351   1.770  -0.791  0.00  0.00    +0.000 F 
ATOM     14  F   UNL     1      -8.222   0.401   0.901  0.00  0.00    +0.000 F 
ATOM     15  F   UNL     1      -8.747   2.493   1.229  0.00  0.00    +0.000 F 
ENDBRANCH  11  12
ENDBRANCH  10  11
ENDBRANCH   2  10
TORSDOF 4
