REMARK  Name = *****
REMARK  2 active torsions:
REMARK  status: ('A' for Active; 'I' for Inactive)
REMARK    1  A    between atoms: C_3  and  C_8
REMARK    2  A    between atoms: N_9  and  C_10
REMARK                            x       y       z     vdW  Elec       q    Type
REMARK                         _______ _______ _______ _____ _____    ______ ____
ROOT
ATOM      1  C   UNL     1      -1.835   2.621  -0.117  0.00  0.00    +0.000 C 
ATOM      2  N   UNL     1      -1.296   3.683   0.392  0.00  0.00    +0.000 NA
ENDROOT
BRANCH   1   5
ATOM      3  C   UNL     1      -1.189  -1.053  -0.600  0.00  0.00    +0.000 A 
ATOM      4  C   UNL     1      -1.807   0.200  -0.632  0.00  0.00    +0.000 A 
ATOM      5  C   UNL     1      -1.163   1.309  -0.071  0.00  0.00    +0.000 A 
ATOM      6  C   UNL     1       0.095   1.172   0.519  0.00  0.00    +0.000 A 
ATOM      7  C   UNL     1       0.697  -0.079   0.542  0.00  0.00    +0.000 A 
ATOM      8  C   UNL     1       0.068  -1.191  -0.011  0.00  0.00    +0.000 A 
ATOM      9  F   UNL     1       1.904  -0.221   1.106  0.00  0.00    +0.000 F 
ENDBRANCH   1   5
BRANCH   2  10
ATOM     10  C   UNL     1      -2.042   4.863   0.280  0.00  0.00    +0.000 A 
ATOM     11  C   UNL     1      -2.980   5.202   1.261  0.00  0.00    +0.000 A 
ATOM     12  C   UNL     1      -3.712   6.387   1.157  0.00  0.00    +0.000 A 
ATOM     13  C   UNL     1      -3.491   7.232   0.075  0.00  0.00    +0.000 A 
ATOM     14  C   UNL     1      -2.552   6.919  -0.900  0.00  0.00    +0.000 A 
ATOM     15  C   UNL     1      -1.822   5.733  -0.793  0.00  0.00    +0.000 A 
ATOM     16  F   UNL     1      -4.192   8.369  -0.025  0.00  0.00    +0.000 F 
ENDBRANCH   2  10
TORSDOF 2
