REMARK  Name = *****
REMARK  3 active torsions:
REMARK  status: ('A' for Active; 'I' for Inactive)
REMARK    1  A    between atoms: C_4  and  N_7
REMARK    2  A    between atoms: N_7  and  C_8
REMARK    3  A    between atoms: C_8  and  C_9
REMARK                            x       y       z     vdW  Elec       q    Type
REMARK                         _______ _______ _______ _____ _____    ______ ____
ROOT
ATOM      1  N   UNL     1       2.784  -0.510  -0.335  0.00  0.00    +0.000 NA
ENDROOT
BRANCH   1   5
ATOM      2  C   UNL     1      -1.412   0.279  -0.217  0.00  0.00    +0.000 C 
ATOM      3  C   UNL     1      -0.940  -1.118   0.178  0.00  0.00    +0.000 C 
ATOM      4  C   UNL     1       0.495  -1.376  -0.273  0.00  0.00    +0.000 C 
ATOM      5  C   UNL     1       1.452  -0.299   0.249  0.00  0.00    +0.000 C 
ATOM      6  C   UNL     1       0.975   1.098  -0.162  0.00  0.00    +0.000 C 
ATOM      7  C   UNL     1      -0.460   1.358   0.290  0.00  0.00    +0.000 C 
ENDBRANCH   1   5
BRANCH   1   8
ATOM      8  C   UNL     1       3.563  -1.271   0.354  0.00  0.00    +0.000 C 
BRANCH   8   9
ATOM      9  C   UNL     1       4.938  -1.583  -0.085  0.00  0.00    +0.000 A 
ATOM     10  C   UNL     1       5.448  -1.050  -1.272  0.00  0.00    +0.000 A 
ATOM     11  C   UNL     1       6.751  -1.357  -1.666  0.00  0.00    +0.000 A 
ATOM     12  C   UNL     1       7.540  -2.194  -0.876  0.00  0.00    +0.000 A 
ATOM     13  C   UNL     1       7.030  -2.726   0.309  0.00  0.00    +0.000 A 
ATOM     14  C   UNL     1       5.727  -2.421   0.708  0.00  0.00    +0.000 A 
ENDBRANCH   8   9
ENDBRANCH   1   8
TORSDOF 3
