REMARK  Name = *****
REMARK  6 active torsions:
REMARK  status: ('A' for Active; 'I' for Inactive)
REMARK    1  A    between atoms: C_1  and  C_2
REMARK    2  A    between atoms: C_4  and  C_8
REMARK    3  A    between atoms: C_8  and  S_9
REMARK    4  A    between atoms: S_9  and  C_11
REMARK    5  A    between atoms: C_13  and  C_18
REMARK    6  A    between atoms: C_15  and  C_17
REMARK                            x       y       z     vdW  Elec       q    Type
REMARK                         _______ _______ _______ _____ _____    ______ ____
ROOT
ATOM      1  S   UNL     1      -0.374   4.006   0.406  0.00  0.00    +0.000 S 
ATOM      2  O   UNL     1       0.769   4.219  -0.545  0.00  0.00    +0.000 OA
ENDROOT
BRANCH   1   3
ATOM      3  C   UNL     1      -1.437   5.463   0.225  0.00  0.00    +0.000 A 
ATOM      4  C   UNL     1      -2.645   5.548   0.927  0.00  0.00    +0.000 A 
ATOM      5  C   UNL     1      -3.474   6.670   0.790  0.00  0.00    +0.000 A 
ATOM      6  C   UNL     1      -3.057   7.732  -0.024  0.00  0.00    +0.000 A 
ATOM      7  C   UNL     1      -1.843   7.671  -0.717  0.00  0.00    +0.000 A 
ATOM      8  C   UNL     1      -1.039   6.532  -0.587  0.00  0.00    +0.000 A 
ATOM      9  C   UNL     1      -1.381   8.813  -1.573  0.00  0.00    +0.000 C 
ATOM     10  C   UNL     1      -4.761   6.766   1.554  0.00  0.00    +0.000 C 
ENDBRANCH   1   3
BRANCH   1  11
ATOM     11  C   UNL     1      -1.510   2.786  -0.337  0.00  0.00    +0.000 C 
BRANCH  11  15
ATOM     12  C   UNL     1      -0.008  -1.462   1.954  0.00  0.00    +0.000 C 
ATOM     13  C   UNL     1      -0.202  -0.653   0.706  0.00  0.00    +0.000 A 
ATOM     14  C   UNL     1      -0.768   0.628   0.761  0.00  0.00    +0.000 A 
ATOM     15  C   UNL     1      -0.904   1.406  -0.400  0.00  0.00    +0.000 A 
ATOM     16  C   UNL     1      -0.456   0.887  -1.622  0.00  0.00    +0.000 A 
ATOM     17  C   UNL     1       0.110  -0.386  -1.683  0.00  0.00    +0.000 A 
ATOM     18  C   UNL     1       0.240  -1.151  -0.525  0.00  0.00    +0.000 A 
ENDBRANCH  11  15
ENDBRANCH   1  11
TORSDOF 3
