REMARK  Name = *****
REMARK  4 active torsions:
REMARK  status: ('A' for Active; 'I' for Inactive)
REMARK    1  A    between atoms: C_1  and  C_2
REMARK    2  A    between atoms: C_2  and  O_8
REMARK    3  A    between atoms: O_8  and  C_9
REMARK    4  A    between atoms: C_9  and  C_11
REMARK                            x       y       z     vdW  Elec       q    Type
REMARK                         _______ _______ _______ _____ _____    ______ ____
ROOT
ATOM      1  O   UNL     1       3.009  -0.194   1.297  0.00  0.00    +0.000 OA
ENDROOT
BRANCH   1   3
ATOM      2  C   UNL     1       0.702  -0.037   0.475  0.00  0.00    +0.000 C 
ATOM      3  C   UNL     1       2.187  -0.136   0.095  0.00  0.00    +0.000 C 
ATOM      4  C   UNL     1       2.600   1.171  -0.618  0.00  0.00    +0.000 C 
ATOM      5  C   UNL     1       4.074   1.161  -1.040  0.00  0.00    +0.000 C 
ATOM      6  C   UNL     1       4.501  -0.139  -1.653  0.00  0.00    +0.000 C 
ATOM      7  C   UNL     1       3.766  -1.257  -1.581  0.00  0.00    +0.000 C 
ATOM      8  C   UNL     1       2.451  -1.335  -0.851  0.00  0.00    +0.000 C 
ENDBRANCH   1   3
BRANCH   1   9
ATOM      9  C   UNL     1       2.890  -1.218   2.174  0.00  0.00    +0.000 C 
ATOM     10  O   UNL     1       2.109  -2.152   2.102  0.00  0.00    +0.000 OA
BRANCH   9  11
ATOM     11  C   UNL     1       3.859  -1.052   3.292  0.00  0.00    +0.000 A 
ATOM     12  C   UNL     1       3.834  -1.989   4.334  0.00  0.00    +0.000 A 
ATOM     13  C   UNL     1       4.723  -1.877   5.405  0.00  0.00    +0.000 A 
ATOM     14  C   UNL     1       5.641  -0.829   5.442  0.00  0.00    +0.000 A 
ATOM     15  C   UNL     1       5.675   0.107   4.409  0.00  0.00    +0.000 A 
ATOM     16  C   UNL     1       4.788  -0.002   3.335  0.00  0.00    +0.000 A 
ENDBRANCH   9  11
ENDBRANCH   1   9
TORSDOF 3
