REMARK  Name = *****
REMARK  3 active torsions:
REMARK  status: ('A' for Active; 'I' for Inactive)
REMARK    1  A    between atoms: C_5  and  C_7
REMARK    2  A    between atoms: C_7  and  O_8
REMARK    3  A    between atoms: O_8  and  C_9
REMARK                            x       y       z     vdW  Elec       q    Type
REMARK                         _______ _______ _______ _____ _____    ______ ____
ROOT
ATOM      1  C   UNL     1      -0.565  -2.398  -0.278  0.00  0.00    +0.000 C 
ENDROOT
BRANCH   1   6
ATOM      2  C   UNL     1       0.143   1.268   0.601  0.00  0.00    +0.000 A 
ATOM      3  C   UNL     1       1.463   1.409   0.184  0.00  0.00    +0.000 A 
ATOM      4  C   UNL     1       2.129   0.322  -0.380  0.00  0.00    +0.000 A 
ATOM      5  C   UNL     1       1.473  -0.904  -0.530  0.00  0.00    +0.000 A 
ATOM      6  C   UNL     1       0.136  -1.062  -0.125  0.00  0.00    +0.000 A 
ATOM      7  C   UNL     1      -0.514   0.044   0.451  0.00  0.00    +0.000 A 
ATOM      8 CL   UNL     1       2.372  -2.211  -1.221  0.00  0.00    +0.000 Cl
ENDBRANCH   1   6
BRANCH   1   9
ATOM      9  O   UNL     1      -1.960  -2.297   0.025  0.00  0.00    +0.000 OA
BRANCH   9  10
ATOM     10  C   UNL     1      -2.708  -3.435  -0.099  0.00  0.00    +0.000 A 
ATOM     11  C   UNL     1      -2.228  -4.703  -0.421  0.00  0.00    +0.000 A 
ATOM     12  C   UNL     1      -3.118  -5.771  -0.507  0.00  0.00    +0.000 A 
ATOM     13  C   UNL     1      -4.479  -5.601  -0.279  0.00  0.00    +0.000 A 
ATOM     14  C   UNL     1      -4.963  -4.337   0.044  0.00  0.00    +0.000 A 
ATOM     15  C   UNL     1      -4.077  -3.260   0.134  0.00  0.00    +0.000 A 
ATOM     16  F   UNL     1      -2.652  -6.989  -0.816  0.00  0.00    +0.000 F 
ENDBRANCH   9  10
ENDBRANCH   1   9
TORSDOF 3
