REMARK  Name = *****
REMARK  3 active torsions:
REMARK  status: ('A' for Active; 'I' for Inactive)
REMARK    1  A    between atoms: C_4  and  O_7
REMARK    2  A    between atoms: O_7  and  C_8
REMARK    3  A    between atoms: C_8  and  C_10
REMARK                            x       y       z     vdW  Elec       q    Type
REMARK                         _______ _______ _______ _____ _____    ______ ____
ROOT
ATOM      1  C   UNL     1       4.952  -1.565  -2.075  0.00  0.00    +0.000 C 
ATOM      2  O   UNL     1       5.591  -1.982  -3.032  0.00  0.00    +0.000 OA
ENDROOT
BRANCH   1   3
ATOM      3  C   UNL     1       4.812  -2.283  -0.750  0.00  0.00    +0.000 C 
ATOM      4  C   UNL     1       5.948  -3.315  -0.469  0.00  0.00    +0.000 C 
ATOM      5  C   UNL     1       6.489  -2.865   0.905  0.00  0.00    +0.000 C 
ATOM      6  C   UNL     1       5.208  -2.373   1.586  0.00  0.00    +0.000 C 
ATOM      7  C   UNL     1       4.900  -1.351   0.485  0.00  0.00    +0.000 C 
ATOM      8  C   UNL     1       6.228  -0.624   0.475  0.00  0.00    +0.000 C 
ATOM      9  C   UNL     1       7.181  -1.536   0.716  0.00  0.00    +0.000 C 
ENDBRANCH   1   3
BRANCH   1  10
ATOM     10  O   UNL     1       4.187  -0.436  -2.082  0.00  0.00    +0.000 OA
BRANCH  10  14
ATOM     11  C   UNL     1       4.145   3.040  -4.509  0.00  0.00    +0.000 C 
ATOM     12  C   UNL     1       5.441   2.237  -4.447  0.00  0.00    +0.000 C 
ATOM     13  C   UNL     1       5.446   1.268  -3.269  0.00  0.00    +0.000 C 
ATOM     14  C   UNL     1       4.221   0.347  -3.288  0.00  0.00    +0.000 C 
ATOM     15  C   UNL     1       2.929   1.166  -3.339  0.00  0.00    +0.000 C 
ATOM     16  C   UNL     1       2.918   2.132  -4.519  0.00  0.00    +0.000 C 
ENDBRANCH  10  14
ENDBRANCH   1  10
TORSDOF 3
