REMARK  Name = *****
REMARK  2 active torsions:
REMARK  status: ('A' for Active; 'I' for Inactive)
REMARK    1  A    between atoms: C_4  and  C_7
REMARK    2  A    between atoms: C_8  and  C_9
REMARK                            x       y       z     vdW  Elec       q    Type
REMARK                         _______ _______ _______ _____ _____    ______ ____
ROOT
ATOM      1  C   UNL     1      -2.805   0.434  -0.305  0.00  0.00    +0.000 C 
ATOM      2  C   UNL     1      -3.719  -0.542  -0.433  0.00  0.00    +0.000 C 
ENDROOT
BRANCH   1   6
ATOM      3  C   UNL     1       1.393  -0.170   0.254  0.00  0.00    +0.000 A 
ATOM      4  C   UNL     1       0.686  -1.015  -0.599  0.00  0.00    +0.000 A 
ATOM      5  C   UNL     1      -0.687  -0.833  -0.786  0.00  0.00    +0.000 A 
ATOM      6  C   UNL     1      -1.369   0.190  -0.113  0.00  0.00    +0.000 A 
ATOM      7  C   UNL     1      -0.643   1.043   0.729  0.00  0.00    +0.000 A 
ATOM      8  C   UNL     1       0.730   0.860   0.916  0.00  0.00    +0.000 A 
ENDBRANCH   1   6
BRANCH   2   9
ATOM      9  C   UNL     1      -5.158  -0.297  -0.602  0.00  0.00    +0.000 A 
ATOM     10  C   UNL     1      -5.652   0.742  -1.401  0.00  0.00    +0.000 A 
ATOM     11  C   UNL     1      -7.028   0.924  -1.560  0.00  0.00    +0.000 A 
ATOM     12  C   UNL     1      -7.924   0.062  -0.931  0.00  0.00    +0.000 A 
ATOM     13  C   UNL     1      -7.445  -0.985  -0.148  0.00  0.00    +0.000 A 
ATOM     14  C   UNL     1      -6.069  -1.167   0.011  0.00  0.00    +0.000 A 
ENDBRANCH   2   9
TORSDOF 2
