REMARK  Name = *****
REMARK  4 active torsions:
REMARK  status: ('A' for Active; 'I' for Inactive)
REMARK    1  A    between atoms: C_1  and  O_2
REMARK    2  A    between atoms: O_2  and  C_3
REMARK    3  A    between atoms: C_6  and  C_9
REMARK    4  A    between atoms: C_10  and  C_11
REMARK                            x       y       z     vdW  Elec       q    Type
REMARK                         _______ _______ _______ _____ _____    ______ ____
ROOT
ATOM      1  C   UNL     1       4.322   4.549  -2.871  0.00  0.00    +0.000 C 
ATOM      2  C   UNL     1       4.652   5.501  -3.525  0.00  0.00    +0.000 C 
ENDROOT
BRANCH   2   3
ATOM      3  C   UNL     1       5.018   6.636  -4.320  0.00  0.00    +0.000 C 
ATOM      4  C   UNL     1       6.118   7.544  -3.830  0.00  0.00    +0.000 C 
ATOM      5  C   UNL     1       6.373   6.630  -5.004  0.00  0.00    +0.000 C 
ATOM      6  C   UNL     1       6.485   7.178  -6.396  0.00  0.00    +0.000 C 
ATOM      7  C   UNL     1       6.792   8.674  -6.413  0.00  0.00    +0.000 C 
ATOM      8  C   UNL     1       5.853   9.443  -5.487  0.00  0.00    +0.000 C 
ATOM      9  C   UNL     1       6.058   9.029  -4.031  0.00  0.00    +0.000 C 
ENDBRANCH   2   3
BRANCH   1  13
ATOM     10  C   UNL     1       3.038   1.175  -0.657  0.00  0.00    +0.000 A 
ATOM     11  C   UNL     1       2.380   2.398  -0.520  0.00  0.00    +0.000 A 
ATOM     12  C   UNL     1       2.812   3.514  -1.246  0.00  0.00    +0.000 A 
ATOM     13  C   UNL     1       3.904   3.412  -2.111  0.00  0.00    +0.000 A 
ATOM     14  C   UNL     1       4.571   2.195  -2.241  0.00  0.00    +0.000 A 
ATOM     15  C   UNL     1       4.138   1.083  -1.514  0.00  0.00    +0.000 A 
BRANCH  10  17
ATOM     16  C   UNL     1       1.513   0.015   0.748  0.00  0.00    +0.000 C 
ATOM     17  O   UNL     1       2.712   0.011  -0.017  0.00  0.00    +0.000 OA
ENDBRANCH  10  17
ENDBRANCH   1  13
TORSDOF 3
