REMARK  Name = *****
REMARK  4 active torsions:
REMARK  status: ('A' for Active; 'I' for Inactive)
REMARK    1  A    between atoms: C_4  and  C_7
REMARK    2  A    between atoms: C_7  and  S_17
REMARK    3  A    between atoms: C_8  and  C_9
REMARK    4  A    between atoms: C_9  and  C_11
REMARK                            x       y       z     vdW  Elec       q    Type
REMARK                         _______ _______ _______ _____ _____    ______ ____
ROOT
ATOM      1  C   UNL     1      -2.885   0.504  -0.177  0.00  0.00    +0.000 C 
ATOM      2  C   UNL     1      -3.344   1.711  -0.544  0.00  0.00    +0.000 C 
ENDROOT
BRANCH   1   6
ATOM      3  C   UNL     1       1.220  -0.598   0.252  0.00  0.00    +0.000 A 
ATOM      4  C   UNL     1       0.537  -0.022   1.323  0.00  0.00    +0.000 A 
ATOM      5  C   UNL     1      -0.803   0.346   1.181  0.00  0.00    +0.000 A 
ATOM      6  C   UNL     1      -1.469   0.137  -0.035  0.00  0.00    +0.000 A 
ATOM      7  C   UNL     1      -0.773  -0.439  -1.106  0.00  0.00    +0.000 A 
ATOM      8  C   UNL     1       0.567  -0.804  -0.962  0.00  0.00    +0.000 A 
ENDBRANCH   1   6
BRANCH   2   9
ATOM      9  C   UNL     1      -2.487   2.867  -0.927  0.00  0.00    +0.000 C 
ATOM     10  O   UNL     1      -1.397   2.728  -1.468  0.00  0.00    +0.000 OA
BRANCH   9  11
ATOM     11  C   UNL     1      -3.044   4.233  -0.713  0.00  0.00    +0.000 A 
ATOM     12  C   UNL     1      -4.005   4.507   0.270  0.00  0.00    +0.000 A 
ATOM     13  C   UNL     1      -4.489   5.808   0.432  0.00  0.00    +0.000 A 
ATOM     14  C   UNL     1      -4.012   6.839  -0.377  0.00  0.00    +0.000 A 
ATOM     15  C   UNL     1      -3.044   6.576  -1.345  0.00  0.00    +0.000 A 
ATOM     16  C   UNL     1      -2.557   5.278  -1.510  0.00  0.00    +0.000 A 
ENDBRANCH   9  11
ENDBRANCH   2   9
BRANCH   1  17
ATOM     17  S   UNL     1      -4.013  -0.760   0.233  0.00  0.00    +0.000 S 
ATOM     18  H   UNL     1      -3.330  -1.886   0.571  0.00  0.00    +0.000 HD
ENDBRANCH   1  17
TORSDOF 4
