REMARK  Name = *****
REMARK  5 active torsions:
REMARK  status: ('A' for Active; 'I' for Inactive)
REMARK    1  A    between atoms: C_1  and  O_2
REMARK    2  A    between atoms: O_2  and  C_3
REMARK    3  A    between atoms: C_3  and  C_5
REMARK    4  A    between atoms: C_9  and  C_11
REMARK    5  A    between atoms: C_12  and  C_13
REMARK                            x       y       z     vdW  Elec       q    Type
REMARK                         _______ _______ _______ _____ _____    ______ ____
ROOT
ATOM      1  C   UNL     1       4.574   1.289   0.266  0.00  0.00    +0.000 A 
ATOM      2  C   UNL     1       5.214   0.549  -0.735  0.00  0.00    +0.000 A 
ATOM      3  C   UNL     1       6.607   0.538  -0.812  0.00  0.00    +0.000 A 
ATOM      4  C   UNL     1       7.366   1.270   0.104  0.00  0.00    +0.000 A 
ATOM      5  C   UNL     1       6.743   2.031   1.102  0.00  0.00    +0.000 A 
ATOM      6  C   UNL     1       5.344   2.022   1.183  0.00  0.00    +0.000 A 
ENDROOT
BRANCH   1   7
ATOM      7  C   UNL     1       3.093   1.329   0.406  0.00  0.00    +0.000 C 
ATOM      8  O   UNL     1       2.514   1.952   1.282  0.00  0.00    +0.000 OA
BRANCH   7  10
ATOM      9  C   UNL     1       1.073   0.576  -0.491  0.00  0.00    +0.000 C 
ATOM     10  O   UNL     1       2.499   0.587  -0.562  0.00  0.00    +0.000 OA
ENDBRANCH   7  10
ENDBRANCH   1   7
BRANCH   5  11
ATOM     11  C   UNL     1       7.507   2.787   2.105  0.00  0.00    +0.000 C 
ATOM     12  C   UNL     1       8.651   3.439   1.841  0.00  0.00    +0.000 C 
BRANCH  12  13
ATOM     13  C   UNL     1       9.403   4.208   2.844  0.00  0.00    +0.000 A 
ATOM     14  C   UNL     1       9.551   3.769   4.166  0.00  0.00    +0.000 A 
ATOM     15  C   UNL     1      10.301   4.512   5.082  0.00  0.00    +0.000 A 
ATOM     16  C   UNL     1      10.920   5.695   4.682  0.00  0.00    +0.000 A 
ATOM     17  C   UNL     1      10.794   6.133   3.366  0.00  0.00    +0.000 A 
ATOM     18  C   UNL     1      10.044   5.390   2.450  0.00  0.00    +0.000 A 
ENDBRANCH  12  13
ENDBRANCH   5  11
TORSDOF 4
