REMARK  Name = *****
REMARK  3 active torsions:
REMARK  status: ('A' for Active; 'I' for Inactive)
REMARK    1  A    between atoms: C_1  and  C_2
REMARK    2  A    between atoms: C_2  and  C_11
REMARK    3  A    between atoms: N_3  and  C_4
REMARK                            x       y       z     vdW  Elec       q    Type
REMARK                         _______ _______ _______ _____ _____    ______ ____
ROOT
ATOM      1  C   UNL     1       1.244  -0.539  -0.661  0.00  0.00    +0.000 C 
ATOM      2  C   UNL     1       2.551  -0.016  -0.089  0.00  0.00    +0.000 C 
ATOM      3  N   UNL     1       3.090  -0.457   1.012  0.00  0.00    +0.000 NA
ENDROOT
BRANCH   3   4
ATOM      4  C   UNL     1       2.459  -1.459   1.759  0.00  0.00    +0.000 A 
ATOM      5  C   UNL     1       1.474  -1.133   2.693  0.00  0.00    +0.000 A 
ATOM      6  C   UNL     1       0.873  -2.138   3.448  0.00  0.00    +0.000 A 
ATOM      7  C   UNL     1       1.256  -3.470   3.289  0.00  0.00    +0.000 A 
ATOM      8  C   UNL     1       2.255  -3.797   2.373  0.00  0.00    +0.000 A 
ATOM      9  C   UNL     1       2.858  -2.791   1.616  0.00  0.00    +0.000 A 
ATOM     10 CL   UNL     1      -0.353  -1.734   4.586  0.00  0.00    +0.000 Cl
ENDBRANCH   3   4
BRANCH   2  11
ATOM     11  C   UNL     1       3.250   1.081  -0.829  0.00  0.00    +0.000 A 
ATOM     12  C   UNL     1       4.637   1.218  -0.688  0.00  0.00    +0.000 A 
ATOM     13  C   UNL     1       5.317   2.234  -1.362  0.00  0.00    +0.000 A 
ATOM     14  C   UNL     1       4.615   3.123  -2.174  0.00  0.00    +0.000 A 
ATOM     15  C   UNL     1       3.232   3.001  -2.308  0.00  0.00    +0.000 A 
ATOM     16  C   UNL     1       2.548   1.985  -1.635  0.00  0.00    +0.000 A 
ENDBRANCH   2  11
TORSDOF 2
