REMARK  Name = *****
REMARK  3 active torsions:
REMARK  status: ('A' for Active; 'I' for Inactive)
REMARK    1  A    between atoms: C_4  and  S_7
REMARK    2  A    between atoms: S_7  and  N_9
REMARK    3  A    between atoms: N_9  and  C_10
REMARK                            x       y       z     vdW  Elec       q    Type
REMARK                         _______ _______ _______ _____ _____    ______ ____
ROOT
ATOM      1  N   UNL     1      -3.905  -0.635  -0.123  0.00  0.00    +0.000 N 
ATOM      2  H   UNL     1      -3.326  -1.429  -0.084  0.00  0.00    +0.000 HD
ENDROOT
BRANCH   1   3
ATOM      3  C   UNL     1      -5.274  -0.840  -0.381  0.00  0.00    +0.000 A 
ATOM      4  C   UNL     1      -6.170   0.185  -0.715  0.00  0.00    +0.000 A 
ATOM      5  C   UNL     1      -7.514  -0.090  -0.997  0.00  0.00    +0.000 A 
ATOM      6  C   UNL     1      -7.976  -1.401  -0.963  0.00  0.00    +0.000 A 
ATOM      7  C   UNL     1      -7.104  -2.440  -0.660  0.00  0.00    +0.000 A 
ATOM      8  C   UNL     1      -5.762  -2.159  -0.380  0.00  0.00    +0.000 A 
ATOM      9 CL   UNL     1      -9.626  -1.740  -1.309  0.00  0.00    +0.000 Cl
ENDBRANCH   1   3
BRANCH   1  10
ATOM     10  S   UNL     1      -3.192   0.852   0.121  0.00  0.00    +0.000 S 
ATOM     11  O   UNL     1      -3.345   1.712  -1.097  0.00  0.00    +0.000 OA
BRANCH  10  15
ATOM     12  C   UNL     1       1.073  -0.881   0.053  0.00  0.00    +0.000 A 
ATOM     13  C   UNL     1       0.520  -0.359  -1.116  0.00  0.00    +0.000 A 
ATOM     14  C   UNL     1      -0.771   0.171  -1.101  0.00  0.00    +0.000 A 
ATOM     15  C   UNL     1      -1.515   0.180   0.084  0.00  0.00    +0.000 A 
ATOM     16  C   UNL     1      -0.953  -0.342   1.256  0.00  0.00    +0.000 A 
ATOM     17  C   UNL     1       0.339  -0.872   1.239  0.00  0.00    +0.000 A 
ENDBRANCH  10  15
ENDBRANCH   1  10
TORSDOF 3
