REMARK  Name = *****
REMARK  2 active torsions:
REMARK  status: ('A' for Active; 'I' for Inactive)
REMARK    1  A    between atoms: C_4  and  C_7
REMARK    2  A    between atoms: C_7  and  C_8
REMARK                            x       y       z     vdW  Elec       q    Type
REMARK                         _______ _______ _______ _____ _____    ______ ____
ROOT
ATOM      1  C   UNL     1      -3.937  -0.886  -0.220  0.00  0.00    +0.000 C 
ATOM      2  C   UNL     1      -3.969  -2.043  -1.208  0.00  0.00    +0.000 C 
ATOM      3  C   UNL     1      -5.191  -2.271  -1.712  0.00  0.00    +0.000 C 
ATOM      4  C   UNL     1      -6.100  -1.307  -1.119  0.00  0.00    +0.000 A 
ATOM      5  C   UNL     1      -7.459  -1.144  -1.316  0.00  0.00    +0.000 A 
ATOM      6  C   UNL     1      -8.113  -0.132  -0.608  0.00  0.00    +0.000 A 
ATOM      7  C   UNL     1      -7.404   0.694   0.280  0.00  0.00    +0.000 A 
ATOM      8  C   UNL     1      -6.031   0.523   0.474  0.00  0.00    +0.000 A 
ATOM      9  C   UNL     1      -5.390  -0.479  -0.238  0.00  0.00    +0.000 A 
ENDROOT
BRANCH   1  10
ATOM     10  C   UNL     1      -3.004   0.258  -0.648  0.00  0.00    +0.000 C 
BRANCH  10  14
ATOM     11  C   UNL     1       1.173  -0.802  -0.417  0.00  0.00    +0.000 A 
ATOM     12  C   UNL     1       0.454  -0.546   0.748  0.00  0.00    +0.000 A 
ATOM     13  C   UNL     1      -0.896  -0.199   0.675  0.00  0.00    +0.000 A 
ATOM     14  C   UNL     1      -1.539  -0.106  -0.567  0.00  0.00    +0.000 A 
ATOM     15  C   UNL     1      -0.806  -0.365  -1.733  0.00  0.00    +0.000 A 
ATOM     16  C   UNL     1       0.544  -0.711  -1.657  0.00  0.00    +0.000 A 
ENDBRANCH  10  14
ENDBRANCH   1  10
TORSDOF 2
