REMARK  Name = *****
REMARK  3 active torsions:
REMARK  status: ('A' for Active; 'I' for Inactive)
REMARK    1  A    between atoms: C_4  and  C_7
REMARK    2  A    between atoms: C_8  and  C_9
REMARK    3  A    between atoms: C_9  and  C_10
REMARK                            x       y       z     vdW  Elec       q    Type
REMARK                         _______ _______ _______ _____ _____    ______ ____
ROOT
ATOM      1  C   UNL     1      -5.151  -0.231  -0.628  0.00  0.00    +0.000 C 
ENDROOT
BRANCH   1   2
ATOM      2  C   UNL     1      -5.672  -1.078  -1.766  0.00  0.00    +0.000 A 
ATOM      3  C   UNL     1      -6.445  -2.221  -1.510  0.00  0.00    +0.000 A 
ATOM      4  C   UNL     1      -6.906  -3.000  -2.568  0.00  0.00    +0.000 A 
ATOM      5  C   UNL     1      -6.603  -2.658  -3.879  0.00  0.00    +0.000 A 
ATOM      6  C   UNL     1      -5.832  -1.533  -4.152  0.00  0.00    +0.000 A 
ATOM      7  C   UNL     1      -5.366  -0.745  -3.097  0.00  0.00    +0.000 A 
ATOM      8  F   UNL     1      -7.048  -3.411  -4.894  0.00  0.00    +0.000 F 
ATOM      9  F   UNL     1      -7.646  -4.086  -2.308  0.00  0.00    +0.000 F 
ENDBRANCH   1   2
BRANCH   1  11
ATOM     10  C   UNL     1      -2.742   0.447  -0.426  0.00  0.00    +0.000 C 
ATOM     11  C   UNL     1      -3.699  -0.493  -0.346  0.00  0.00    +0.000 C 
BRANCH  10  15
ATOM     12  C   UNL     1       1.419  -0.170   0.346  0.00  0.00    +0.000 A 
ATOM     13  C   UNL     1       0.684  -1.167  -0.292  0.00  0.00    +0.000 A 
ATOM     14  C   UNL     1      -0.678  -0.981  -0.543  0.00  0.00    +0.000 A 
ATOM     15  C   UNL     1      -1.321   0.199  -0.149  0.00  0.00    +0.000 A 
ATOM     16  C   UNL     1      -0.568   1.201   0.477  0.00  0.00    +0.000 A 
ATOM     17  C   UNL     1       0.794   1.015   0.728  0.00  0.00    +0.000 A 
ENDBRANCH  10  15
ENDBRANCH   1  11
TORSDOF 3
