REMARK  Name = *****
REMARK  2 active torsions:
REMARK  status: ('A' for Active; 'I' for Inactive)
REMARK    1  A    between atoms: P_4  and  S_7
REMARK    2  A    between atoms: S_7  and  C_8
REMARK                            x       y       z     vdW  Elec       q    Type
REMARK                         _______ _______ _______ _____ _____    ______ ____
ROOT
ATOM      1  S   UNL     1      -0.866  -1.093   2.510  0.00  0.00    +0.000 S 
ENDROOT
BRANCH   1   5
ATOM      2  C   UNL     1       0.822   1.265  -0.486  0.00  0.00    +0.000 C 
ATOM      3  C   UNL     1       1.527   0.054   0.115  0.00  0.00    +0.000 C 
ATOM      4  S   UNL     1       0.717  -1.517  -0.269  0.00  0.00    +0.000 S 
ATOM      5  P   UNL     1      -1.243  -1.495   0.477  0.00  0.00    +0.000 P 
ATOM      6  S   UNL     1      -1.820   0.408  -0.193  0.00  0.00    +0.000 S 
ATOM      7  C   UNL     1      -0.509   1.599   0.178  0.00  0.00    +0.000 C 
ENDBRANCH   1   5
BRANCH   1   8
ATOM      8  C   UNL     1      -2.483  -1.475   3.155  0.00  0.00    +0.000 A 
ATOM      9  C   UNL     1      -2.788  -2.777   3.565  0.00  0.00    +0.000 A 
ATOM     10  C   UNL     1      -4.050  -3.074   4.086  0.00  0.00    +0.000 A 
ATOM     11  C   UNL     1      -5.009  -2.070   4.207  0.00  0.00    +0.000 A 
ATOM     12  C   UNL     1      -4.707  -0.767   3.812  0.00  0.00    +0.000 A 
ATOM     13  C   UNL     1      -3.446  -0.469   3.292  0.00  0.00    +0.000 A 
ENDBRANCH   1   8
TORSDOF 2
