REMARK  Name = *****
REMARK  6 active torsions:
REMARK  status: ('A' for Active; 'I' for Inactive)
REMARK    1  A    between atoms: C_1  and  C_2
REMARK    2  A    between atoms: C_4  and  C_18
REMARK    3  A    between atoms: C_5  and  O_9
REMARK    4  A    between atoms: C_6  and  C_8
REMARK    5  A    between atoms: O_9  and  C_10
REMARK    6  A    between atoms: C_10  and  C_12
REMARK                            x       y       z     vdW  Elec       q    Type
REMARK                         _______ _______ _______ _____ _____    ______ ____
ROOT
ATOM      1  C   UNL     1       2.104   1.947   0.440  0.00  0.00    +0.000 C 
ATOM      2  C   UNL     1       1.076   0.875   0.226  0.00  0.00    +0.000 A 
ATOM      3  C   UNL     1       1.466  -0.402  -0.200  0.00  0.00    +0.000 A 
ATOM      4  C   UNL     1       0.517  -1.406  -0.433  0.00  0.00    +0.000 A 
ATOM      5  C   UNL     1      -0.835  -1.108  -0.207  0.00  0.00    +0.000 A 
ATOM      6  C   UNL     1      -1.259   0.174   0.172  0.00  0.00    +0.000 A 
ATOM      7  C   UNL     1      -0.287   1.158   0.395  0.00  0.00    +0.000 A 
ATOM      8  C   UNL     1      -2.711   0.489   0.383  0.00  0.00    +0.000 C 
ATOM      9  C   UNL     1       0.958  -2.774  -0.862  0.00  0.00    +0.000 C 
ENDROOT
BRANCH   5  10
ATOM     10  O   UNL     1      -1.802  -2.092  -0.456  0.00  0.00    +0.000 OA
BRANCH  10  11
ATOM     11  C   UNL     1      -2.082  -2.883   0.642  0.00  0.00    +0.000 C 
ATOM     12  O   UNL     1      -1.581  -2.815   1.755  0.00  0.00    +0.000 OA
BRANCH  11  13
ATOM     13  C   UNL     1      -3.119  -3.890   0.279  0.00  0.00    +0.000 A 
ATOM     14  C   UNL     1      -3.468  -4.850   1.240  0.00  0.00    +0.000 A 
ATOM     15  C   UNL     1      -4.434  -5.817   0.953  0.00  0.00    +0.000 A 
ATOM     16  C   UNL     1      -5.058  -5.830  -0.293  0.00  0.00    +0.000 A 
ATOM     17  C   UNL     1      -4.719  -4.878  -1.254  0.00  0.00    +0.000 A 
ATOM     18  C   UNL     1      -3.752  -3.909  -0.971  0.00  0.00    +0.000 A 
ENDBRANCH  11  13
ENDBRANCH  10  11
ENDBRANCH   5  10
TORSDOF 3
