REMARK  Name = *****
REMARK  4 active torsions:
REMARK  status: ('A' for Active; 'I' for Inactive)
REMARK    1  A    between atoms: C_1  and  C_2
REMARK    2  A    between atoms: C_6  and  O_10
REMARK    3  A    between atoms: O_10  and  C_11
REMARK    4  A    between atoms: C_11  and  C_12
REMARK                            x       y       z     vdW  Elec       q    Type
REMARK                         _______ _______ _______ _____ _____    ______ ____
ROOT
ATOM      1  C   UNL     1       0.905  -0.065  -0.816  0.00  0.00    +0.000 C 
ATOM      2  C   UNL     1       2.110  -0.393   0.072  0.00  0.00    +0.000 C 
ATOM      3  C   UNL     1       2.879  -1.617  -0.452  0.00  0.00    +0.000 C 
ATOM      4  C   UNL     1       3.804  -1.304  -1.595  0.00  0.00    +0.000 C 
ATOM      5  C   UNL     1       4.200  -0.058  -1.901  0.00  0.00    +0.000 C 
ATOM      6  C   UNL     1       3.787   1.162  -1.118  0.00  0.00    +0.000 C 
ATOM      7  C   UNL     1       3.067   0.794   0.206  0.00  0.00    +0.000 C 
ATOM      8  F   UNL     1       2.370   1.874   0.662  0.00  0.00    +0.000 F 
ATOM      9  F   UNL     1       3.978   0.505   1.178  0.00  0.00    +0.000 F 
ENDROOT
BRANCH   6  10
ATOM     10  O   UNL     1       4.980   1.939  -0.940  0.00  0.00    +0.000 OA
BRANCH  10  11
ATOM     11  C   UNL     1       4.752   3.191  -0.293  0.00  0.00    +0.000 C 
BRANCH  11  12
ATOM     12  C   UNL     1       5.981   4.055  -0.429  0.00  0.00    +0.000 A 
ATOM     13  C   UNL     1       5.867   5.409  -0.775  0.00  0.00    +0.000 A 
ATOM     14  C   UNL     1       7.002   6.216  -0.866  0.00  0.00    +0.000 A 
ATOM     15  C   UNL     1       8.263   5.682  -0.605  0.00  0.00    +0.000 A 
ATOM     16  C   UNL     1       8.389   4.341  -0.249  0.00  0.00    +0.000 A 
ATOM     17  C   UNL     1       7.255   3.533  -0.158  0.00  0.00    +0.000 A 
ENDBRANCH  11  12
ENDBRANCH  10  11
ENDBRANCH   6  10
TORSDOF 3
