REMARK  Name = *****
REMARK  3 active torsions:
REMARK  status: ('A' for Active; 'I' for Inactive)
REMARK    1  A    between atoms: C_4  and  C_8
REMARK    2  A    between atoms: C_8  and  O_10
REMARK    3  A    between atoms: O_10  and  C_11
REMARK                            x       y       z     vdW  Elec       q    Type
REMARK                         _______ _______ _______ _____ _____    ______ ____
ROOT
ATOM      1  C   UNL     1       4.360  -1.019  -0.407  0.00  0.00    +0.000 C 
ATOM      2  O   UNL     1       5.385  -1.418   0.136  0.00  0.00    +0.000 OA
ENDROOT
BRANCH   1   6
ATOM      3  C   UNL     1       1.134   0.122   1.151  0.00  0.00    +0.000 C 
ATOM      4  C   UNL     1       2.164  -0.060   2.267  0.00  0.00    +0.000 C 
ATOM      5  C   UNL     1       2.966  -1.274   1.751  0.00  0.00    +0.000 C 
ATOM      6  C   UNL     1       2.967  -1.051   0.209  0.00  0.00    +0.000 C 
ATOM      7  C   UNL     1       2.204   0.292   0.064  0.00  0.00    +0.000 C 
ATOM      8  C   UNL     1       3.002   1.407   0.704  0.00  0.00    +0.000 C 
ATOM      9  C   UNL     1       2.992   1.183   2.026  0.00  0.00    +0.000 C 
ATOM     10  F   UNL     1       2.201  -2.036  -0.360  0.00  0.00    +0.000 F 
ENDBRANCH   1   6
BRANCH   1  11
ATOM     11  O   UNL     1       4.263  -0.524  -1.710  0.00  0.00    +0.000 OA
BRANCH  11  12
ATOM     12  C   UNL     1       5.451  -0.374  -2.441  0.00  0.00    +0.000 A 
ATOM     13  C   UNL     1       5.471  -0.908  -3.728  0.00  0.00    +0.000 A 
ATOM     14  C   UNL     1       6.604  -0.735  -4.523  0.00  0.00    +0.000 A 
ATOM     15  C   UNL     1       7.699  -0.021  -4.033  0.00  0.00    +0.000 A 
ATOM     16  C   UNL     1       7.661   0.528  -2.749  0.00  0.00    +0.000 A 
ATOM     17  C   UNL     1       6.530   0.361  -1.950  0.00  0.00    +0.000 A 
ENDBRANCH  11  12
ENDBRANCH   1  11
TORSDOF 3
