REMARK  Name = *****
REMARK  3 active torsions:
REMARK  status: ('A' for Active; 'I' for Inactive)
REMARK    1  A    between atoms: C_4  and  C_7
REMARK    2  A    between atoms: C_7  and  N_8
REMARK    3  A    between atoms: C_9  and  C_10
REMARK                            x       y       z     vdW  Elec       q    Type
REMARK                         _______ _______ _______ _____ _____    ______ ____
ROOT
ATOM      1  N   UNL     1      -3.534  -0.705  -0.824  0.00  0.00    +0.000 NA
ATOM      2  C   UNL     1      -4.819  -0.665  -0.875  0.00  0.00    +0.000 C 
ATOM      3 CL   UNL     1      -5.576  -2.183  -1.237  0.00  0.00    +0.000 Cl
ENDROOT
BRANCH   2   4
ATOM      4  C   UNL     1      -5.674   0.524  -0.661  0.00  0.00    +0.000 A 
ATOM      5  C   UNL     1      -5.603   1.605  -1.549  0.00  0.00    +0.000 A 
ATOM      6  C   UNL     1      -6.426   2.714  -1.347  0.00  0.00    +0.000 A 
ATOM      7  C   UNL     1      -7.311   2.727  -0.273  0.00  0.00    +0.000 A 
ATOM      8  C   UNL     1      -7.394   1.650   0.605  0.00  0.00    +0.000 A 
ATOM      9  C   UNL     1      -6.574   0.537   0.411  0.00  0.00    +0.000 A 
ATOM     10  F   UNL     1      -8.099   3.793  -0.083  0.00  0.00    +0.000 F 
ENDBRANCH   2   4
BRANCH   1  11
ATOM     11  C   UNL     1      -2.777   0.490  -0.454  0.00  0.00    +0.000 C 
BRANCH  11  15
ATOM     12  C   UNL     1       1.343  -0.309   0.587  0.00  0.00    +0.000 A 
ATOM     13  C   UNL     1       0.684  -1.140  -0.315  0.00  0.00    +0.000 A 
ATOM     14  C   UNL     1      -0.650  -0.894  -0.648  0.00  0.00    +0.000 A 
ATOM     15  C   UNL     1      -1.345   0.179  -0.072  0.00  0.00    +0.000 A 
ATOM     16  C   UNL     1      -0.664   1.017   0.825  0.00  0.00    +0.000 A 
ATOM     17  C   UNL     1       0.671   0.770   1.156  0.00  0.00    +0.000 A 
ENDBRANCH  11  15
ENDBRANCH   1  11
TORSDOF 3
