REMARK  Name = *****
REMARK  6 active torsions:
REMARK  status: ('A' for Active; 'I' for Inactive)
REMARK    1  A    between atoms: C_1  and  C_2
REMARK    2  A    between atoms: C_2  and  C_3
REMARK    3  A    between atoms: C_2  and  O_10
REMARK    4  A    between atoms: C_3  and  C_4
REMARK    5  A    between atoms: O_10  and  C_11
REMARK    6  A    between atoms: C_11  and  C_12
REMARK                            x       y       z     vdW  Elec       q    Type
REMARK                         _______ _______ _______ _____ _____    ______ ____
ROOT
ATOM      1  C   UNL     1       0.767   0.130   0.629  0.00  0.00    +0.000 C 
ATOM      2  C   UNL     1       2.255   0.102   0.277  0.00  0.00    +0.000 C 
ENDROOT
BRANCH   2   3
ATOM      3  C   UNL     1       2.928   1.459   0.551  0.00  0.00    +0.000 C 
BRANCH   3   4
ATOM      4  C   UNL     1       2.507   2.557  -0.395  0.00  0.00    +0.000 A 
ATOM      5  C   UNL     1       1.633   3.566   0.029  0.00  0.00    +0.000 A 
ATOM      6  C   UNL     1       1.236   4.574  -0.850  0.00  0.00    +0.000 A 
ATOM      7  C   UNL     1       1.710   4.585  -2.161  0.00  0.00    +0.000 A 
ATOM      8  C   UNL     1       2.583   3.588  -2.592  0.00  0.00    +0.000 A 
ATOM      9  C   UNL     1       2.981   2.578  -1.714  0.00  0.00    +0.000 A 
ENDBRANCH   3   4
ENDBRANCH   2   3
BRANCH   2  10
ATOM     10  O   UNL     1       2.927  -0.863   1.099  0.00  0.00    +0.000 OA
BRANCH  10  11
ATOM     11  C   UNL     1       2.816  -2.199   0.614  0.00  0.00    +0.000 C 
BRANCH  11  12
ATOM     12  C   UNL     1       3.599  -3.107   1.526  0.00  0.00    +0.000 A 
ATOM     13  C   UNL     1       2.948  -4.033   2.351  0.00  0.00    +0.000 A 
ATOM     14  C   UNL     1       3.682  -4.873   3.191  0.00  0.00    +0.000 A 
ATOM     15  C   UNL     1       5.073  -4.792   3.217  0.00  0.00    +0.000 A 
ATOM     16  C   UNL     1       5.732  -3.869   2.408  0.00  0.00    +0.000 A 
ATOM     17  C   UNL     1       4.999  -3.029   1.568  0.00  0.00    +0.000 A 
ENDBRANCH  11  12
ENDBRANCH  10  11
ENDBRANCH   2  10
TORSDOF 5
