REMARK  Name = *****
REMARK  5 active torsions:
REMARK  status: ('A' for Active; 'I' for Inactive)
REMARK    1  A    between atoms: C_1  and  N_2
REMARK    2  A    between atoms: N_2  and  C_3
REMARK    3  A    between atoms: N_2  and  P_9
REMARK    4  A    between atoms: P_9  and  C_10
REMARK    5  A    between atoms: P_9  and  C_11
REMARK                            x       y       z     vdW  Elec       q    Type
REMARK                         _______ _______ _______ _____ _____    ______ ____
ROOT
ATOM      1  C   UNL     1       1.216   0.365  -0.310  0.00  0.00    +0.000 C 
ATOM      2  N   UNL     1       2.678   0.230  -0.277  0.00  0.00    +0.000 N 
ENDROOT
BRANCH   2   3
ATOM      3  C   UNL     1       3.301   1.141   0.631  0.00  0.00    +0.000 A 
ATOM      4  C   UNL     1       2.715   1.512   1.855  0.00  0.00    +0.000 A 
ATOM      5  C   UNL     1       3.353   2.403   2.726  0.00  0.00    +0.000 A 
ATOM      6  C   UNL     1       4.591   2.942   2.391  0.00  0.00    +0.000 A 
ATOM      7  C   UNL     1       5.194   2.586   1.189  0.00  0.00    +0.000 A 
ATOM      8  C   UNL     1       4.556   1.692   0.323  0.00  0.00    +0.000 A 
ENDBRANCH   2   3
BRANCH   2   9
ATOM      9  P   UNL     1       3.333  -1.287  -0.550  0.00  0.00    +0.000 P 
ATOM     10  C   UNL     1       2.075  -2.328  -1.395  0.00  0.00    +0.000 C 
BRANCH   9  11
ATOM     11  C   UNL     1       4.414  -0.922  -1.980  0.00  0.00    +0.000 A 
ATOM     12  C   UNL     1       5.683  -1.518  -2.037  0.00  0.00    +0.000 A 
ATOM     13  C   UNL     1       6.539  -1.276  -3.115  0.00  0.00    +0.000 A 
ATOM     14  C   UNL     1       6.137  -0.436  -4.150  0.00  0.00    +0.000 A 
ATOM     15  C   UNL     1       4.880   0.164  -4.108  0.00  0.00    +0.000 A 
ATOM     16  C   UNL     1       4.025  -0.079  -3.031  0.00  0.00    +0.000 A 
ENDBRANCH   9  11
ENDBRANCH   2   9
TORSDOF 3
