REMARK  Name = *****
REMARK  4 active torsions:
REMARK  status: ('A' for Active; 'I' for Inactive)
REMARK    1  A    between atoms: C_4  and  C_7
REMARK    2  A    between atoms: C_7  and  C_8
REMARK    3  A    between atoms: C_8  and  S_9
REMARK    4  A    between atoms: S_9  and  C_10
REMARK                            x       y       z     vdW  Elec       q    Type
REMARK                         _______ _______ _______ _____ _____    ______ ____
ROOT
ATOM      1  C   UNL     1      -3.735  -0.809  -0.116  0.00  0.00    +0.000 C 
ENDROOT
BRANCH   1   2
ATOM      2  C   UNL     1      -2.937   0.493  -0.053  0.00  0.00    +0.000 C 
BRANCH   2   6
ATOM      3  C   UNL     1       1.272  -0.338   0.394  0.00  0.00    +0.000 A 
ATOM      4  C   UNL     1       0.706  -0.267  -0.878  0.00  0.00    +0.000 A 
ATOM      5  C   UNL     1      -0.654   0.009  -1.024  0.00  0.00    +0.000 A 
ATOM      6  C   UNL     1      -1.460   0.219   0.103  0.00  0.00    +0.000 A 
ATOM      7  C   UNL     1      -0.883   0.141   1.377  0.00  0.00    +0.000 A 
ATOM      8  C   UNL     1       0.478  -0.135   1.521  0.00  0.00    +0.000 A 
ENDBRANCH   2   6
ENDBRANCH   1   2
BRANCH   1   9
ATOM      9  S   UNL     1      -5.518  -0.440  -0.272  0.00  0.00    +0.000 S 
BRANCH   9  10
ATOM     10  C   UNL     1      -6.163  -2.063  -0.636  0.00  0.00    +0.000 A 
ATOM     11  C   UNL     1      -5.833  -3.188   0.128  0.00  0.00    +0.000 A 
ATOM     12  C   UNL     1      -6.374  -4.439  -0.184  0.00  0.00    +0.000 A 
ATOM     13  C   UNL     1      -7.255  -4.566  -1.255  0.00  0.00    +0.000 A 
ATOM     14  C   UNL     1      -7.605  -3.451  -2.013  0.00  0.00    +0.000 A 
ATOM     15  C   UNL     1      -7.063  -2.202  -1.700  0.00  0.00    +0.000 A 
ATOM     16 CL   UNL     1      -7.921  -6.105  -1.637  0.00  0.00    +0.000 Cl
ENDBRANCH   9  10
ENDBRANCH   1   9
TORSDOF 4
