REMARK  Name = *****
REMARK  5 active torsions:
REMARK  status: ('A' for Active; 'I' for Inactive)
REMARK    1  A    between atoms: C_1  and  O_2
REMARK    2  A    between atoms: O_2  and  C_3
REMARK    3  A    between atoms: C_6  and  N_9
REMARK    4  A    between atoms: N_9  and  O_10
REMARK    5  A    between atoms: O_10  and  C_11
REMARK                            x       y       z     vdW  Elec       q    Type
REMARK                         _______ _______ _______ _____ _____    ______ ____
ROOT
ATOM      1  N   UNL     1       5.555  -2.292  -4.139  0.00  0.00    +0.000 N 
ATOM      2  H   UNL     1       5.161  -2.436  -5.030  0.00  0.00    +0.000 HD
ENDROOT
BRANCH   1   6
ATOM      3  C   UNL     1       3.154  -0.640  -1.069  0.00  0.00    +0.000 A 
ATOM      4  C   UNL     1       2.803  -0.481  -2.409  0.00  0.00    +0.000 A 
ATOM      5  C   UNL     1       3.614  -1.019  -3.418  0.00  0.00    +0.000 A 
ATOM      6  C   UNL     1       4.798  -1.698  -3.107  0.00  0.00    +0.000 A 
ATOM      7  C   UNL     1       5.120  -1.887  -1.760  0.00  0.00    +0.000 A 
ATOM      8  C   UNL     1       4.312  -1.351  -0.752  0.00  0.00    +0.000 A 
BRANCH   3  10
ATOM      9  C   UNL     1       1.280   0.581  -0.265  0.00  0.00    +0.000 C 
ATOM     10  O   UNL     1       2.456  -0.170   0.008  0.00  0.00    +0.000 OA
ENDBRANCH   3  10
ENDBRANCH   1   6
BRANCH   1  11
ATOM     11  O   UNL     1       6.874  -2.671  -3.874  0.00  0.00    +0.000 OA
BRANCH  11  12
ATOM     12  C   UNL     1       7.236  -3.736  -4.667  0.00  0.00    +0.000 A 
ATOM     13  C   UNL     1       8.555  -3.756  -5.123  0.00  0.00    +0.000 A 
ATOM     14  C   UNL     1       9.005  -4.818  -5.909  0.00  0.00    +0.000 A 
ATOM     15  C   UNL     1       8.140  -5.865  -6.228  0.00  0.00    +0.000 A 
ATOM     16  C   UNL     1       6.827  -5.855  -5.756  0.00  0.00    +0.000 A 
ATOM     17  C   UNL     1       6.375  -4.794  -4.970  0.00  0.00    +0.000 A 
ENDBRANCH  11  12
ENDBRANCH   1  11
TORSDOF 4
