REMARK  Name = *****
REMARK  3 active torsions:
REMARK  status: ('A' for Active; 'I' for Inactive)
REMARK    1  A    between atoms: C_4  and  C_7
REMARK    2  A    between atoms: C_7  and  C_8
REMARK    3  A    between atoms: C_8  and  C_9
REMARK                            x       y       z     vdW  Elec       q    Type
REMARK                         _______ _______ _______ _____ _____    ______ ____
ROOT
ATOM      1  C   UNL     1      -1.231   1.773   2.802  0.00  0.00    +0.000 C 
ENDROOT
BRANCH   1   2
ATOM      2  C   UNL     1      -1.214   1.595   4.299  0.00  0.00    +0.000 A 
ATOM      3  C   UNL     1      -0.587   2.533   5.130  0.00  0.00    +0.000 A 
ATOM      4  C   UNL     1      -0.559   2.341   6.514  0.00  0.00    +0.000 A 
ATOM      5  C   UNL     1      -1.153   1.212   7.080  0.00  0.00    +0.000 A 
ATOM      6  C   UNL     1      -1.773   0.270   6.262  0.00  0.00    +0.000 A 
ATOM      7  C   UNL     1      -1.796   0.466   4.884  0.00  0.00    +0.000 A 
ATOM      8  F   UNL     1      -2.380  -0.460   4.109  0.00  0.00    +0.000 F 
ENDBRANCH   1   2
BRANCH   1   9
ATOM      9  C   UNL     1      -0.067   1.020   2.145  0.00  0.00    +0.000 C 
BRANCH   9  13
ATOM     10  C   UNL     1      -0.131  -1.859  -0.408  0.00  0.00    +0.000 C 
ATOM     11  C   UNL     1       1.154  -1.342   0.225  0.00  0.00    +0.000 C 
ATOM     12  S   UNL     1       1.468   0.417  -0.103  0.00  0.00    +0.000 S 
ATOM     13  C   UNL     1      -0.037   1.161   0.616  0.00  0.00    +0.000 C 
ATOM     14  S   UNL     1      -1.520   0.548  -0.249  0.00  0.00    +0.000 S 
ATOM     15  C   UNL     1      -1.403  -1.221   0.135  0.00  0.00    +0.000 C 
ENDBRANCH   9  13
ENDBRANCH   1   9
TORSDOF 3
