REMARK  Name = *****
REMARK  3 active torsions:
REMARK  status: ('A' for Active; 'I' for Inactive)
REMARK    1  A    between atoms: C_4  and  C_7
REMARK    2  A    between atoms: C_8  and  C_9
REMARK    3  A    between atoms: C_8  and  C_11
REMARK                            x       y       z     vdW  Elec       q    Type
REMARK                         _______ _______ _______ _____ _____    ______ ____
ROOT
ATOM      1  C   UNL     1      -2.758   0.364  -0.352  0.00  0.00    +0.000 C 
ATOM      2  C   UNL     1      -3.729  -0.559  -0.198  0.00  0.00    +0.000 C 
ENDROOT
BRANCH   2   3
ATOM      3  C   UNL     1      -5.131  -0.147  -0.407  0.00  0.00    +0.000 A 
ATOM      4  C   UNL     1      -6.056  -0.197   0.647  0.00  0.00    +0.000 A 
ATOM      5  C   UNL     1      -7.382   0.180   0.469  0.00  0.00    +0.000 A 
ATOM      6  C   UNL     1      -7.794   0.612  -0.783  0.00  0.00    +0.000 A 
ATOM      7  C   UNL     1      -6.904   0.673  -1.852  0.00  0.00    +0.000 A 
ATOM      8  C   UNL     1      -5.572   0.293  -1.666  0.00  0.00    +0.000 A 
ATOM      9  F   UNL     1      -9.068   0.980  -0.968  0.00  0.00    +0.000 F 
ATOM     10  F   UNL     1      -5.665  -0.600   1.866  0.00  0.00    +0.000 F 
ENDBRANCH   2   3
BRANCH   1  14
ATOM     11  C   UNL     1       1.444  -0.191   0.172  0.00  0.00    +0.000 A 
ATOM     12  C   UNL     1       0.760  -0.960  -0.767  0.00  0.00    +0.000 A 
ATOM     13  C   UNL     1      -0.615  -0.791  -0.945  0.00  0.00    +0.000 A 
ATOM     14  C   UNL     1      -1.317   0.143  -0.174  0.00  0.00    +0.000 A 
ATOM     15  C   UNL     1      -0.621   0.920   0.759  0.00  0.00    +0.000 A 
ATOM     16  C   UNL     1       0.755   0.750   0.934  0.00  0.00    +0.000 A 
ENDBRANCH   1  14
BRANCH   2  17
ATOM     17  C   UNL     1      -3.465  -1.912   0.187  0.00  0.00    +0.000 C 
ATOM     18  N   UNL     1      -3.265  -3.021   0.468  0.00  0.00    +0.000 NA
ENDBRANCH   2  17
TORSDOF 3
