REMARK  Name = *****
REMARK  4 active torsions:
REMARK  status: ('A' for Active; 'I' for Inactive)
REMARK    1  A    between atoms: C_4  and  O_7
REMARK    2  A    between atoms: O_7  and  C_8
REMARK    3  A    between atoms: C_8  and  P_10
REMARK    4  A    between atoms: P_10  and  C_11
REMARK                            x       y       z     vdW  Elec       q    Type
REMARK                         _______ _______ _______ _____ _____    ______ ____
ROOT
ATOM      1  C   UNL     1      -3.784  -0.640  -0.023  0.00  0.00    +0.000 C 
ATOM      2  O   UNL     1      -3.494  -1.652   0.598  0.00  0.00    +0.000 OA
ENDROOT
BRANCH   1   3
ATOM      3  P   UNL     1      -5.520  -0.476  -0.480  0.00  0.00    +0.000 P 
ATOM      4  H   UNL     1      -6.285  -1.509   0.022  0.00  0.00    +0.000 HD
BRANCH   3   5
ATOM      5  C   UNL     1      -5.891   1.102   0.338  0.00  0.00    +0.000 A 
ATOM      6  C   UNL     1      -5.715   2.313  -0.346  0.00  0.00    +0.000 A 
ATOM      7  C   UNL     1      -5.995   3.530   0.281  0.00  0.00    +0.000 A 
ATOM      8  C   UNL     1      -6.457   3.549   1.594  0.00  0.00    +0.000 A 
ATOM      9  C   UNL     1      -6.642   2.352   2.282  0.00  0.00    +0.000 A 
ATOM     10  C   UNL     1      -6.362   1.134   1.657  0.00  0.00    +0.000 A 
ENDBRANCH   3   5
ENDBRANCH   1   3
BRANCH   1  11
ATOM     11  O   UNL     1      -2.937   0.381  -0.422  0.00  0.00    +0.000 OA
BRANCH  11  15
ATOM     12  C   UNL     1       1.034   0.072   0.806  0.00  0.00    +0.000 A 
ATOM     13  C   UNL     1       0.546  -0.808  -0.162  0.00  0.00    +0.000 A 
ATOM     14  C   UNL     1      -0.783  -0.725  -0.574  0.00  0.00    +0.000 A 
ATOM     15  C   UNL     1      -1.615   0.232   0.005  0.00  0.00    +0.000 A 
ATOM     16  C   UNL     1      -1.134   1.129   0.957  0.00  0.00    +0.000 A 
ATOM     17  C   UNL     1       0.197   1.041   1.363  0.00  0.00    +0.000 A 
ENDBRANCH  11  15
ENDBRANCH   1  11
TORSDOF 4
