REMARK  Name = *****
REMARK  3 active torsions:
REMARK  status: ('A' for Active; 'I' for Inactive)
REMARK    1  A    between atoms: C_4  and  C_6
REMARK    2  A    between atoms: C_6  and  S_7
REMARK    3  A    between atoms: S_7  and  C_8
REMARK                            x       y       z     vdW  Elec       q    Type
REMARK                         _______ _______ _______ _____ _____    ______ ____
ROOT
ATOM      1  S   UNL     1      -3.063   1.209   1.901  0.00  0.00    +0.000 S 
ENDROOT
BRANCH   1   2
ATOM      2  C   UNL     1      -3.326   1.966   3.494  0.00  0.00    +0.000 A 
ATOM      3  C   UNL     1      -3.934   3.223   3.563  0.00  0.00    +0.000 A 
ATOM      4  C   UNL     1      -4.157   3.831   4.801  0.00  0.00    +0.000 A 
ATOM      5  C   UNL     1      -3.781   3.180   5.975  0.00  0.00    +0.000 A 
ATOM      6  C   UNL     1      -3.187   1.921   5.913  0.00  0.00    +0.000 A 
ATOM      7  C   UNL     1      -2.964   1.313   4.676  0.00  0.00    +0.000 A 
ENDBRANCH   1   2
BRANCH   1   8
ATOM      8  C   UNL     1      -1.238   1.123   1.904  0.00  0.00    +0.000 C 
BRANCH   8  12
ATOM      9  C   UNL     1       1.153  -0.323  -0.646  0.00  0.00    +0.000 C 
ATOM     10  C   UNL     1      -0.012  -1.306  -0.756  0.00  0.00    +0.000 C 
ATOM     11  C   UNL     1      -1.039  -0.872   0.288  0.00  0.00    +0.000 C 
ATOM     12  C   UNL     1      -0.704   0.593   0.574  0.00  0.00    +0.000 C 
ATOM     13  C   UNL     1       0.825   0.579   0.536  0.00  0.00    +0.000 C 
ENDBRANCH   8  12
ENDBRANCH   1   8
TORSDOF 3
