REMARK  Name = *****
REMARK  4 active torsions:
REMARK  status: ('A' for Active; 'I' for Inactive)
REMARK    1  A    between atoms: C_4  and  C_7
REMARK    2  A    between atoms: C_7  and  C_8
REMARK    3  A    between atoms: C_8  and  S_10
REMARK    4  A    between atoms: S_10  and  C_11
REMARK                            x       y       z     vdW  Elec       q    Type
REMARK                         _______ _______ _______ _____ _____    ______ ____
ROOT
ATOM      1  C   UNL     1      -3.223   1.188  -1.579  0.00  0.00    +0.000 C 
ATOM      2  O   UNL     1      -3.623   0.523  -2.530  0.00  0.00    +0.000 OA
ENDROOT
BRANCH   1   3
ATOM      3  C   UNL     1      -2.792   0.624  -0.230  0.00  0.00    +0.000 C 
ATOM      4 CL   UNL     1      -3.773  -0.823   0.162  0.00  0.00    +0.000 Cl
BRANCH   3   8
ATOM      5  C   UNL     1       1.420  -0.345  -0.050  0.00  0.00    +0.000 A 
ATOM      6  C   UNL     1       0.853   0.504   0.898  0.00  0.00    +0.000 A 
ATOM      7  C   UNL     1      -0.507   0.814   0.837  0.00  0.00    +0.000 A 
ATOM      8  C   UNL     1      -1.317   0.279  -0.177  0.00  0.00    +0.000 A 
ATOM      9  C   UNL     1      -0.732  -0.579  -1.124  0.00  0.00    +0.000 A 
ATOM     10  C   UNL     1       0.628  -0.886  -1.059  0.00  0.00    +0.000 A 
ENDBRANCH   3   8
ENDBRANCH   1   3
BRANCH   1  11
ATOM     11  S   UNL     1      -3.091   2.955  -1.679  0.00  0.00    +0.000 S 
BRANCH  11  12
ATOM     12  C   UNL     1      -2.461   3.164  -3.332  0.00  0.00    +0.000 A 
ATOM     13  C   UNL     1      -3.279   2.961  -4.448  0.00  0.00    +0.000 A 
ATOM     14  C   UNL     1      -2.778   3.160  -5.736  0.00  0.00    +0.000 A 
ATOM     15  C   UNL     1      -1.460   3.573  -5.916  0.00  0.00    +0.000 A 
ATOM     16  C   UNL     1      -0.641   3.787  -4.808  0.00  0.00    +0.000 A 
ATOM     17  C   UNL     1      -1.140   3.586  -3.519  0.00  0.00    +0.000 A 
ENDBRANCH  11  12
ENDBRANCH   1  11
TORSDOF 4
