REMARK  Name = *****
REMARK  2 active torsions:
REMARK  status: ('A' for Active; 'I' for Inactive)
REMARK    1  A    between atoms: C_1  and  C_2
REMARK    2  A    between atoms: C_3  and  C_12
REMARK                            x       y       z     vdW  Elec       q    Type
REMARK                         _______ _______ _______ _____ _____    ______ ____
ROOT
ATOM      1  C   UNL     1       0.993  -0.058   0.414  0.00  0.00    +0.000 C 
ATOM      2  C   UNL     1       2.472  -0.061   0.123  0.00  0.00    +0.000 A 
ATOM      3  C   UNL     1       3.155  -1.254  -0.141  0.00  0.00    +0.000 A 
ATOM      4  N   UNL     1       4.489  -1.262  -0.353  0.00  0.00    +0.000 NA
ATOM      5  N   UNL     1       5.204  -0.094  -0.349  0.00  0.00    +0.000 NA
ATOM      6  C   UNL     1       4.596   1.080  -0.150  0.00  0.00    +0.000 A 
ATOM      7  C   UNL     1       5.352   2.246  -0.181  0.00  0.00    +0.000 A 
ATOM      8  C   UNL     1       4.776   3.501   0.011  0.00  0.00    +0.000 A 
ATOM      9  C   UNL     1       3.411   3.597   0.238  0.00  0.00    +0.000 A 
ATOM     10  C   UNL     1       2.636   2.437   0.276  0.00  0.00    +0.000 A 
ATOM     11  C   UNL     1       3.209   1.154   0.088  0.00  0.00    +0.000 A 
ENDROOT
BRANCH   3  12
ATOM     12  C   UNL     1       2.530  -2.581  -0.222  0.00  0.00    +0.000 A 
ATOM     13  C   UNL     1       1.580  -2.882  -1.214  0.00  0.00    +0.000 A 
ATOM     14  C   UNL     1       0.993  -4.148  -1.285  0.00  0.00    +0.000 A 
ATOM     15  C   UNL     1       1.353  -5.136  -0.371  0.00  0.00    +0.000 A 
ATOM     16  C   UNL     1       2.304  -4.862   0.609  0.00  0.00    +0.000 A 
ATOM     17  C   UNL     1       2.891  -3.596   0.680  0.00  0.00    +0.000 A 
ENDBRANCH   3  12
TORSDOF 1
