REMARK  Name = *****
REMARK  2 active torsions:
REMARK  status: ('A' for Active; 'I' for Inactive)
REMARK    1  A    between atoms: C_6  and  C_7
REMARK    2  A    between atoms: C_8  and  C_9
REMARK                            x       y       z     vdW  Elec       q    Type
REMARK                         _______ _______ _______ _____ _____    ______ ____
ROOT
ATOM      1  C   UNL     1      -1.215   1.003  -0.741  0.00  0.00    +0.000 A 
ATOM      2  C   UNL     1       0.181   0.986  -0.697  0.00  0.00    +0.000 A 
ATOM      3  C   UNL     1       0.832   0.017   0.056  0.00  0.00    +0.000 A 
ATOM      4  C   UNL     1       0.114  -0.939   0.762  0.00  0.00    +0.000 A 
ATOM      5  C   UNL     1      -1.282  -0.924   0.719  0.00  0.00    +0.000 A 
ATOM      6  C   UNL     1      -1.960   0.056  -0.021  0.00  0.00    +0.000 A 
ATOM      7  F   UNL     1       2.170   0.001   0.096  0.00  0.00    +0.000 F 
ENDROOT
BRANCH   6   8
ATOM      8  C   UNL     1      -3.429   0.021  -0.067  0.00  0.00    +0.000 C 
ATOM      9  C   UNL     1      -4.203   1.118  -0.003  0.00  0.00    +0.000 C 
BRANCH   9  10
ATOM     10  C   UNL     1      -5.629   1.126  -0.037  0.00  0.00    +0.000 A 
ATOM     11  C   UNL     1      -6.401   2.263   0.058  0.00  0.00    +0.000 A 
ATOM     12  O   UNL     1      -7.722   1.951  -0.007  0.00  0.00    +0.000 OA
ATOM     13  C   UNL     1      -7.800   0.603  -0.145  0.00  0.00    +0.000 A 
ATOM     14  C   UNL     1      -6.541   0.047  -0.170  0.00  0.00    +0.000 A 
ENDBRANCH   9  10
ENDBRANCH   6   8
TORSDOF 2
