REMARK  Name = *****
REMARK  3 active torsions:
REMARK  status: ('A' for Active; 'I' for Inactive)
REMARK    1  A    between atoms: N_4  and  C_7
REMARK    2  A    between atoms: C_7  and  C_16
REMARK    3  A    between atoms: C_8  and  C_9
REMARK                            x       y       z     vdW  Elec       q    Type
REMARK                         _______ _______ _______ _____ _____    ______ ____
ROOT
ATOM      1  C   UNL     1       2.512   0.043   0.761  0.00  0.00    +0.000 C 
ATOM      2  C   UNL     1       2.680   1.082   1.615  0.00  0.00    +0.000 C 
ENDROOT
BRANCH   2   3
ATOM      3  C   UNL     1       2.091   2.429   1.502  0.00  0.00    +0.000 A 
ATOM      4  C   UNL     1       2.317   3.177   0.336  0.00  0.00    +0.000 A 
ATOM      5  C   UNL     1       1.805   4.470   0.201  0.00  0.00    +0.000 A 
ATOM      6  C   UNL     1       1.066   5.037   1.236  0.00  0.00    +0.000 A 
ATOM      7  C   UNL     1       0.838   4.313   2.405  0.00  0.00    +0.000 A 
ATOM      8  C   UNL     1       1.350   3.017   2.541  0.00  0.00    +0.000 A 
ATOM      9 BR   UNL     1       0.972   2.096   4.163  0.00  0.00    +0.000 Br
ENDBRANCH   2   3
BRANCH   1  13
ATOM     10  C   UNL     1      -0.282  -1.746  -1.519  0.00  0.00    +0.000 C 
ATOM     11  C   UNL     1      -0.564  -0.994  -0.220  0.00  0.00    +0.000 C 
ATOM     12  C   UNL     1       0.191   0.335  -0.173  0.00  0.00    +0.000 C 
ATOM     13  N   UNL     1       1.637   0.100  -0.362  0.00  0.00    +0.000 N 
ATOM     14  C   UNL     1       1.944  -0.571  -1.637  0.00  0.00    +0.000 C 
ATOM     15  C   UNL     1       1.220  -1.910  -1.744  0.00  0.00    +0.000 C 
ENDBRANCH   1  13
BRANCH   1  16
ATOM     16  C   UNL     1       3.302  -1.252   1.052  0.00  0.00    +0.000 C 
ATOM     17  F   UNL     1       2.472  -2.313   1.241  0.00  0.00    +0.000 F 
ATOM     18  F   UNL     1       4.141  -1.585   0.035  0.00  0.00    +0.000 F 
ATOM     19  F   UNL     1       4.074  -1.169   2.170  0.00  0.00    +0.000 F 
ENDBRANCH   1  16
TORSDOF 3
