REMARK  Name = *****
REMARK  5 active torsions:
REMARK  status: ('A' for Active; 'I' for Inactive)
REMARK    1  A    between atoms: C_1  and  C_2
REMARK    2  A    between atoms: C_4  and  C_8
REMARK    3  A    between atoms: C_8  and  C_10
REMARK    4  A    between atoms: C_10  and  C_11
REMARK    5  A    between atoms: C_11  and  C_12
REMARK                            x       y       z     vdW  Elec       q    Type
REMARK                         _______ _______ _______ _____ _____    ______ ____
ROOT
ATOM      1  C   UNL     1      -1.881   2.506   0.004  0.00  0.00    +0.000 C 
ATOM      2  O   UNL     1      -3.110   2.458  -0.012  0.00  0.00    +0.000 OA
ENDROOT
BRANCH   1   6
ATOM      3  C   UNL     1       2.498  -0.045   0.004  0.00  0.00    +0.000 C 
ATOM      4  C   UNL     1       0.997  -0.011   0.002  0.00  0.00    +0.000 A 
ATOM      5  C   UNL     1       0.303   1.208   0.005  0.00  0.00    +0.000 A 
ATOM      6  C   UNL     1      -1.099   1.230   0.000  0.00  0.00    +0.000 A 
ATOM      7  C   UNL     1      -1.804   0.018  -0.008  0.00  0.00    +0.000 A 
ATOM      8  C   UNL     1      -1.119  -1.197  -0.012  0.00  0.00    +0.000 A 
ATOM      9  C   UNL     1       0.275  -1.211  -0.007  0.00  0.00    +0.000 A 
ENDBRANCH   1   6
BRANCH   1  10
ATOM     10  C   UNL     1      -1.125   3.821   0.027  0.00  0.00    +0.000 C 
BRANCH  10  11
ATOM     11  C   UNL     1      -2.072   5.020   0.037  0.00  0.00    +0.000 C 
BRANCH  11  12
ATOM     12  C   UNL     1      -1.307   6.320   0.071  0.00  0.00    +0.000 A 
ATOM     13  C   UNL     1      -0.914   6.945  -1.119  0.00  0.00    +0.000 A 
ATOM     14  C   UNL     1      -0.184   8.134  -1.085  0.00  0.00    +0.000 A 
ATOM     15  C   UNL     1       0.163   8.706   0.137  0.00  0.00    +0.000 A 
ATOM     16  C   UNL     1      -0.219   8.089   1.327  0.00  0.00    +0.000 A 
ATOM     17  C   UNL     1      -0.949   6.900   1.296  0.00  0.00    +0.000 A 
ENDBRANCH  11  12
ENDBRANCH  10  11
ENDBRANCH   1  10
TORSDOF 4
