REMARK  Name = *****
REMARK  3 active torsions:
REMARK  status: ('A' for Active; 'I' for Inactive)
REMARK    1  A    between atoms: C_5  and  C_7
REMARK    2  A    between atoms: C_7  and  C_8
REMARK    3  A    between atoms: C_8  and  C_9
REMARK                            x       y       z     vdW  Elec       q    Type
REMARK                         _______ _______ _______ _____ _____    ______ ____
ROOT
ATOM      1  C   UNL     1      -1.905  -1.756  -0.963  0.00  0.00    +0.000 C 
ENDROOT
BRANCH   1   6
ATOM      2  C   UNL     1      -0.257   1.478   0.452  0.00  0.00    +0.000 C 
ATOM      3  C   UNL     1       1.160   1.095   0.027  0.00  0.00    +0.000 C 
ATOM      4  C   UNL     1       1.366  -0.389  -0.026  0.00  0.00    +0.000 C 
ATOM      5  C   UNL     1       0.357  -1.273  -0.010  0.00  0.00    +0.000 C 
ATOM      6  C   UNL     1      -1.103  -0.880   0.021  0.00  0.00    +0.000 C 
ATOM      7  C   UNL     1      -1.301   0.623  -0.264  0.00  0.00    +0.000 C 
ENDBRANCH   1   6
BRANCH   1   8
ATOM      8  C   UNL     1      -3.418  -1.520  -0.886  0.00  0.00    +0.000 C 
BRANCH   8   9
ATOM      9  C   UNL     1      -4.174  -2.475  -1.777  0.00  0.00    +0.000 A 
ATOM     10  C   UNL     1      -4.652  -3.692  -1.274  0.00  0.00    +0.000 A 
ATOM     11  C   UNL     1      -5.336  -4.580  -2.104  0.00  0.00    +0.000 A 
ATOM     12  C   UNL     1      -5.545  -4.263  -3.445  0.00  0.00    +0.000 A 
ATOM     13  C   UNL     1      -5.068  -3.058  -3.957  0.00  0.00    +0.000 A 
ATOM     14  C   UNL     1      -4.383  -2.168  -3.129  0.00  0.00    +0.000 A 
ENDBRANCH   8   9
ENDBRANCH   1   8
TORSDOF 3
