REMARK  Name = *****
REMARK  3 active torsions:
REMARK  status: ('A' for Active; 'I' for Inactive)
REMARK    1  A    between atoms: C_4  and  O_7
REMARK    2  A    between atoms: O_7  and  C_8
REMARK    3  A    between atoms: C_9  and  C_10
REMARK                            x       y       z     vdW  Elec       q    Type
REMARK                         _______ _______ _______ _____ _____    ______ ____
ROOT
ATOM      1  C   UNL     1      -3.818  -0.541   0.355  0.00  0.00    +0.000 C 
ATOM      2  C   UNL     1      -5.156  -0.520   0.378  0.00  0.00    +0.000 C 
ENDROOT
BRANCH   2   3
ATOM      3  C   UNL     1      -6.007  -1.577  -0.180  0.00  0.00    +0.000 A 
ATOM      4  C   UNL     1      -7.215  -1.881   0.463  0.00  0.00    +0.000 A 
ATOM      5  C   UNL     1      -8.067  -2.864  -0.049  0.00  0.00    +0.000 A 
ATOM      6  C   UNL     1      -7.721  -3.540  -1.216  0.00  0.00    +0.000 A 
ATOM      7  C   UNL     1      -6.533  -3.238  -1.877  0.00  0.00    +0.000 A 
ATOM      8  C   UNL     1      -5.681  -2.256  -1.363  0.00  0.00    +0.000 A 
ATOM      9 CL   UNL     1      -8.769  -4.749  -1.849  0.00  0.00    +0.000 Cl
ENDBRANCH   2   3
BRANCH   1  10
ATOM     10  O   UNL     1      -3.072   0.482   0.898  0.00  0.00    +0.000 OA
BRANCH  10  14
ATOM     11  C   UNL     1       1.044  -0.023   1.181  0.00  0.00    +0.000 A 
ATOM     12  C   UNL     1       0.199  -0.910   1.851  0.00  0.00    +0.000 A 
ATOM     13  C   UNL     1      -1.185  -0.758   1.760  0.00  0.00    +0.000 A 
ATOM     14  C   UNL     1      -1.717   0.275   0.985  0.00  0.00    +0.000 A 
ATOM     15  C   UNL     1      -0.876   1.176   0.334  0.00  0.00    +0.000 A 
ATOM     16  C   UNL     1       0.507   1.021   0.426  0.00  0.00    +0.000 A 
ENDBRANCH  10  14
ENDBRANCH   1  10
TORSDOF 3
