REMARK  Name = *****
REMARK  4 active torsions:
REMARK  status: ('A' for Active; 'I' for Inactive)
REMARK    1  A    between atoms: C_1  and  N_2
REMARK    2  A    between atoms: N_2  and  C_3
REMARK    3  A    between atoms: N_2  and  P_9
REMARK    4  A    between atoms: P_9  and  C_11
REMARK                            x       y       z     vdW  Elec       q    Type
REMARK                         _______ _______ _______ _____ _____    ______ ____
ROOT
ATOM      1  P   UNL     1       2.274   1.509  -0.046  0.00  0.00    +0.000 P 
ATOM      2  O   UNL     1       1.142   2.433  -0.452  0.00  0.00    +0.000 OA
ATOM      3  I   UNL     1       3.853   1.687  -1.898  0.00  0.00    +0.000 I 
ENDROOT
BRANCH   1   4
ATOM      4  C   UNL     1       3.108   2.139   1.425  0.00  0.00    +0.000 A 
ATOM      5  C   UNL     1       4.440   1.823   1.732  0.00  0.00    +0.000 A 
ATOM      6  C   UNL     1       5.044   2.328   2.886  0.00  0.00    +0.000 A 
ATOM      7  C   UNL     1       4.325   3.156   3.745  0.00  0.00    +0.000 A 
ATOM      8  C   UNL     1       3.002   3.478   3.455  0.00  0.00    +0.000 A 
ATOM      9  C   UNL     1       2.398   2.973   2.303  0.00  0.00    +0.000 A 
ENDBRANCH   1   4
BRANCH   1  11
ATOM     10  C   UNL     1       0.843  -0.497  -0.911  0.00  0.00    +0.000 C 
ATOM     11  N   UNL     1       1.833  -0.105   0.085  0.00  0.00    +0.000 N 
BRANCH  11  12
ATOM     12  C   UNL     1       2.764  -1.097   0.440  0.00  0.00    +0.000 A 
ATOM     13  C   UNL     1       3.340  -1.974  -0.491  0.00  0.00    +0.000 A 
ATOM     14  C   UNL     1       4.270  -2.938  -0.092  0.00  0.00    +0.000 A 
ATOM     15  C   UNL     1       4.633  -3.048   1.247  0.00  0.00    +0.000 A 
ATOM     16  C   UNL     1       4.061  -2.197   2.188  0.00  0.00    +0.000 A 
ATOM     17  C   UNL     1       3.133  -1.234   1.785  0.00  0.00    +0.000 A 
ENDBRANCH  11  12
ENDBRANCH   1  11
TORSDOF 3
