REMARK  Name = *****
REMARK  3 active torsions:
REMARK  status: ('A' for Active; 'I' for Inactive)
REMARK    1  A    between atoms: C_1  and  C_2
REMARK    2  A    between atoms: C_2  and  C_7
REMARK    3  A    between atoms: C_8  and  C_9
REMARK                            x       y       z     vdW  Elec       q    Type
REMARK                         _______ _______ _______ _____ _____    ______ ____
ROOT
ATOM      1  C   UNL     1       2.913   0.120  -1.637  0.00  0.00    +0.000 C 
ATOM      2  C   UNL     1       3.180   0.236  -2.803  0.00  0.00    +0.000 C 
ENDROOT
BRANCH   1   4
ATOM      3  C   UNL     1       1.078  -0.077   0.002  0.00  0.00    +0.000 C 
ATOM      4  C   UNL     1       2.592  -0.023  -0.208  0.00  0.00    +0.000 C 
ATOM      5  S   UNL     1       3.339  -1.573   0.445  0.00  0.00    +0.000 S 
ATOM      6  C   UNL     1       4.330  -0.822   1.762  0.00  0.00    +0.000 C 
ATOM      7  C   UNL     1       4.755   0.560   1.313  0.00  0.00    +0.000 C 
ATOM      8  S   UNL     1       3.266   1.401   0.732  0.00  0.00    +0.000 S 
ENDBRANCH   1   4
BRANCH   2   9
ATOM      9  C   UNL     1       3.502   0.374  -4.189  0.00  0.00    +0.000 A 
ATOM     10  C   UNL     1       3.600   1.645  -4.761  0.00  0.00    +0.000 A 
ATOM     11  C   UNL     1       3.917   1.779  -6.115  0.00  0.00    +0.000 A 
ATOM     12  C   UNL     1       4.136   0.644  -6.896  0.00  0.00    +0.000 A 
ATOM     13  C   UNL     1       4.038  -0.626  -6.326  0.00  0.00    +0.000 A 
ATOM     14  C   UNL     1       3.722  -0.761  -4.973  0.00  0.00    +0.000 A 
ENDBRANCH   2   9
TORSDOF 2
