REMARK  Name = *****
REMARK  5 active torsions:
REMARK  status: ('A' for Active; 'I' for Inactive)
REMARK    1  A    between atoms: C_1  and  C_2
REMARK    2  A    between atoms: C_2  and  C_3
REMARK    3  A    between atoms: C_2  and  C_11
REMARK    4  A    between atoms: C_2  and  N_17
REMARK    5  A    between atoms: C_3  and  C_4
REMARK                            x       y       z     vdW  Elec       q    Type
REMARK                         _______ _______ _______ _____ _____    ______ ____
ROOT
ATOM      1  C   UNL     1       1.088  -0.046   0.030  0.00  0.00    +0.000 C 
ATOM      2  C   UNL     1       2.627   0.045   0.018  0.00  0.00    +0.000 C 
ENDROOT
BRANCH   2   3
ATOM      3  C   UNL     1       3.190  -1.016   0.997  0.00  0.00    +0.000 A 
ATOM      4  C   UNL     1       2.970  -2.387   0.742  0.00  0.00    +0.000 A 
ATOM      5  C   UNL     1       3.451  -3.378   1.602  0.00  0.00    +0.000 A 
ATOM      6  C   UNL     1       4.166  -3.024   2.740  0.00  0.00    +0.000 A 
ATOM      7  C   UNL     1       4.400  -1.681   3.015  0.00  0.00    +0.000 A 
ATOM      8  C   UNL     1       3.918  -0.687   2.154  0.00  0.00    +0.000 A 
ENDBRANCH   2   3
BRANCH   2   9
ATOM      9  N   UNL     1       3.095  -0.319  -1.310  0.00  0.00    +0.000 NA
ATOM     10  C   UNL     1       3.462  -0.632  -2.381  0.00  0.00    +0.000 C 
ENDBRANCH   2   9
BRANCH   2  11
ATOM     11  C   UNL     1       3.106   1.499   0.337  0.00  0.00    +0.000 C 
BRANCH  11  12
ATOM     12  C   UNL     1       2.600   2.622  -0.555  0.00  0.00    +0.000 A 
ATOM     13  C   UNL     1       3.267   2.860  -1.771  0.00  0.00    +0.000 A 
ATOM     14  C   UNL     1       2.852   3.869  -2.642  0.00  0.00    +0.000 A 
ATOM     15  C   UNL     1       1.767   4.671  -2.310  0.00  0.00    +0.000 A 
ATOM     16  C   UNL     1       1.103   4.469  -1.102  0.00  0.00    +0.000 A 
ATOM     17  C   UNL     1       1.516   3.457  -0.226  0.00  0.00    +0.000 A 
ATOM     18 BR   UNL     1       0.553   3.310   1.407  0.00  0.00    +0.000 Br
ENDBRANCH  11  12
ENDBRANCH   2  11
TORSDOF 4
