REMARK  Name = *****
REMARK  3 active torsions:
REMARK  status: ('A' for Active; 'I' for Inactive)
REMARK    1  A    between atoms: C_4  and  S_7
REMARK    2  A    between atoms: S_7  and  C_8
REMARK    3  A    between atoms: C_8  and  C_10
REMARK                            x       y       z     vdW  Elec       q    Type
REMARK                         _______ _______ _______ _____ _____    ______ ____
ROOT
ATOM      1  C   UNL     1       2.747  -2.672  -0.521  0.00  0.00    +0.000 C 
ATOM      2  O   UNL     1       2.290  -3.012   0.564  0.00  0.00    +0.000 OA
ENDROOT
BRANCH   1   3
ATOM      3  C   UNL     1       3.562  -3.627  -1.334  0.00  0.00    +0.000 A 
ATOM      4  C   UNL     1       3.765  -4.915  -0.809  0.00  0.00    +0.000 A 
ATOM      5  C   UNL     1       4.512  -5.863  -1.512  0.00  0.00    +0.000 A 
ATOM      6  C   UNL     1       5.064  -5.537  -2.748  0.00  0.00    +0.000 A 
ATOM      7  C   UNL     1       4.872  -4.264  -3.281  0.00  0.00    +0.000 A 
ATOM      8  C   UNL     1       4.124  -3.312  -2.579  0.00  0.00    +0.000 A 
ENDBRANCH   1   3
BRANCH   1   9
ATOM      9  S   UNL     1       2.472  -1.051  -1.156  0.00  0.00    +0.000 S 
BRANCH   9  13
ATOM     10  C   UNL     1      -1.494   0.872   0.273  0.00  0.00    +0.000 C 
ATOM     11  C   UNL     1      -1.379  -0.646   0.359  0.00  0.00    +0.000 C 
ATOM     12  C   UNL     1      -0.210  -1.172  -0.474  0.00  0.00    +0.000 C 
ATOM     13  C   UNL     1       1.107  -0.494  -0.075  0.00  0.00    +0.000 C 
ATOM     14  C   UNL     1       0.985   1.033  -0.187  0.00  0.00    +0.000 C 
ATOM     15  C   UNL     1      -0.184   1.557   0.647  0.00  0.00    +0.000 C 
ENDBRANCH   9  13
ENDBRANCH   1   9
TORSDOF 3
