REMARK  Name = *****
REMARK  3 active torsions:
REMARK  status: ('A' for Active; 'I' for Inactive)
REMARK    1  A    between atoms: C_3  and  O_8
REMARK    2  A    between atoms: O_8  and  C_9
REMARK    3  A    between atoms: C_9  and  C_11
REMARK                            x       y       z     vdW  Elec       q    Type
REMARK                         _______ _______ _______ _____ _____    ______ ____
ROOT
ATOM      1  C   UNL     1      -1.205   3.675   0.385  0.00  0.00    +0.000 C 
ATOM      2  O   UNL     1      -0.017   3.636   0.099  0.00  0.00    +0.000 OA
ENDROOT
BRANCH   1   3
ATOM      3  C   UNL     1      -2.011   4.908   0.240  0.00  0.00    +0.000 A 
ATOM      4  C   UNL     1      -3.219   5.111   0.913  0.00  0.00    +0.000 A 
ATOM      5  C   UNL     1      -3.941   6.294   0.745  0.00  0.00    +0.000 A 
ATOM      6  C   UNL     1      -3.452   7.290  -0.098  0.00  0.00    +0.000 A 
ATOM      7  C   UNL     1      -2.243   7.094  -0.759  0.00  0.00    +0.000 A 
ATOM      8  C   UNL     1      -1.518   5.918  -0.597  0.00  0.00    +0.000 A 
ATOM      9  F   UNL     1      -1.772   8.053  -1.564  0.00  0.00    +0.000 F 
ATOM     10  F   UNL     1      -3.712   4.195   1.758  0.00  0.00    +0.000 F 
ENDBRANCH   1   3
BRANCH   1  11
ATOM     11  O   UNL     1      -1.999   2.627   0.802  0.00  0.00    +0.000 OA
BRANCH  11  14
ATOM     12  C   UNL     1      -0.984  -0.860   0.247  0.00  0.00    +0.000 A 
ATOM     13  C   UNL     1      -1.610   0.377   0.081  0.00  0.00    +0.000 A 
ATOM     14  C   UNL     1      -1.316   1.418   0.963  0.00  0.00    +0.000 A 
ATOM     15  C   UNL     1      -0.437   1.237   2.029  0.00  0.00    +0.000 A 
ATOM     16  C   UNL     1       0.177   0.001   2.179  0.00  0.00    +0.000 A 
ATOM     17  C   UNL     1      -0.085  -1.047   1.299  0.00  0.00    +0.000 A 
ATOM     18  F   UNL     1       1.031  -0.193   3.193  0.00  0.00    +0.000 F 
ENDBRANCH  11  14
ENDBRANCH   1  11
TORSDOF 3
