REMARK  Name = *****
REMARK  4 active torsions:
REMARK  status: ('A' for Active; 'I' for Inactive)
REMARK    1  A    between atoms: C_1  and  C_2
REMARK    2  A    between atoms: C_4  and  C_17
REMARK    3  A    between atoms: C_5  and  N_8
REMARK    4  A    between atoms: C_9  and  C_10
REMARK                            x       y       z     vdW  Elec       q    Type
REMARK                         _______ _______ _______ _____ _____    ______ ____
ROOT
ATOM      1  N   UNL     1      -2.361  -1.888  -0.656  0.00  0.00    +0.000 NA
ATOM      2  C   UNL     1      -2.664  -2.729   0.281  0.00  0.00    +0.000 C 
ENDROOT
BRANCH   1   7
ATOM      3  C   UNL     1       2.492   1.038   0.133  0.00  0.00    +0.000 C 
ATOM      4  C   UNL     1       1.214   0.287  -0.100  0.00  0.00    +0.000 A 
ATOM      5  C   UNL     1      -0.015   0.847   0.272  0.00  0.00    +0.000 A 
ATOM      6  C   UNL     1      -1.218   0.145   0.084  0.00  0.00    +0.000 A 
ATOM      7  C   UNL     1      -1.181  -1.151  -0.455  0.00  0.00    +0.000 A 
ATOM      8  C   UNL     1       0.047  -1.707  -0.829  0.00  0.00    +0.000 A 
ATOM      9  C   UNL     1       1.237  -1.000  -0.645  0.00  0.00    +0.000 A 
ATOM     10  C   UNL     1      -2.524   0.777   0.475  0.00  0.00    +0.000 C 
ENDBRANCH   1   7
BRANCH   2  11
ATOM     11  C   UNL     1      -3.875  -3.570   0.210  0.00  0.00    +0.000 A 
ATOM     12  C   UNL     1      -4.752  -3.471  -0.877  0.00  0.00    +0.000 A 
ATOM     13  C   UNL     1      -5.892  -4.275  -0.922  0.00  0.00    +0.000 A 
ATOM     14  C   UNL     1      -6.144  -5.166   0.116  0.00  0.00    +0.000 A 
ATOM     15  C   UNL     1      -5.277  -5.271   1.200  0.00  0.00    +0.000 A 
ATOM     16  C   UNL     1      -4.135  -4.469   1.251  0.00  0.00    +0.000 A 
ATOM     17  F   UNL     1      -7.238  -5.938   0.072  0.00  0.00    +0.000 F 
ENDBRANCH   2  11
TORSDOF 2
