REMARK  Name = *****
REMARK  5 active torsions:
REMARK  status: ('A' for Active; 'I' for Inactive)
REMARK    1  A    between atoms: C_1  and  C_2
REMARK    2  A    between atoms: C_7  and  C_8
REMARK    3  A    between atoms: C_8  and  O_10
REMARK    4  A    between atoms: O_10  and  C_11
REMARK    5  A    between atoms: C_11  and  C_12
REMARK                            x       y       z     vdW  Elec       q    Type
REMARK                         _______ _______ _______ _____ _____    ______ ____
ROOT
ATOM      1  C   UNL     1       3.186  -3.753   0.755  0.00  0.00    +0.000 C 
ENDROOT
BRANCH   1   2
ATOM      2  C   UNL     1       2.186  -4.711   0.170  0.00  0.00    +0.000 A 
ATOM      3  C   UNL     1       1.394  -4.373  -0.931  0.00  0.00    +0.000 A 
ATOM      4  C   UNL     1       0.468  -5.273  -1.454  0.00  0.00    +0.000 A 
ATOM      5  C   UNL     1       0.331  -6.534  -0.892  0.00  0.00    +0.000 A 
ATOM      6  C   UNL     1       1.124  -6.898   0.185  0.00  0.00    +0.000 A 
ATOM      7  C   UNL     1       2.047  -5.995   0.707  0.00  0.00    +0.000 A 
ATOM      8  F   UNL     1       2.824  -6.373   1.732  0.00  0.00    +0.000 F 
ATOM      9  F   UNL     1       1.013  -8.124   0.717  0.00  0.00    +0.000 F 
ATOM     10  F   UNL     1      -0.555  -7.403  -1.399  0.00  0.00    +0.000 F 
ATOM     11  F   UNL     1      -0.284  -4.923  -2.507  0.00  0.00    +0.000 F 
ATOM     12  F   UNL     1       1.524  -3.168  -1.505  0.00  0.00    +0.000 F 
ENDBRANCH   1   2
BRANCH   1  13
ATOM     13  O   UNL     1       2.688  -2.409   0.838  0.00  0.00    +0.000 OA
BRANCH  13  14
ATOM     14  C   UNL     1       1.784  -2.179   1.826  0.00  0.00    +0.000 C 
ATOM     15  O   UNL     1       1.379  -3.021   2.610  0.00  0.00    +0.000 OA
BRANCH  14  22
ATOM     16  C   UNL     1       0.583  -0.873   4.248  0.00  0.00    +0.000 C 
ATOM     17  C   UNL     1       0.793  -0.137   2.952  0.00  0.00    +0.000 A 
ATOM     18  C   UNL     1       0.393   1.210   2.878  0.00  0.00    +0.000 A 
ATOM     19  C   UNL     1       0.558   1.945   1.704  0.00  0.00    +0.000 A 
ATOM     20  C   UNL     1       1.120   1.347   0.582  0.00  0.00    +0.000 A 
ATOM     21  C   UNL     1       1.516   0.010   0.633  0.00  0.00    +0.000 A 
ATOM     22  C   UNL     1       1.363  -0.744   1.812  0.00  0.00    +0.000 A 
ENDBRANCH  14  22
ENDBRANCH  13  14
ENDBRANCH   1  13
TORSDOF 4
