REMARK  Name = *****
REMARK  6 active torsions:
REMARK  status: ('A' for Active; 'I' for Inactive)
REMARK    1  A    between atoms: C_1  and  C_2
REMARK    2  A    between atoms: C_2  and  C_3
REMARK    3  A    between atoms: C_2  and  C_4
REMARK    4  A    between atoms: C_4  and  C_5
REMARK    5  A    between atoms: C_4  and  C_11
REMARK    6  A    between atoms: C_11  and  C_13
REMARK                            x       y       z     vdW  Elec       q    Type
REMARK                         _______ _______ _______ _____ _____    ______ ____
ROOT
ATOM      1  C   UNL     1       3.235   0.791   0.764  0.00  0.00    +0.000 C 
ENDROOT
BRANCH   1   2
ATOM      2  C   UNL     1       2.763   0.643   2.207  0.00  0.00    +0.000 A 
ATOM      3  C   UNL     1       3.437  -0.170   3.131  0.00  0.00    +0.000 A 
ATOM      4  C   UNL     1       2.978  -0.286   4.444  0.00  0.00    +0.000 A 
ATOM      5  C   UNL     1       1.837   0.403   4.850  0.00  0.00    +0.000 A 
ATOM      6  C   UNL     1       1.150   1.204   3.942  0.00  0.00    +0.000 A 
ATOM      7  C   UNL     1       1.607   1.322   2.628  0.00  0.00    +0.000 A 
ENDBRANCH   1   2
BRANCH   1   9
ATOM      8  C   UNL     1       2.827   0.112  -1.665  0.00  0.00    +0.000 C 
ATOM      9  C   UNL     1       2.480  -0.174  -0.199  0.00  0.00    +0.000 C 
ATOM     10  C   UNL     1       2.652  -1.668   0.098  0.00  0.00    +0.000 C 
ENDBRANCH   1   9
BRANCH   1  11
ATOM     11  C   UNL     1       4.767   0.752   0.625  0.00  0.00    +0.000 C 
ATOM     12  O   UNL     1       5.382  -0.276   0.342  0.00  0.00    +0.000 OA
BRANCH  11  13
ATOM     13  C   UNL     1       5.556   2.006   0.839  0.00  0.00    +0.000 A 
ATOM     14  C   UNL     1       5.051   3.116   1.527  0.00  0.00    +0.000 A 
ATOM     15  C   UNL     1       5.838   4.260   1.690  0.00  0.00    +0.000 A 
ATOM     16  C   UNL     1       7.131   4.303   1.172  0.00  0.00    +0.000 A 
ATOM     17  C   UNL     1       7.646   3.201   0.494  0.00  0.00    +0.000 A 
ATOM     18  C   UNL     1       6.863   2.056   0.331  0.00  0.00    +0.000 A 
ENDBRANCH  11  13
ENDBRANCH   1  11
TORSDOF 4
