REMARK  Name = *****
REMARK  3 active torsions:
REMARK  status: ('A' for Active; 'I' for Inactive)
REMARK    1  A    between atoms: C_4  and  C_7
REMARK    2  A    between atoms: C_7  and  P_8
REMARK    3  A    between atoms: P_8  and  C_9
REMARK                            x       y       z     vdW  Elec       q    Type
REMARK                         _______ _______ _______ _____ _____    ______ ____
ROOT
ATOM      1  P   UNL     1      -3.692  -1.154  -0.595  0.00  0.00    +0.000 P 
ATOM      2 CL   UNL     1      -3.449  -1.446  -2.668  0.00  0.00    +0.000 Cl
ENDROOT
BRANCH   1   3
ATOM      3  C   UNL     1      -5.439  -0.623  -0.525  0.00  0.00    +0.000 A 
ATOM      4  C   UNL     1      -5.976   0.348  -1.383  0.00  0.00    +0.000 A 
ATOM      5  C   UNL     1      -7.316   0.731  -1.280  0.00  0.00    +0.000 A 
ATOM      6  C   UNL     1      -8.137   0.150  -0.317  0.00  0.00    +0.000 A 
ATOM      7  C   UNL     1      -7.620  -0.816   0.543  0.00  0.00    +0.000 A 
ATOM      8  C   UNL     1      -6.280  -1.200   0.439  0.00  0.00    +0.000 A 
ENDBRANCH   1   3
BRANCH   1   9
ATOM      9  C   UNL     1      -2.845   0.457  -0.357  0.00  0.00    +0.000 C 
BRANCH   9  13
ATOM     10  C   UNL     1       1.306  -0.546   0.295  0.00  0.00    +0.000 A 
ATOM     11  C   UNL     1       0.854  -0.244  -0.988  0.00  0.00    +0.000 A 
ATOM     12  C   UNL     1      -0.487   0.078  -1.200  0.00  0.00    +0.000 A 
ATOM     13  C   UNL     1      -1.399   0.094  -0.132  0.00  0.00    +0.000 A 
ATOM     14  C   UNL     1      -0.926  -0.206   1.158  0.00  0.00    +0.000 A 
ATOM     15  C   UNL     1       0.417  -0.526   1.367  0.00  0.00    +0.000 A 
ENDBRANCH   9  13
ENDBRANCH   1   9
TORSDOF 3
