REMARK  Name = *****
REMARK  2 active torsions:
REMARK  status: ('A' for Active; 'I' for Inactive)
REMARK    1  A    between atoms: C_4  and  C_7
REMARK    2  A    between atoms: C_8  and  C_9
REMARK                            x       y       z     vdW  Elec       q    Type
REMARK                         _______ _______ _______ _____ _____    ______ ____
ROOT
ATOM      1  C   UNL     1       2.925   0.196  -0.321  0.00  0.00    +0.000 C 
ATOM      2  C   UNL     1       4.117   0.269  -0.455  0.00  0.00    +0.000 C 
ENDROOT
BRANCH   2   3
ATOM      3  C   UNL     1       5.535   0.358  -0.617  0.00  0.00    +0.000 A 
ATOM      4  C   UNL     1       6.153   1.607  -0.688  0.00  0.00    +0.000 A 
ATOM      5  C   UNL     1       7.532   1.676  -0.848  0.00  0.00    +0.000 A 
ATOM      6  C   UNL     1       8.306   0.524  -0.938  0.00  0.00    +0.000 A 
ATOM      7  C   UNL     1       7.690  -0.725  -0.866  0.00  0.00    +0.000 A 
ATOM      8  C   UNL     1       6.304  -0.807  -0.706  0.00  0.00    +0.000 A 
ATOM      9  F   UNL     1       8.127   2.874  -0.917  0.00  0.00    +0.000 F 
ENDBRANCH   2   3
BRANCH   1  13
ATOM     10  C   UNL     1      -1.266  -0.056   0.137  0.00  0.00    +0.000 A 
ATOM     11  C   UNL     1      -0.647   1.191   0.063  0.00  0.00    +0.000 A 
ATOM     12  C   UNL     1       0.739   1.275  -0.088  0.00  0.00    +0.000 A 
ATOM     13  C   UNL     1       1.506   0.110  -0.164  0.00  0.00    +0.000 A 
ATOM     14  C   UNL     1       0.884  -1.138  -0.090  0.00  0.00    +0.000 A 
ATOM     15  C   UNL     1      -0.502  -1.221   0.061  0.00  0.00    +0.000 A 
ENDBRANCH   1  13
TORSDOF 2
