REMARK  Name = *****
REMARK  4 active torsions:
REMARK  status: ('A' for Active; 'I' for Inactive)
REMARK    1  A    between atoms: C_1  and  C_2
REMARK    2  A    between atoms: C_7  and  C_8
REMARK    3  A    between atoms: C_9  and  C_10
REMARK    4  A    between atoms: C_15  and  C_16
REMARK                            x       y       z     vdW  Elec       q    Type
REMARK                         _______ _______ _______ _____ _____    ______ ____
ROOT
ATOM      1  C   UNL     1       2.407  -2.534  -0.311  0.00  0.00    +0.000 C 
ATOM      2  C   UNL     1       1.832  -3.587  -0.377  0.00  0.00    +0.000 C 
ENDROOT
BRANCH   1   9
ATOM      3  C   UNL     1       0.870  -0.041  -0.044  0.00  0.00    +0.000 C 
ATOM      4  C   UNL     1       2.372  -0.066  -0.110  0.00  0.00    +0.000 A 
ATOM      5  C   UNL     1       3.088   1.140  -0.047  0.00  0.00    +0.000 A 
ATOM      6  C   UNL     1       4.483   1.145  -0.108  0.00  0.00    +0.000 A 
ATOM      7  C   UNL     1       5.180  -0.054  -0.233  0.00  0.00    +0.000 A 
ATOM      8  C   UNL     1       4.482  -1.259  -0.298  0.00  0.00    +0.000 A 
ATOM      9  C   UNL     1       3.083  -1.273  -0.238  0.00  0.00    +0.000 A 
ENDBRANCH   1   9
BRANCH   2  10
ATOM     10  C   UNL     1       1.135  -4.837  -0.459  0.00  0.00    +0.000 A 
ATOM     11  C   UNL     1       1.824  -6.009  -0.126  0.00  0.00    +0.000 A 
ATOM     12  C   UNL     1       1.185  -7.247  -0.194  0.00  0.00    +0.000 A 
ATOM     13  C   UNL     1      -0.146  -7.319  -0.595  0.00  0.00    +0.000 A 
ATOM     14  C   UNL     1      -0.840  -6.154  -0.927  0.00  0.00    +0.000 A 
ATOM     15  C   UNL     1      -0.210  -4.901  -0.865  0.00  0.00    +0.000 A 
ATOM     16  C   UNL     1      -0.983  -3.663  -1.227  0.00  0.00    +0.000 C 
ENDBRANCH   2  10
TORSDOF 2
