REMARK  Name = *****
REMARK  8 active torsions:
REMARK  status: ('A' for Active; 'I' for Inactive)
REMARK    1  A    between atoms: C_1  and  C_2
REMARK    2  A    between atoms: C_4  and  C_20
REMARK    3  A    between atoms: C_5  and  O_9
REMARK    4  A    between atoms: C_6  and  C_8
REMARK    5  A    between atoms: O_9  and  C_10
REMARK    6  A    between atoms: C_10  and  C_12
REMARK    7  A    between atoms: C_12  and  N_13
REMARK    8  A    between atoms: C_14  and  C_19
REMARK                            x       y       z     vdW  Elec       q    Type
REMARK                         _______ _______ _______ _____ _____    ______ ____
ROOT
ATOM      1  O   UNL     1      -2.348  -1.317  -1.197  0.00  0.00    +0.000 OA
ENDROOT
BRANCH   1   6
ATOM      2  C   UNL     1       1.984   1.709   0.908  0.00  0.00    +0.000 C 
ATOM      3  C   UNL     1       0.838   0.902   0.372  0.00  0.00    +0.000 A 
ATOM      4  C   UNL     1       1.036  -0.422  -0.044  0.00  0.00    +0.000 A 
ATOM      5  C   UNL     1      -0.019  -1.177  -0.573  0.00  0.00    +0.000 A 
ATOM      6  C   UNL     1      -1.287  -0.581  -0.655  0.00  0.00    +0.000 A 
ATOM      7  C   UNL     1      -1.505   0.756  -0.291  0.00  0.00    +0.000 A 
ATOM      8  C   UNL     1      -0.429   1.485   0.232  0.00  0.00    +0.000 A 
ATOM      9  C   UNL     1      -2.858   1.390  -0.411  0.00  0.00    +0.000 C 
ATOM     10  C   UNL     1       0.211  -2.602  -0.986  0.00  0.00    +0.000 C 
ENDBRANCH   1   6
BRANCH   1  11
ATOM     11  C   UNL     1      -3.019  -2.091  -0.254  0.00  0.00    +0.000 C 
ATOM     12  O   UNL     1      -2.852  -2.073   0.959  0.00  0.00    +0.000 OA
BRANCH  11  13
ATOM     13  C   UNL     1      -4.069  -2.921  -0.981  0.00  0.00    +0.000 C 
BRANCH  13  14
ATOM     14  N   UNL     1      -4.302  -4.180  -0.297  0.00  0.00    +0.000 N 
ATOM     15  C   UNL     1      -5.262  -4.397   0.681  0.00  0.00    +0.000 A 
ATOM     16  C   UNL     1      -5.214  -5.633   1.198  0.00  0.00    +0.000 A 
ATOM     17  S   UNL     1      -3.951  -6.592   0.491  0.00  0.00    +0.000 S 
ATOM     18  C   UNL     1      -3.444  -5.246  -0.533  0.00  0.00    +0.000 A 
ATOM     19  O   UNL     1      -2.496  -5.282  -1.301  0.00  0.00    +0.000 OA
ATOM     20  C   UNL     1      -6.222  -3.334   1.099  0.00  0.00    +0.000 C 
ENDBRANCH  13  14
ENDBRANCH  11  13
ENDBRANCH   1  11
TORSDOF 4
