REMARK  Name = *****
REMARK  5 active torsions:
REMARK  status: ('A' for Active; 'I' for Inactive)
REMARK    1  A    between atoms: C_4  and  S_7
REMARK    2  A    between atoms: S_7  and  C_8
REMARK    3  A    between atoms: C_8  and  C_9
REMARK    4  A    between atoms: C_9  and  C_10
REMARK    5  A    between atoms: C_10  and  C_11
REMARK                            x       y       z     vdW  Elec       q    Type
REMARK                         _______ _______ _______ _____ _____    ______ ____
ROOT
ATOM      1  C   UNL     1      -5.494  -0.638  -0.579  0.00  0.00    +0.000 C 
ATOM      2  F   UNL     1      -5.772   0.522   0.073  0.00  0.00    +0.000 F 
ATOM      3  F   UNL     1      -5.849  -0.451  -1.877  0.00  0.00    +0.000 F 
ENDROOT
BRANCH   1   4
ATOM      4  C   UNL     1      -6.291  -1.777   0.022  0.00  0.00    +0.000 C 
ATOM      5  F   UNL     1      -5.989  -2.944  -0.622  0.00  0.00    +0.000 F 
ATOM      6  F   UNL     1      -5.913  -1.973   1.321  0.00  0.00    +0.000 F 
BRANCH   4   7
ATOM      7  C   UNL     1      -7.775  -1.486  -0.066  0.00  0.00    +0.000 C 
ATOM      8  F   UNL     1      -8.126  -0.365   0.606  0.00  0.00    +0.000 F 
ATOM      9  F   UNL     1      -8.201  -1.341  -1.342  0.00  0.00    +0.000 F 
ATOM     10  F   UNL     1      -8.501  -2.502   0.471  0.00  0.00    +0.000 F 
ENDBRANCH   4   7
ENDBRANCH   1   4
BRANCH   1  11
ATOM     11  C   UNL     1      -3.995  -0.932  -0.492  0.00  0.00    +0.000 C 
BRANCH  11  12
ATOM     12  S   UNL     1      -2.985   0.423  -1.205  0.00  0.00    +0.000 S 
BRANCH  12  16
ATOM     13  C   UNL     1       1.413  -0.859  -0.777  0.00  0.00    +0.000 A 
ATOM     14  C   UNL     1       0.421  -1.716  -0.306  0.00  0.00    +0.000 A 
ATOM     15  C   UNL     1      -0.928  -1.363  -0.417  0.00  0.00    +0.000 A 
ATOM     16  C   UNL     1      -1.302  -0.148  -1.001  0.00  0.00    +0.000 A 
ATOM     17  C   UNL     1      -0.291   0.704  -1.470  0.00  0.00    +0.000 A 
ATOM     18  C   UNL     1       1.057   0.353  -1.359  0.00  0.00    +0.000 A 
ENDBRANCH  12  16
ENDBRANCH  11  12
ENDBRANCH   1  11
TORSDOF 5
