REMARK  Name = *****
REMARK  4 active torsions:
REMARK  status: ('A' for Active; 'I' for Inactive)
REMARK    1  A    between atoms: C_1  and  N_2
REMARK    2  A    between atoms: C_5  and  C_8
REMARK    3  A    between atoms: C_9  and  C_10
REMARK    4  A    between atoms: C_13  and  C_16
REMARK                            x       y       z     vdW  Elec       q    Type
REMARK                         _______ _______ _______ _____ _____    ______ ____
ROOT
ATOM      1  C   UNL     1       5.483   1.230   0.566  0.00  0.00    +0.000 A 
ATOM      2  C   UNL     1       6.280   0.383  -0.214  0.00  0.00    +0.000 A 
ATOM      3  C   UNL     1       7.673   0.409  -0.098  0.00  0.00    +0.000 A 
ATOM      4  C   UNL     1       8.298   1.286   0.799  0.00  0.00    +0.000 A 
ATOM      5  C   UNL     1       7.501   2.152   1.561  0.00  0.00    +0.000 A 
ATOM      6  C   UNL     1       6.107   2.125   1.443  0.00  0.00    +0.000 A 
ENDROOT
BRANCH   4   7
ATOM      7  C   UNL     1       9.804   1.335   0.913  0.00  0.00    +0.000 C 
ATOM      8  F   UNL     1      10.406   0.172   0.537  0.00  0.00    +0.000 F 
ATOM      9  F   UNL     1      10.348   2.309   0.135  0.00  0.00    +0.000 F 
ATOM     10  F   UNL     1      10.231   1.583   2.182  0.00  0.00    +0.000 F 
ENDBRANCH   4   7
BRANCH   1  12
ATOM     11  C   UNL     1       3.269   0.145   0.331  0.00  0.00    +0.000 C 
ATOM     12  C   UNL     1       4.017   1.254   0.448  0.00  0.00    +0.000 C 
BRANCH  11  17
ATOM     13  C   UNL     1      -2.429   0.022  -0.051  0.00  0.00    +0.000 C 
ATOM     14  N   UNL     1      -0.960   0.076   0.045  0.00  0.00    +0.000 N 
ATOM     15  C   UNL     1      -0.274   1.048  -0.595  0.00  0.00    +0.000 C 
ATOM     16  C   UNL     1       1.113   1.105  -0.516  0.00  0.00    +0.000 C 
ATOM     17  C   UNL     1       1.804   0.155   0.235  0.00  0.00    +0.000 C 
ATOM     18  C   UNL     1       1.075  -0.851   0.866  0.00  0.00    +0.000 C 
ATOM     19  C   UNL     1      -0.311  -0.869   0.762  0.00  0.00    +0.000 C 
ENDBRANCH  11  17
ENDBRANCH   1  12
TORSDOF 3
