REMARK  Name = *****
REMARK  2 active torsions:
REMARK  status: ('A' for Active; 'I' for Inactive)
REMARK    1  A    between atoms: C_1  and  C_2
REMARK    2  A    between atoms: C_9  and  C_11
REMARK                            x       y       z     vdW  Elec       q    Type
REMARK                         _______ _______ _______ _____ _____    ______ ____
ROOT
ATOM      1  C   UNL     1       0.982   0.050  -0.041  0.00  0.00    +0.000 C 
ATOM      2  C   UNL     1       2.475   0.002  -0.056  0.00  0.00    +0.000 A 
ATOM      3  C   UNL     1       3.297   1.130  -0.082  0.00  0.00    +0.000 A 
ATOM      4  C   UNL     1       4.682   1.108  -0.099  0.00  0.00    +0.000 A 
ATOM      5  C   UNL     1       5.344  -0.126  -0.088  0.00  0.00    +0.000 A 
ATOM      6  C   UNL     1       4.565  -1.291  -0.062  0.00  0.00    +0.000 A 
ATOM      7  C   UNL     1       3.165  -1.225  -0.047  0.00  0.00    +0.000 A 
ATOM      8  N   UNL     1       5.172   2.389  -0.124  0.00  0.00    +0.000 NA
ATOM      9  C   UNL     1       4.086   3.142  -0.122  0.00  0.00    +0.000 A 
ATOM     10  O   UNL     1       2.907   2.439  -0.097  0.00  0.00    +0.000 OA
ENDROOT
BRANCH   9  11
ATOM     11  C   UNL     1       3.980   4.599  -0.143  0.00  0.00    +0.000 A 
ATOM     12  C   UNL     1       5.147   5.378  -0.186  0.00  0.00    +0.000 A 
ATOM     13  C   UNL     1       5.077   6.774  -0.208  0.00  0.00    +0.000 A 
ATOM     14  C   UNL     1       3.838   7.409  -0.187  0.00  0.00    +0.000 A 
ATOM     15  C   UNL     1       2.669   6.652  -0.144  0.00  0.00    +0.000 A 
ATOM     16  C   UNL     1       2.740   5.255  -0.122  0.00  0.00    +0.000 A 
ENDBRANCH   9  11
TORSDOF 1
