REMARK  Name = *****
REMARK  3 active torsions:
REMARK  status: ('A' for Active; 'I' for Inactive)
REMARK    1  A    between atoms: C_4  and  C_7
REMARK    2  A    between atoms: C_7  and  C_8
REMARK    3  A    between atoms: C_8  and  C_9
REMARK                            x       y       z     vdW  Elec       q    Type
REMARK                         _______ _______ _______ _____ _____    ______ ____
ROOT
ATOM      1  C   UNL     1      -1.292   1.738   2.737  0.00  0.00    +0.000 C 
ENDROOT
BRANCH   1   2
ATOM      2  C   UNL     1      -1.350   1.482   4.247  0.00  0.00    +0.000 C 
ATOM      3  C   UNL     1      -2.506   2.239   4.938  0.00  0.00    +0.000 C 
ATOM      4  C   UNL     1      -1.807   2.938   6.118  0.00  0.00    +0.000 C 
ATOM      5  C   UNL     1      -0.970   4.108   5.572  0.00  0.00    +0.000 C 
ATOM      6  C   UNL     1       0.210   3.399   4.891  0.00  0.00    +0.000 C 
ATOM      7  C   UNL     1      -0.122   1.910   5.088  0.00  0.00    +0.000 C 
ATOM      8  C   UNL     1      -0.726   1.927   6.496  0.00  0.00    +0.000 C 
ENDBRANCH   1   2
BRANCH   1   9
ATOM      9  C   UNL     1      -0.109   1.026   2.064  0.00  0.00    +0.000 C 
BRANCH   9  13
ATOM     10  C   UNL     1       0.056  -1.587  -0.793  0.00  0.00    +0.000 C 
ATOM     11  C   UNL     1       1.280  -1.110  -0.024  0.00  0.00    +0.000 C 
ATOM     12  S   UNL     1       1.551   0.680  -0.154  0.00  0.00    +0.000 S 
ATOM     13  C   UNL     1      -0.012   1.305   0.554  0.00  0.00    +0.000 C 
ATOM     14  S   UNL     1      -1.438   0.737  -0.431  0.00  0.00    +0.000 S 
ATOM     15  C   UNL     1      -1.265  -1.059  -0.250  0.00  0.00    +0.000 C 
ENDBRANCH   9  13
ENDBRANCH   1   9
TORSDOF 3
