REMARK  Name = *****
REMARK  4 active torsions:
REMARK  status: ('A' for Active; 'I' for Inactive)
REMARK    1  A    between atoms: C_1  and  N_2
REMARK    2  A    between atoms: N_2  and  C_3
REMARK    3  A    between atoms: N_2  and  C_9
REMARK    4  A    between atoms: C_9  and  C_11
REMARK                            x       y       z     vdW  Elec       q    Type
REMARK                         _______ _______ _______ _____ _____    ______ ____
ROOT
ATOM      1  C   UNL     1       1.130  -0.358   0.019  0.00  0.00    +0.000 C 
ATOM      2  N   UNL     1       2.547   0.008   0.167  0.00  0.00    +0.000 N 
ENDROOT
BRANCH   2   3
ATOM      3  C   UNL     1       3.248   0.285  -1.059  0.00  0.00    +0.000 A 
ATOM      4  C   UNL     1       2.596   0.911  -2.133  0.00  0.00    +0.000 A 
ATOM      5  C   UNL     1       3.261   1.148  -3.339  0.00  0.00    +0.000 A 
ATOM      6  C   UNL     1       4.585   0.748  -3.496  0.00  0.00    +0.000 A 
ATOM      7  C   UNL     1       5.241   0.107  -2.449  0.00  0.00    +0.000 A 
ATOM      8  C   UNL     1       4.574  -0.127  -1.242  0.00  0.00    +0.000 A 
ENDBRANCH   2   3
BRANCH   2   9
ATOM      9  C   UNL     1       3.110   0.218   1.453  0.00  0.00    +0.000 C 
ATOM     10  S   UNL     1       4.508   1.102   1.818  0.00  0.00    +0.000 S 
BRANCH   9  11
ATOM     11  C   UNL     1       2.343  -0.334   2.604  0.00  0.00    +0.000 A 
ATOM     12  C   UNL     1       2.508  -1.680   2.950  0.00  0.00    +0.000 A 
ATOM     13  C   UNL     1       1.783  -2.205   4.020  0.00  0.00    +0.000 A 
ATOM     14  C   UNL     1       0.904  -1.389   4.736  0.00  0.00    +0.000 A 
ATOM     15  C   UNL     1       0.746  -0.046   4.389  0.00  0.00    +0.000 A 
ATOM     16  C   UNL     1       1.466   0.488   3.321  0.00  0.00    +0.000 A 
ENDBRANCH   9  11
ENDBRANCH   2   9
TORSDOF 3
