REMARK  Name = *****
REMARK  3 active torsions:
REMARK  status: ('A' for Active; 'I' for Inactive)
REMARK    1  A    between atoms: C_1  and  C_2
REMARK    2  A    between atoms: C_3  and  N_9
REMARK    3  A    between atoms: C_10  and  C_12
REMARK                            x       y       z     vdW  Elec       q    Type
REMARK                         _______ _______ _______ _____ _____    ______ ____
ROOT
ATOM      1  N   UNL     1       2.280   2.339  -0.038  0.00  0.00    +0.000 N 
ATOM      2  C   UNL     1       3.543   2.560   0.487  0.00  0.00    +0.000 C 
ATOM      3  O   UNL     1       4.168   1.782   1.198  0.00  0.00    +0.000 OA
ATOM      4  H   UNL     1       1.858   3.102  -0.495  0.00  0.00    +0.000 HD
ENDROOT
BRANCH   1   7
ATOM      5  C   UNL     1       3.502  -0.498  -0.256  0.00  0.00    +0.000 C 
ATOM      6  C   UNL     1       2.051  -0.165  -0.045  0.00  0.00    +0.000 A 
ATOM      7  C   UNL     1       1.528   1.142   0.007  0.00  0.00    +0.000 A 
ATOM      8  C   UNL     1       0.133   1.315   0.054  0.00  0.00    +0.000 A 
ATOM      9  C   UNL     1      -0.724   0.219   0.134  0.00  0.00    +0.000 A 
ATOM     10  C   UNL     1      -0.213  -1.070   0.153  0.00  0.00    +0.000 A 
ATOM     11  C   UNL     1       1.165  -1.258   0.061  0.00  0.00    +0.000 A 
ATOM     12 CL   UNL     1      -2.425   0.467   0.219  0.00  0.00    +0.000 Cl
ENDBRANCH   1   7
BRANCH   2  13
ATOM     13  C   UNL     1       4.074   3.961   0.155  0.00  0.00    +0.000 C 
ATOM     14  C   UNL     1       4.214   4.147  -1.364  0.00  0.00    +0.000 C 
ATOM     15  C   UNL     1       4.796   5.513  -1.720  0.00  0.00    +0.000 C 
ATOM     16  C   UNL     1       6.120   5.768  -1.009  0.00  0.00    +0.000 C 
ATOM     17  C   UNL     1       5.987   5.593   0.499  0.00  0.00    +0.000 C 
ATOM     18  C   UNL     1       5.416   4.223   0.855  0.00  0.00    +0.000 C 
ENDBRANCH   2  13
TORSDOF 2
