REMARK  Name = *****
REMARK  0 active torsions:
REMARK  status: ('A' for Active; 'I' for Inactive)
REMARK                            x       y       z     vdW  Elec       q    Type
REMARK                         _______ _______ _______ _____ _____    ______ ____
ROOT
ATOM      1  C   UNL     1       2.792  -0.710  -1.552  0.00  0.00    +0.000 A 
ATOM      2  C   UNL     1       2.826   0.675  -1.429  0.00  0.00    +0.000 A 
ATOM      3  C   UNL     1       2.204   1.295  -0.343  0.00  0.00    +0.000 A 
ATOM      4  C   UNL     1       1.525   0.541   0.628  0.00  0.00    +0.000 A 
ATOM      5  C   UNL     1       1.480  -0.859   0.493  0.00  0.00    +0.000 A 
ATOM      6  C   UNL     1       2.129  -1.474  -0.593  0.00  0.00    +0.000 A 
ATOM      7  C   UNL     1       0.794  -1.777   1.439  0.00  0.00    +0.000 C 
ATOM      8  O   UNL     1       1.337  -2.828   1.760  0.00  0.00    +0.000 OA
ATOM      9  S   UNL     1      -0.833  -1.418   2.013  0.00  0.00    +0.000 S 
ATOM     10  C   UNL     1      -1.535  -0.533   0.630  0.00  0.00    +0.000 A 
ATOM     11  C   UNL     1      -2.210  -1.300  -0.334  0.00  0.00    +0.000 A 
ATOM     12  C   UNL     1      -2.829  -0.694  -1.429  0.00  0.00    +0.000 A 
ATOM     13  C   UNL     1      -2.794   0.690  -1.570  0.00  0.00    +0.000 A 
ATOM     14  C   UNL     1      -2.134   1.466  -0.618  0.00  0.00    +0.000 A 
ATOM     15  C   UNL     1      -1.489   0.864   0.478  0.00  0.00    +0.000 A 
ATOM     16  C   UNL     1      -0.806   1.795   1.414  0.00  0.00    +0.000 C 
ATOM     17  O   UNL     1      -1.351   2.850   1.720  0.00  0.00    +0.000 OA
ATOM     18  S   UNL     1       0.819   1.443   1.997  0.00  0.00    +0.000 S 
ENDROOT
TORSDOF 0
