REMARK  Name = *****
REMARK  3 active torsions:
REMARK  status: ('A' for Active; 'I' for Inactive)
REMARK    1  A    between atoms: C_1  and  O_2
REMARK    2  A    between atoms: O_2  and  P_3
REMARK    3  A    between atoms: C_7  and  C_9
REMARK                            x       y       z     vdW  Elec       q    Type
REMARK                         _______ _______ _______ _____ _____    ______ ____
ROOT
ATOM      1  C   UNL     1       1.562  -1.134  -0.047  0.00  0.00    +0.000 A 
ATOM      2  C   UNL     1       1.055  -2.398   0.313  0.00  0.00    +0.000 A 
ATOM      3  C   UNL     1       0.306  -3.181  -0.581  0.00  0.00    +0.000 A 
ATOM      4  C   UNL     1      -0.189  -4.443  -0.216  0.00  0.00    +0.000 A 
ATOM      5  C   UNL     1      -0.931  -5.207  -1.119  0.00  0.00    +0.000 A 
ATOM      6  C   UNL     1      -1.186  -4.719  -2.396  0.00  0.00    +0.000 A 
ATOM      7  C   UNL     1      -0.701  -3.466  -2.774  0.00  0.00    +0.000 A 
ATOM      8  C   UNL     1       0.046  -2.686  -1.876  0.00  0.00    +0.000 A 
ATOM      9  C   UNL     1       0.541  -1.425  -2.236  0.00  0.00    +0.000 A 
ATOM     10  C   UNL     1       1.287  -0.657  -1.333  0.00  0.00    +0.000 A 
ENDROOT
BRANCH   1  15
ATOM     11  P   UNL     1       4.816  -0.788   0.606  0.00  0.00    +0.000 P 
ATOM     12  S   UNL     1       6.421  -0.798   1.673  0.00  0.00    +0.000 S 
ATOM     13  N   UNL     1       4.294   0.631  -0.084  0.00  0.00    +0.000 NA
ATOM     14  C   UNL     1       3.023   0.970   0.573  0.00  0.00    +0.000 C 
ATOM     15  C   UNL     1       2.365  -0.365   0.983  0.00  0.00    +0.000 C 
ATOM     16  O   UNL     1       3.460  -1.191   1.411  0.00  0.00    +0.000 OA
ATOM     17  H   UNL     1       4.151   0.505  -1.086  0.00  0.00    +0.000 HD
BRANCH  11  19
ATOM     18  C   UNL     1       4.882  -3.198  -0.385  0.00  0.00    +0.000 C 
ATOM     19  O   UNL     1       4.764  -1.812  -0.641  0.00  0.00    +0.000 OA
ENDBRANCH  11  19
ENDBRANCH   1  15
TORSDOF 2
