REMARK  Name = *****
REMARK  6 active torsions:
REMARK  status: ('A' for Active; 'I' for Inactive)
REMARK    1  A    between atoms: C_1  and  O_2
REMARK    2  A    between atoms: O_2  and  C_3
REMARK    3  A    between atoms: C_3  and  C_5
REMARK    4  A    between atoms: C_8  and  C_11
REMARK    5  A    between atoms: C_11  and  S_13
REMARK    6  A    between atoms: S_13  and  C_14
REMARK                            x       y       z     vdW  Elec       q    Type
REMARK                         _______ _______ _______ _____ _____    ______ ____
ROOT
ATOM      1  C   UNL     1       4.841   1.363   0.068  0.00  0.00    +0.000 A 
ATOM      2  C   UNL     1       5.547   0.745  -0.971  0.00  0.00    +0.000 A 
ATOM      3  C   UNL     1       6.940   0.622  -0.898  0.00  0.00    +0.000 A 
ATOM      4  C   UNL     1       7.652   1.111   0.210  0.00  0.00    +0.000 A 
ATOM      5  C   UNL     1       6.940   1.730   1.247  0.00  0.00    +0.000 A 
ATOM      6  C   UNL     1       5.546   1.855   1.174  0.00  0.00    +0.000 A 
ENDROOT
BRANCH   1   7
ATOM      7  C   UNL     1       3.360   1.520   0.049  0.00  0.00    +0.000 C 
ATOM      8  O   UNL     1       2.733   2.073   0.938  0.00  0.00    +0.000 OA
BRANCH   7  10
ATOM      9  C   UNL     1       1.411   1.070  -1.155  0.00  0.00    +0.000 C 
ATOM     10  O   UNL     1       2.833   0.965  -1.070  0.00  0.00    +0.000 OA
ENDBRANCH   7  10
ENDBRANCH   1   7
BRANCH   4  11
ATOM     11  C   UNL     1       9.137   0.932   0.208  0.00  0.00    +0.000 C 
ATOM     12  O   UNL     1       9.699   0.371  -0.726  0.00  0.00    +0.000 OA
BRANCH  11  13
ATOM     13  S   UNL     1      10.067   1.516   1.584  0.00  0.00    +0.000 S 
BRANCH  13  14
ATOM     14  C   UNL     1      10.658   3.066   0.932  0.00  0.00    +0.000 A 
ATOM     15  C   UNL     1      10.361   4.253   1.611  0.00  0.00    +0.000 A 
ATOM     16  C   UNL     1      10.822   5.479   1.124  0.00  0.00    +0.000 A 
ATOM     17  C   UNL     1      11.589   5.524  -0.039  0.00  0.00    +0.000 A 
ATOM     18  C   UNL     1      11.898   4.345  -0.714  0.00  0.00    +0.000 A 
ATOM     19  C   UNL     1      11.438   3.119  -0.228  0.00  0.00    +0.000 A 
ENDBRANCH  13  14
ENDBRANCH  11  13
ENDBRANCH   4  11
TORSDOF 5
