REMARK  Name = *****
REMARK  6 active torsions:
REMARK  status: ('A' for Active; 'I' for Inactive)
REMARK    1  A    between atoms: C_1  and  C_2
REMARK    2  A    between atoms: C_2  and  C_3
REMARK    3  A    between atoms: C_2  and  O_9
REMARK    4  A    between atoms: O_9  and  C_10
REMARK    5  A    between atoms: C_10  and  C_12
REMARK    6  A    between atoms: C_12  and  C_13
REMARK                            x       y       z     vdW  Elec       q    Type
REMARK                         _______ _______ _______ _____ _____    ______ ____
ROOT
ATOM      1  O   UNL     1       3.063  -0.357   1.449  0.00  0.00    +0.000 OA
ENDROOT
BRANCH   1   3
ATOM      2  C   UNL     1       2.558   1.137  -0.395  0.00  0.00    +0.000 C 
ATOM      3  C   UNL     1       2.663  -0.314   0.068  0.00  0.00    +0.000 C 
BRANCH   3   4
ATOM      4  C   UNL     1       1.324  -1.020  -0.051  0.00  0.00    +0.000 A 
ATOM      5  C   UNL     1       0.270  -0.741   0.834  0.00  0.00    +0.000 A 
ATOM      6  C   UNL     1      -0.959  -1.389   0.705  0.00  0.00    +0.000 A 
ATOM      7  C   UNL     1      -1.152  -2.322  -0.312  0.00  0.00    +0.000 A 
ATOM      8  C   UNL     1      -0.117  -2.607  -1.199  0.00  0.00    +0.000 A 
ATOM      9  C   UNL     1       1.114  -1.960  -1.071  0.00  0.00    +0.000 A 
ENDBRANCH   3   4
ENDBRANCH   1   3
BRANCH   1  10
ATOM     10  C   UNL     1       4.403  -0.295   1.682  0.00  0.00    +0.000 C 
ATOM     11  O   UNL     1       5.266  -0.151   0.826  0.00  0.00    +0.000 OA
BRANCH  10  12
ATOM     12  C   UNL     1       4.686  -0.438   3.157  0.00  0.00    +0.000 C 
BRANCH  12  13
ATOM     13  C   UNL     1       4.708  -1.876   3.605  0.00  0.00    +0.000 A 
ATOM     14  C   UNL     1       5.894  -2.621   3.546  0.00  0.00    +0.000 A 
ATOM     15  C   UNL     1       5.907  -3.960   3.938  0.00  0.00    +0.000 A 
ATOM     16  C   UNL     1       4.736  -4.569   4.385  0.00  0.00    +0.000 A 
ATOM     17  C   UNL     1       3.549  -3.841   4.436  0.00  0.00    +0.000 A 
ATOM     18  C   UNL     1       3.533  -2.501   4.046  0.00  0.00    +0.000 A 
ENDBRANCH  12  13
ENDBRANCH  10  12
ENDBRANCH   1  10
TORSDOF 5
