REMARK  Name = *****
REMARK  5 active torsions:
REMARK  status: ('A' for Active; 'I' for Inactive)
REMARK    1  A    between atoms: C_1  and  C_2
REMARK    2  A    between atoms: C_3  and  C_17
REMARK    3  A    between atoms: C_5  and  O_8
REMARK    4  A    between atoms: O_8  and  C_9
REMARK    5  A    between atoms: C_9  and  C_11
REMARK                            x       y       z     vdW  Elec       q    Type
REMARK                         _______ _______ _______ _____ _____    ______ ____
ROOT
ATOM      1  O   UNL     1      -3.272  -1.120   0.360  0.00  0.00    +0.000 OA
ENDROOT
BRANCH   1   6
ATOM      2  C   UNL     1       1.801   1.371  -0.298  0.00  0.00    +0.000 C 
ATOM      3  C   UNL     1       0.466   0.694  -0.140  0.00  0.00    +0.000 A 
ATOM      4  C   UNL     1       0.313  -0.691  -0.370  0.00  0.00    +0.000 A 
ATOM      5  C   UNL     1      -0.952  -1.277  -0.214  0.00  0.00    +0.000 A 
ATOM      6  C   UNL     1      -2.042  -0.493   0.158  0.00  0.00    +0.000 A 
ATOM      7  C   UNL     1      -1.899   0.866   0.414  0.00  0.00    +0.000 A 
ATOM      8  C   UNL     1      -0.646   1.457   0.258  0.00  0.00    +0.000 A 
ATOM      9  C   UNL     1       1.474  -1.549  -0.791  0.00  0.00    +0.000 C 
ENDBRANCH   1   6
BRANCH   1  10
ATOM     10  C   UNL     1      -4.201  -0.885  -0.648  0.00  0.00    +0.000 C 
ATOM     11  O   UNL     1      -4.036  -0.198  -1.648  0.00  0.00    +0.000 OA
BRANCH  10  12
ATOM     12  C   UNL     1      -5.503  -1.601  -0.335  0.00  0.00    +0.000 C 
ATOM     13  C   UNL     1      -6.175  -0.994   0.900  0.00  0.00    +0.000 C 
ATOM     14  C   UNL     1      -7.481  -1.713   1.233  0.00  0.00    +0.000 C 
ATOM     15  C   UNL     1      -7.273  -3.218   1.383  0.00  0.00    +0.000 C 
ATOM     16  C   UNL     1      -6.604  -3.822   0.151  0.00  0.00    +0.000 C 
ATOM     17  C   UNL     1      -5.295  -3.111  -0.183  0.00  0.00    +0.000 C 
ENDBRANCH  10  12
ENDBRANCH   1  10
TORSDOF 3
