REMARK  Name = *****
REMARK  1 active torsions:
REMARK  status: ('A' for Active; 'I' for Inactive)
REMARK    1  A    between atoms: C_6  and  C_10
REMARK                            x       y       z     vdW  Elec       q    Type
REMARK                         _______ _______ _______ _____ _____    ______ ____
ROOT
ATOM      1  C   UNL     1      -2.083   1.379  -0.085  0.00  0.00    +0.000 C 
ATOM      2  C   UNL     1      -2.339  -0.071  -0.525  0.00  0.00    +0.000 C 
ATOM      3  C   UNL     1      -1.441  -1.083   0.191  0.00  0.00    +0.000 C 
ATOM      4  C   UNL     1      -0.007  -0.694   0.052  0.00  0.00    +0.000 C 
ATOM      5  C   UNL     1       1.087  -1.423   0.298  0.00  0.00    +0.000 C 
ATOM      6  C   UNL     1       2.342  -0.618   0.088  0.00  0.00    +0.000 C 
ATOM      7  C   UNL     1       1.801   0.828   0.049  0.00  0.00    +0.000 C 
ATOM      8  C   UNL     1       0.341   0.695  -0.398  0.00  0.00    +0.000 C 
ATOM      9  C   UNL     1      -0.613   1.703   0.230  0.00  0.00    +0.000 C 
ENDROOT
BRANCH   6  10
ATOM     10  C   UNL     1       3.403  -0.825   1.147  0.00  0.00    +0.000 A 
ATOM     11  C   UNL     1       4.724  -1.100   0.764  0.00  0.00    +0.000 A 
ATOM     12  C   UNL     1       5.722  -1.285   1.724  0.00  0.00    +0.000 A 
ATOM     13  C   UNL     1       5.412  -1.197   3.079  0.00  0.00    +0.000 A 
ATOM     14  C   UNL     1       4.106  -0.922   3.476  0.00  0.00    +0.000 A 
ATOM     15  C   UNL     1       3.108  -0.736   2.517  0.00  0.00    +0.000 A 
ENDBRANCH   6  10
TORSDOF 1
