REMARK  Name = *****
REMARK  2 active torsions:
REMARK  status: ('A' for Active; 'I' for Inactive)
REMARK    1  A    between atoms: C_3  and  C_11
REMARK    2  A    between atoms: C_11  and  C_12
REMARK                            x       y       z     vdW  Elec       q    Type
REMARK                         _______ _______ _______ _____ _____    ______ ____
ROOT
ATOM      1  C   UNL     1       2.482  -0.780  -0.213  0.00  0.00    +0.000 C 
ATOM      2  C   UNL     1       2.457   0.591   0.451  0.00  0.00    +0.000 C 
ATOM      3  C   UNL     1       1.290   1.452  -0.071  0.00  0.00    +0.000 C 
ATOM      4  C   UNL     1      -0.022   0.679  -0.026  0.00  0.00    +0.000 A 
ATOM      5  C   UNL     1      -1.236   1.389  -0.049  0.00  0.00    +0.000 A 
ATOM      6  C   UNL     1      -2.458   0.718  -0.039  0.00  0.00    +0.000 A 
ATOM      7  C   UNL     1      -2.485  -0.672  -0.003  0.00  0.00    +0.000 A 
ATOM      8  C   UNL     1      -1.290  -1.390   0.027  0.00  0.00    +0.000 A 
ATOM      9  C   UNL     1      -0.052  -0.728   0.009  0.00  0.00    +0.000 A 
ATOM     10  C   UNL     1       1.207  -1.553   0.109  0.00  0.00    +0.000 C 
ENDROOT
BRANCH   3  11
ATOM     11  C   UNL     1       1.523   1.992  -1.505  0.00  0.00    +0.000 C 
BRANCH  11  12
ATOM     12  C   UNL     1       2.727   2.896  -1.639  0.00  0.00    +0.000 A 
ATOM     13  C   UNL     1       3.852   2.479  -2.364  0.00  0.00    +0.000 A 
ATOM     14  C   UNL     1       4.965   3.311  -2.485  0.00  0.00    +0.000 A 
ATOM     15  C   UNL     1       4.965   4.569  -1.886  0.00  0.00    +0.000 A 
ATOM     16  C   UNL     1       3.850   4.997  -1.167  0.00  0.00    +0.000 A 
ATOM     17  C   UNL     1       2.736   4.166  -1.045  0.00  0.00    +0.000 A 
ENDBRANCH  11  12
ENDBRANCH   3  11
TORSDOF 2
