REMARK  Name = *****
REMARK  4 active torsions:
REMARK  status: ('A' for Active; 'I' for Inactive)
REMARK    1  A    between atoms: C_4  and  C_7
REMARK    2  A    between atoms: C_7  and  S_8
REMARK    3  A    between atoms: S_8  and  C_9
REMARK    4  A    between atoms: C_12  and  C_15
REMARK                            x       y       z     vdW  Elec       q    Type
REMARK                         _______ _______ _______ _____ _____    ______ ____
ROOT
ATOM      1  C   UNL     1      -5.405  -0.532  -0.736  0.00  0.00    +0.000 A 
ATOM      2  C   UNL     1      -5.881   0.619  -1.370  0.00  0.00    +0.000 A 
ATOM      3  C   UNL     1      -7.215   1.010  -1.218  0.00  0.00    +0.000 A 
ATOM      4  C   UNL     1      -8.096   0.253  -0.431  0.00  0.00    +0.000 A 
ATOM      5  C   UNL     1      -7.618  -0.914   0.183  0.00  0.00    +0.000 A 
ATOM      6  C   UNL     1      -6.284  -1.303   0.029  0.00  0.00    +0.000 A 
ENDROOT
BRANCH   4   7
ATOM      7  C   UNL     1      -9.542   0.661  -0.287  0.00  0.00    +0.000 C 
ATOM      8  F   UNL     1      -9.726   2.009  -0.361  0.00  0.00    +0.000 F 
ATOM      9  F   UNL     1     -10.331   0.121  -1.257  0.00  0.00    +0.000 F 
ATOM     10  F   UNL     1     -10.090   0.277   0.899  0.00  0.00    +0.000 F 
ENDBRANCH   4   7
BRANCH   1  11
ATOM     11  S   UNL     1      -3.716  -1.069  -0.919  0.00  0.00    +0.000 S 
BRANCH  11  12
ATOM     12  C   UNL     1      -2.848   0.393  -0.260  0.00  0.00    +0.000 C 
BRANCH  12  16
ATOM     13  C   UNL     1       1.388  -0.341   0.100  0.00  0.00    +0.000 A 
ATOM     14  C   UNL     1       0.863   0.142  -1.098  0.00  0.00    +0.000 A 
ATOM     15  C   UNL     1      -0.507   0.382  -1.215  0.00  0.00    +0.000 A 
ATOM     16  C   UNL     1      -1.367   0.144  -0.132  0.00  0.00    +0.000 A 
ATOM     17  C   UNL     1      -0.828  -0.352   1.064  0.00  0.00    +0.000 A 
ATOM     18  C   UNL     1       0.543  -0.590   1.179  0.00  0.00    +0.000 A 
ENDBRANCH  12  16
ENDBRANCH  11  12
ENDBRANCH   1  11
TORSDOF 4
