REMARK  Name = *****
REMARK  5 active torsions:
REMARK  status: ('A' for Active; 'I' for Inactive)
REMARK    1  A    between atoms: C_1  and  C_2
REMARK    2  A    between atoms: C_2  and  P_3
REMARK    3  A    between atoms: P_3  and  C_4
REMARK    4  A    between atoms: P_3  and  O_11
REMARK    5  A    between atoms: O_11  and  C_12
REMARK                            x       y       z     vdW  Elec       q    Type
REMARK                         _______ _______ _______ _____ _____    ______ ____
ROOT
ATOM      1  P   UNL     1       3.045   1.653  -0.912  0.00  0.00    +0.000 P 
ENDROOT
BRANCH   1   2
ATOM      2  C   UNL     1       2.460   2.935   0.256  0.00  0.00    +0.000 A 
ATOM      3  C   UNL     1       3.273   4.010   0.648  0.00  0.00    +0.000 A 
ATOM      4  C   UNL     1       2.798   4.987   1.529  0.00  0.00    +0.000 A 
ATOM      5  C   UNL     1       1.500   4.903   2.021  0.00  0.00    +0.000 A 
ATOM      6  C   UNL     1       0.670   3.855   1.634  0.00  0.00    +0.000 A 
ATOM      7  C   UNL     1       1.147   2.880   0.752  0.00  0.00    +0.000 A 
ATOM      8 CL   UNL     1       0.914   6.104   3.104  0.00  0.00    +0.000 Cl
ENDBRANCH   1   2
BRANCH   1  10
ATOM      9  C   UNL     1       3.430  -1.102  -0.558  0.00  0.00    +0.000 C 
ATOM     10  C   UNL     1       2.875   0.133   0.133  0.00  0.00    +0.000 C 
ENDBRANCH   1  10
BRANCH   1  11
ATOM     11  O   UNL     1       4.644   1.858  -0.795  0.00  0.00    +0.000 OA
BRANCH  11  12
ATOM     12  C   UNL     1       5.562   1.754  -1.808  0.00  0.00    +0.000 A 
ATOM     13  C   UNL     1       6.894   1.930  -1.423  0.00  0.00    +0.000 A 
ATOM     14  C   UNL     1       7.921   1.849  -2.365  0.00  0.00    +0.000 A 
ATOM     15  C   UNL     1       7.619   1.591  -3.700  0.00  0.00    +0.000 A 
ATOM     16  C   UNL     1       6.292   1.415  -4.091  0.00  0.00    +0.000 A 
ATOM     17  C   UNL     1       5.264   1.497  -3.147  0.00  0.00    +0.000 A 
ENDBRANCH  11  12
ENDBRANCH   1  11
TORSDOF 4
