REMARK  Name = *****
REMARK  5 active torsions:
REMARK  status: ('A' for Active; 'I' for Inactive)
REMARK    1  A    between atoms: C_4  and  C_7
REMARK    2  A    between atoms: C_7  and  C_8
REMARK    3  A    between atoms: C_7  and  O_16
REMARK    4  A    between atoms: C_8  and  C_9
REMARK    5  A    between atoms: O_16  and  O_17
REMARK                            x       y       z     vdW  Elec       q    Type
REMARK                         _______ _______ _______ _____ _____    ______ ____
ROOT
ATOM      1  C   UNL     1      -4.402   1.580  -1.943  0.00  0.00    +0.000 C 
ENDROOT
BRANCH   1   5
ATOM      2  C   UNL     1      -6.289   5.303  -3.184  0.00  0.00    +0.000 A 
ATOM      3  C   UNL     1      -5.015   5.340  -2.625  0.00  0.00    +0.000 A 
ATOM      4  C   UNL     1      -4.383   4.158  -2.226  0.00  0.00    +0.000 A 
ATOM      5  C   UNL     1      -5.007   2.912  -2.387  0.00  0.00    +0.000 A 
ATOM      6  C   UNL     1      -6.303   2.903  -2.943  0.00  0.00    +0.000 A 
ATOM      7  C   UNL     1      -6.935   4.083  -3.342  0.00  0.00    +0.000 A 
ENDBRANCH   1   5
BRANCH   1   8
ATOM      8  C   UNL     1      -2.934   1.472  -1.446  0.00  0.00    +0.000 C 
ATOM      9 BR   UNL     1      -1.672   2.111  -2.835  0.00  0.00    +0.000 Br
BRANCH   8  10
ATOM     10  C   UNL     1      -2.551   2.044  -0.088  0.00  0.00    +0.000 A 
ATOM     11  C   UNL     1      -3.451   2.746   0.731  0.00  0.00    +0.000 A 
ATOM     12  C   UNL     1      -3.064   3.227   1.986  0.00  0.00    +0.000 A 
ATOM     13  C   UNL     1      -1.774   3.003   2.457  0.00  0.00    +0.000 A 
ATOM     14  C   UNL     1      -0.872   2.288   1.677  0.00  0.00    +0.000 A 
ATOM     15  C   UNL     1      -1.259   1.808   0.424  0.00  0.00    +0.000 A 
ENDBRANCH   8  10
ENDBRANCH   1   8
BRANCH   1  16
ATOM     16  O   UNL     1      -4.565   0.649  -3.043  0.00  0.00    +0.000 OA
BRANCH  16  17
ATOM     17  O   UNL     1      -4.870  -0.649  -2.449  0.00  0.00    +0.000 OA
ATOM     18  H   UNL     1      -4.989  -1.307  -3.153  0.00  0.00    +0.000 HD
ENDBRANCH  16  17
ENDBRANCH   1  16
TORSDOF 5
