REMARK  Name = *****
REMARK  5 active torsions:
REMARK  status: ('A' for Active; 'I' for Inactive)
REMARK    1  A    between atoms: C_1  and  C_2
REMARK    2  A    between atoms: C_2  and  C_4
REMARK    3  A    between atoms: C_4  and  C_10
REMARK    4  A    between atoms: C_10  and  S_12
REMARK    5  A    between atoms: S_12  and  C_13
REMARK                            x       y       z     vdW  Elec       q    Type
REMARK                         _______ _______ _______ _____ _____    ______ ____
ROOT
ATOM      1  C   UNL     1       3.086   0.772   1.294  0.00  0.00    +0.000 C 
ATOM      2  C   UNL     1       3.595  -0.666   1.563  0.00  0.00    +0.000 C 
ATOM      3  C   UNL     1       4.780  -0.854   0.627  0.00  0.00    +0.000 C 
ATOM      4  C   UNL     1       5.507   0.474   0.700  0.00  0.00    +0.000 C 
ATOM      5  C   UNL     1       4.404   1.476   0.931  0.00  0.00    +0.000 C 
ATOM      6  C   UNL     1       4.631   2.796   0.840  0.00  0.00    +0.000 C 
ENDROOT
BRANCH   1   8
ATOM      7  C   UNL     1       1.638   2.157  -0.399  0.00  0.00    +0.000 C 
ATOM      8  C   UNL     1       2.132   0.813   0.084  0.00  0.00    +0.000 C 
ATOM      9  O   UNL     1       1.783  -0.210  -0.514  0.00  0.00    +0.000 OA
ENDBRANCH   1   8
BRANCH   1  10
ATOM     10  C   UNL     1       2.387   1.320   2.554  0.00  0.00    +0.000 C 
ATOM     11  O   UNL     1       2.670   2.376   3.109  0.00  0.00    +0.000 OA
BRANCH  10  12
ATOM     12  S   UNL     1       1.044   0.339   3.181  0.00  0.00    +0.000 S 
BRANCH  12  13
ATOM     13  C   UNL     1      -0.335   1.301   2.596  0.00  0.00    +0.000 A 
ATOM     14  C   UNL     1      -1.179   0.771   1.614  0.00  0.00    +0.000 A 
ATOM     15  C   UNL     1      -2.257   1.518   1.136  0.00  0.00    +0.000 A 
ATOM     16  C   UNL     1      -2.502   2.794   1.642  0.00  0.00    +0.000 A 
ATOM     17  C   UNL     1      -1.671   3.323   2.628  0.00  0.00    +0.000 A 
ATOM     18  C   UNL     1      -0.592   2.578   3.106  0.00  0.00    +0.000 A 
ENDBRANCH  12  13
ENDBRANCH  10  12
ENDBRANCH   1  10
TORSDOF 4
