REMARK  Name = *****
REMARK  3 active torsions:
REMARK  status: ('A' for Active; 'I' for Inactive)
REMARK    1  A    between atoms: C_2  and  C_3
REMARK    2  A    between atoms: C_2  and  C_9
REMARK    3  A    between atoms: C_9  and  C_10
REMARK                            x       y       z     vdW  Elec       q    Type
REMARK                         _______ _______ _______ _____ _____    ______ ____
ROOT
ATOM      1  C   UNL     1       0.697   0.682  -0.436  0.00  0.00    +0.000 C 
ATOM      2  C   UNL     1       1.984   0.413  -0.153  0.00  0.00    +0.000 C 
ENDROOT
BRANCH   2   3
ATOM      3  C   UNL     1       2.989   0.559  -1.221  0.00  0.00    +0.000 A 
ATOM      4  C   UNL     1       3.347   1.831  -1.684  0.00  0.00    +0.000 A 
ATOM      5  C   UNL     1       4.308   1.974  -2.687  0.00  0.00    +0.000 A 
ATOM      6  C   UNL     1       4.912   0.845  -3.239  0.00  0.00    +0.000 A 
ATOM      7  C   UNL     1       4.556  -0.426  -2.790  0.00  0.00    +0.000 A 
ATOM      8  C   UNL     1       3.598  -0.570  -1.785  0.00  0.00    +0.000 A 
ENDBRANCH   2   3
BRANCH   2   9
ATOM      9  C   UNL     1       2.462  -0.105   1.193  0.00  0.00    +0.000 C 
ATOM     10  F   UNL     1       1.396  -0.600   1.902  0.00  0.00    +0.000 F 
BRANCH   9  11
ATOM     11  C   UNL     1       3.206   0.952   1.991  0.00  0.00    +0.000 A 
ATOM     12  C   UNL     1       2.515   1.766   2.902  0.00  0.00    +0.000 A 
ATOM     13  C   UNL     1       3.188   2.751   3.626  0.00  0.00    +0.000 A 
ATOM     14  C   UNL     1       4.557   2.937   3.444  0.00  0.00    +0.000 A 
ATOM     15  C   UNL     1       5.255   2.139   2.540  0.00  0.00    +0.000 A 
ATOM     16  C   UNL     1       4.584   1.152   1.816  0.00  0.00    +0.000 A 
ENDBRANCH   9  11
ENDBRANCH   2   9
TORSDOF 3
