REMARK  Name = *****
REMARK  5 active torsions:
REMARK  status: ('A' for Active; 'I' for Inactive)
REMARK    1  A    between atoms: C_1  and  C_2
REMARK    2  A    between atoms: C_5  and  S_8
REMARK    3  A    between atoms: S_8  and  N_10
REMARK    4  A    between atoms: N_10  and  C_11
REMARK    5  A    between atoms: C_12  and  C_18
REMARK                            x       y       z     vdW  Elec       q    Type
REMARK                         _______ _______ _______ _____ _____    ______ ____
ROOT
ATOM      1  N   UNL     1      -3.927   1.387  -0.583  0.00  0.00    +0.000 N 
ATOM      2  H   UNL     1      -3.146   1.979  -0.481  0.00  0.00    +0.000 HD
ENDROOT
BRANCH   1   3
ATOM      3  C   UNL     1      -5.185   2.003  -0.795  0.00  0.00    +0.000 A 
ATOM      4  C   UNL     1      -5.265   3.417  -0.922  0.00  0.00    +0.000 A 
ATOM      5  C   UNL     1      -6.523   4.014  -1.158  0.00  0.00    +0.000 A 
ATOM      6  C   UNL     1      -7.689   3.248  -1.192  0.00  0.00    +0.000 A 
ATOM      7  C   UNL     1      -7.621   1.876  -0.993  0.00  0.00    +0.000 A 
ATOM      8  C   UNL     1      -6.383   1.266  -0.792  0.00  0.00    +0.000 A 
ATOM      9 CL   UNL     1      -6.705   5.714  -1.430  0.00  0.00    +0.000 Cl
ATOM     10  C   UNL     1      -4.017   4.264  -0.850  0.00  0.00    +0.000 C 
ENDBRANCH   1   3
BRANCH   1  11
ATOM     11  S   UNL     1      -3.658  -0.257  -0.492  0.00  0.00    +0.000 S 
ATOM     12  O   UNL     1      -4.403  -0.843   0.668  0.00  0.00    +0.000 OA
BRANCH  11  17
ATOM     13  C   UNL     1       2.159   0.495   1.245  0.00  0.00    +0.000 C 
ATOM     14  C   UNL     1       0.735   0.278   0.823  0.00  0.00    +0.000 A 
ATOM     15  C   UNL     1       0.399   0.221  -0.535  0.00  0.00    +0.000 A 
ATOM     16  C   UNL     1      -0.931   0.050  -0.928  0.00  0.00    +0.000 A 
ATOM     17  C   UNL     1      -1.941  -0.055   0.034  0.00  0.00    +0.000 A 
ATOM     18  C   UNL     1      -1.610   0.012   1.390  0.00  0.00    +0.000 A 
ATOM     19  C   UNL     1      -0.281   0.185   1.782  0.00  0.00    +0.000 A 
ENDBRANCH  11  17
ENDBRANCH   1  11
TORSDOF 3
