REMARK  Name = *****
REMARK  4 active torsions:
REMARK  status: ('A' for Active; 'I' for Inactive)
REMARK    1  A    between atoms: C_2  and  C_3
REMARK    2  A    between atoms: C_5  and  C_7
REMARK    3  A    between atoms: C_7  and  C_8
REMARK    4  A    between atoms: C_8  and  C_9
REMARK                            x       y       z     vdW  Elec       q    Type
REMARK                         _______ _______ _______ _____ _____    ______ ____
ROOT
ATOM      1  C   UNL     1       6.700   0.021   0.279  0.00  0.00    +0.000 C 
ENDROOT
BRANCH   1   4
ATOM      2  C   UNL     1       5.019   1.999   1.920  0.00  0.00    +0.000 C 
ATOM      3  C   UNL     1       4.398   1.105   0.818  0.00  0.00    +0.000 C 
ATOM      4  C   UNL     1       5.453   0.022   1.164  0.00  0.00    +0.000 C 
ATOM      5  C   UNL     1       5.572   0.699   2.556  0.00  0.00    +0.000 C 
BRANCH   2   7
ATOM      6  C   UNL     1       3.305   3.370   3.401  0.00  0.00    +0.000 C 
ATOM      7  C   UNL     1       4.081   2.746   2.730  0.00  0.00    +0.000 C 
ENDBRANCH   2   7
ENDBRANCH   1   4
BRANCH   1   8
ATOM      8  C   UNL     1       7.701  -1.029   0.766  0.00  0.00    +0.000 C 
BRANCH   8   9
ATOM      9  C   UNL     1       8.946  -1.049  -0.084  0.00  0.00    +0.000 A 
ATOM     10  C   UNL     1      10.043  -0.241   0.244  0.00  0.00    +0.000 A 
ATOM     11  C   UNL     1      11.189  -0.246  -0.553  0.00  0.00    +0.000 A 
ATOM     12  C   UNL     1      11.247  -1.054  -1.687  0.00  0.00    +0.000 A 
ATOM     13  C   UNL     1      10.159  -1.856  -2.026  0.00  0.00    +0.000 A 
ATOM     14  C   UNL     1       9.012  -1.852  -1.230  0.00  0.00    +0.000 A 
ENDBRANCH   8   9
ENDBRANCH   1   8
TORSDOF 4
