REMARK  Name = *****
REMARK  5 active torsions:
REMARK  status: ('A' for Active; 'I' for Inactive)
REMARK    1  A    between atoms: C_1  and  C_2
REMARK    2  A    between atoms: C_2  and  C_3
REMARK    3  A    between atoms: C_2  and  C_10
REMARK    4  A    between atoms: C_3  and  C_4
REMARK    5  A    between atoms: C_4  and  C_5
REMARK                            x       y       z     vdW  Elec       q    Type
REMARK                         _______ _______ _______ _____ _____    ______ ____
ROOT
ATOM      1  C   UNL     1       0.910   0.214   0.087  0.00  0.00    +0.000 C 
ATOM      2  C   UNL     1       2.444   0.167   0.085  0.00  0.00    +0.000 C 
ENDROOT
BRANCH   2   3
ATOM      3  C   UNL     1       2.957   0.120   1.503  0.00  0.00    +0.000 C 
ATOM      4  C   UNL     1       3.545   1.076   2.248  0.00  0.00    +0.000 C 
ATOM      5  C   UNL     1       3.908   0.533   3.598  0.00  0.00    +0.000 C 
ATOM      6  C   UNL     1       3.443  -0.887   3.495  0.00  0.00    +0.000 C 
ATOM      7  C   UNL     1       2.905  -1.101   2.287  0.00  0.00    +0.000 C 
ENDBRANCH   2   3
BRANCH   2   8
ATOM      8  C   UNL     1       3.037   1.339  -0.734  0.00  0.00    +0.000 C 
BRANCH   8   9
ATOM      9  C   UNL     1       2.744   1.239  -2.209  0.00  0.00    +0.000 C 
BRANCH   9  10
ATOM     10  C   UNL     1       1.999   2.076  -2.940  0.00  0.00    +0.000 C 
ATOM     11  C   UNL     1       1.286   3.257  -2.496  0.00  0.00    +0.000 C 
ATOM     12  C   UNL     1       0.675   3.772  -3.577  0.00  0.00    +0.000 C 
ATOM     13  C   UNL     1       0.972   2.949  -4.735  0.00  0.00    +0.000 C 
ATOM     14  C   UNL     1       1.763   1.930  -4.363  0.00  0.00    +0.000 C 
ENDBRANCH   9  10
ENDBRANCH   8   9
ENDBRANCH   2   8
TORSDOF 4
