REMARK  Name = *****
REMARK  5 active torsions:
REMARK  status: ('A' for Active; 'I' for Inactive)
REMARK    1  A    between atoms: C_1  and  C_2
REMARK    2  A    between atoms: C_2  and  C_3
REMARK    3  A    between atoms: C_3  and  C_4
REMARK    4  A    between atoms: C_3  and  C_11
REMARK    5  A    between atoms: C_4  and  C_5
REMARK                            x       y       z     vdW  Elec       q    Type
REMARK                         _______ _______ _______ _____ _____    ______ ____
ROOT
ATOM      1  C   UNL     1       3.077   0.085   1.381  0.00  0.00    +0.000 C 
ENDROOT
BRANCH   1   2
ATOM      2  C   UNL     1       4.594   0.221   1.479  0.00  0.00    +0.000 A 
ATOM      3  C   UNL     1       5.144   1.136   2.393  0.00  0.00    +0.000 A 
ATOM      4  C   UNL     1       6.528   1.275   2.522  0.00  0.00    +0.000 A 
ATOM      5  C   UNL     1       7.382   0.499   1.743  0.00  0.00    +0.000 A 
ATOM      6  C   UNL     1       6.854  -0.418   0.839  0.00  0.00    +0.000 A 
ATOM      7  C   UNL     1       5.470  -0.558   0.708  0.00  0.00    +0.000 A 
ENDBRANCH   1   2
BRANCH   1   9
ATOM      8  C   UNL     1       1.086   0.104  -0.234  0.00  0.00    +0.000 C 
ATOM      9  C   UNL     1       2.581  -0.137  -0.067  0.00  0.00    +0.000 C 
ENDBRANCH   1   9
BRANCH   1  10
ATOM     10  C   UNL     1       2.515  -0.923   2.416  0.00  0.00    +0.000 C 
BRANCH  10  11
ATOM     11  C   UNL     1       2.876  -2.378   2.215  0.00  0.00    +0.000 A 
ATOM     12  C   UNL     1       4.054  -2.901   2.768  0.00  0.00    +0.000 A 
ATOM     13  C   UNL     1       4.393  -4.242   2.583  0.00  0.00    +0.000 A 
ATOM     14  C   UNL     1       3.556  -5.079   1.850  0.00  0.00    +0.000 A 
ATOM     15  C   UNL     1       2.378  -4.575   1.302  0.00  0.00    +0.000 A 
ATOM     16  C   UNL     1       2.038  -3.233   1.486  0.00  0.00    +0.000 A 
ENDBRANCH  10  11
ENDBRANCH   1  10
TORSDOF 4
