REMARK  Name = *****
REMARK  2 active torsions:
REMARK  status: ('A' for Active; 'I' for Inactive)
REMARK    1  A    between atoms: C_5  and  C_7
REMARK    2  A    between atoms: C_8  and  C_9
REMARK                            x       y       z     vdW  Elec       q    Type
REMARK                         _______ _______ _______ _____ _____    ______ ____
ROOT
ATOM      1  C   UNL     1       0.928  -2.437   0.024  0.00  0.00    +0.000 C 
ATOM      2  C   UNL     1       2.265  -2.556   0.020  0.00  0.00    +0.000 C 
ENDROOT
BRANCH   1   7
ATOM      3  C   UNL     1      -1.741   0.118   0.755  0.00  0.00    +0.000 A 
ATOM      4  C   UNL     1      -1.282   1.241   0.069  0.00  0.00    +0.000 A 
ATOM      5  C   UNL     1      -0.086   1.173  -0.643  0.00  0.00    +0.000 A 
ATOM      6  C   UNL     1       0.646  -0.013  -0.661  0.00  0.00    +0.000 A 
ATOM      7  C   UNL     1       0.212  -1.150   0.034  0.00  0.00    +0.000 A 
ATOM      8  C   UNL     1      -1.002  -1.071   0.734  0.00  0.00    +0.000 A 
ATOM      9  F   UNL     1       1.779  -0.039  -1.380  0.00  0.00    +0.000 F 
ENDBRANCH   1   7
BRANCH   2  10
ATOM     10  C   UNL     1       2.972  -3.844   0.031  0.00  0.00    +0.000 A 
ATOM     11  C   UNL     1       2.524  -4.950  -0.705  0.00  0.00    +0.000 A 
ATOM     12  C   UNL     1       3.240  -6.151  -0.692  0.00  0.00    +0.000 A 
ATOM     13  C   UNL     1       4.415  -6.248   0.049  0.00  0.00    +0.000 A 
ATOM     14  C   UNL     1       4.883  -5.155   0.773  0.00  0.00    +0.000 A 
ATOM     15  C   UNL     1       4.165  -3.954   0.758  0.00  0.00    +0.000 A 
ATOM     16 CL   UNL     1       5.297  -7.725   0.065  0.00  0.00    +0.000 Cl
ENDBRANCH   2  10
TORSDOF 2
