REMARK  Name = *****
REMARK  4 active torsions:
REMARK  status: ('A' for Active; 'I' for Inactive)
REMARK    1  A    between atoms: C_1  and  C_2
REMARK    2  A    between atoms: C_7  and  C_8
REMARK    3  A    between atoms: C_8  and  O_10
REMARK    4  A    between atoms: O_10  and  C_11
REMARK                            x       y       z     vdW  Elec       q    Type
REMARK                         _______ _______ _______ _____ _____    ______ ____
ROOT
ATOM      1  C   UNL     1       0.824  -2.410  -0.390  0.00  0.00    +0.000 C 
ATOM      2  O   UNL     1       0.479  -3.444   0.162  0.00  0.00    +0.000 OA
ENDROOT
BRANCH   1   9
ATOM      3  C   UNL     1       2.570   0.059  -0.028  0.00  0.00    +0.000 C 
ATOM      4  C   UNL     1       1.075   0.076   0.116  0.00  0.00    +0.000 A 
ATOM      5  C   UNL     1       0.438   1.292   0.418  0.00  0.00    +0.000 A 
ATOM      6  C   UNL     1      -0.945   1.354   0.598  0.00  0.00    +0.000 A 
ATOM      7  C   UNL     1      -1.717   0.202   0.481  0.00  0.00    +0.000 A 
ATOM      8  C   UNL     1      -1.107  -1.012   0.169  0.00  0.00    +0.000 A 
ATOM      9  C   UNL     1       0.281  -1.077  -0.035  0.00  0.00    +0.000 A 
ENDBRANCH   1   9
BRANCH   1  10
ATOM     10  O   UNL     1       1.625  -2.279  -1.508  0.00  0.00    +0.000 OA
BRANCH  10  11
ATOM     11  C   UNL     1       2.030  -3.519  -2.013  0.00  0.00    +0.000 A 
ATOM     12  C   UNL     1       3.284  -4.048  -1.694  0.00  0.00    +0.000 A 
ATOM     13  C   UNL     1       3.672  -5.272  -2.243  0.00  0.00    +0.000 A 
ATOM     14  C   UNL     1       2.814  -5.952  -3.113  0.00  0.00    +0.000 A 
ATOM     15  C   UNL     1       1.572  -5.402  -3.437  0.00  0.00    +0.000 A 
ATOM     16  C   UNL     1       1.175  -4.181  -2.898  0.00  0.00    +0.000 A 
ATOM     17 CL   UNL     1       0.527  -6.238  -4.519  0.00  0.00    +0.000 Cl
ATOM     18 CL   UNL     1       4.376  -3.224  -0.649  0.00  0.00    +0.000 Cl
ENDBRANCH  10  11
ENDBRANCH   1  10
TORSDOF 3
