REMARK  Name = *****
REMARK  3 active torsions:
REMARK  status: ('A' for Active; 'I' for Inactive)
REMARK    1  A    between atoms: C_1  and  C_2
REMARK    2  A    between atoms: C_5  and  C_8
REMARK    3  A    between atoms: C_9  and  C_10
REMARK                            x       y       z     vdW  Elec       q    Type
REMARK                         _______ _______ _______ _____ _____    ______ ____
ROOT
ATOM      1  C   UNL     1       2.496  -0.037  -0.040  0.00  0.00    +0.000 C 
ATOM      2  C   UNL     1       0.997   0.015  -0.013  0.00  0.00    +0.000 A 
ATOM      3  C   UNL     1       0.319   1.238   0.014  0.00  0.00    +0.000 A 
ATOM      4  C   UNL     1      -1.079   1.273   0.043  0.00  0.00    +0.000 A 
ATOM      5  C   UNL     1      -1.821   0.086   0.038  0.00  0.00    +0.000 A 
ATOM      6  C   UNL     1      -1.141  -1.136   0.029  0.00  0.00    +0.000 A 
ATOM      7  C   UNL     1       0.256  -1.172  -0.002  0.00  0.00    +0.000 A 
ENDROOT
BRANCH   5   8
ATOM      8  C   UNL     1      -3.289   0.087   0.100  0.00  0.00    +0.000 C 
ATOM      9  C   UNL     1      -4.059   0.882  -0.663  0.00  0.00    +0.000 C 
BRANCH   9  10
ATOM     10  C   UNL     1      -5.493   0.934  -0.666  0.00  0.00    +0.000 A 
ATOM     11  C   UNL     1      -6.319   0.285   0.229  0.00  0.00    +0.000 A 
ATOM     12  S   UNL     1      -7.979   0.579  -0.078  0.00  0.00    +0.000 S 
ATOM     13  C   UNL     1      -7.609   1.583  -1.411  0.00  0.00    +0.000 A 
ATOM     14  C   UNL     1      -6.250   1.691  -1.615  0.00  0.00    +0.000 A 
ENDBRANCH   9  10
ENDBRANCH   5   8
TORSDOF 2
