REMARK  Name = *****
REMARK  2 active torsions:
REMARK  status: ('A' for Active; 'I' for Inactive)
REMARK    1  A    between atoms: C_4  and  O_7
REMARK    2  A    between atoms: O_7  and  P_8
REMARK                            x       y       z     vdW  Elec       q    Type
REMARK                         _______ _______ _______ _____ _____    ______ ____
ROOT
ATOM      1  P   UNL     1       3.130  -2.901   0.563  0.00  0.00    +0.000 P 
ATOM      2  O   UNL     1       4.513  -3.021  -0.315  0.00  0.00    +0.000 OA
ATOM      3  C   UNL     1       5.559  -2.489   0.386  0.00  0.00    +0.000 A 
ATOM      4  C   UNL     1       6.870  -2.428  -0.038  0.00  0.00    +0.000 A 
ATOM      5  C   UNL     1       7.802  -1.843   0.824  0.00  0.00    +0.000 A 
ATOM      6  C   UNL     1       7.406  -1.336   2.076  0.00  0.00    +0.000 A 
ATOM      7  C   UNL     1       6.071  -1.408   2.486  0.00  0.00    +0.000 A 
ATOM      8  C   UNL     1       5.169  -1.990   1.620  0.00  0.00    +0.000 A 
ATOM      9  O   UNL     1       3.829  -2.147   1.845  0.00  0.00    +0.000 OA
ENDROOT
BRANCH   1  10
ATOM     10  O   UNL     1       2.520  -1.587  -0.169  0.00  0.00    +0.000 OA
BRANCH  10  14
ATOM     11  C   UNL     1      -1.051   0.684  -0.144  0.00  0.00    +0.000 C 
ATOM     12  C   UNL     1      -1.177  -0.837  -0.129  0.00  0.00    +0.000 C 
ATOM     13  C   UNL     1       0.130  -1.513  -0.530  0.00  0.00    +0.000 C 
ATOM     14  C   UNL     1       1.301  -1.047   0.344  0.00  0.00    +0.000 C 
ATOM     15  C   UNL     1       1.422   0.481   0.310  0.00  0.00    +0.000 C 
ATOM     16  C   UNL     1       0.119   1.162   0.712  0.00  0.00    +0.000 C 
ENDBRANCH  10  14
ENDBRANCH   1  10
TORSDOF 2
