REMARK  Name = *****
REMARK  5 active torsions:
REMARK  status: ('A' for Active; 'I' for Inactive)
REMARK    1  A    between atoms: C_1  and  C_2
REMARK    2  A    between atoms: C_2  and  C_4
REMARK    3  A    between atoms: C_9  and  C_10
REMARK    4  A    between atoms: C_10  and  N_12
REMARK    5  A    between atoms: N_12  and  C_13
REMARK                            x       y       z     vdW  Elec       q    Type
REMARK                         _______ _______ _______ _____ _____    ______ ____
ROOT
ATOM      1  C   UNL     1       4.723  -1.299   1.134  0.00  0.00    +0.000 C 
ATOM      2  S   UNL     1       6.289  -0.727   1.341  0.00  0.00    +0.000 S 
ENDROOT
BRANCH   1   8
ATOM      3  C   UNL     1       3.123  -0.943  -0.817  0.00  0.00    +0.000 A 
ATOM      4  C   UNL     1       2.697  -1.327  -2.102  0.00  0.00    +0.000 A 
ATOM      5  C   UNL     1       3.351  -2.341  -2.805  0.00  0.00    +0.000 A 
ATOM      6  C   UNL     1       4.440  -2.993  -2.237  0.00  0.00    +0.000 A 
ATOM      7  C   UNL     1       4.880  -2.631  -0.964  0.00  0.00    +0.000 A 
ATOM      8  C   UNL     1       4.234  -1.603  -0.253  0.00  0.00    +0.000 A 
BRANCH   3  10
ATOM      9  C   UNL     1       3.085   1.447   0.064  0.00  0.00    +0.000 C 
ATOM     10  C   UNL     1       2.376   0.140  -0.142  0.00  0.00    +0.000 C 
ATOM     11  C   UNL     1       1.102  -0.062   0.233  0.00  0.00    +0.000 C 
ENDBRANCH   3  10
ENDBRANCH   1   8
BRANCH   1  12
ATOM     12  N   UNL     1       3.763  -1.600   2.093  0.00  0.00    +0.000 N 
ATOM     13  H   UNL     1       2.951  -2.008   1.714  0.00  0.00    +0.000 HD
BRANCH  12  14
ATOM     14  C   UNL     1       3.706  -1.445   3.498  0.00  0.00    +0.000 A 
ATOM     15  C   UNL     1       4.663  -0.817   4.293  0.00  0.00    +0.000 A 
ATOM     16  C   UNL     1       4.488  -0.716   5.680  0.00  0.00    +0.000 A 
ATOM     17  C   UNL     1       3.351  -1.239   6.289  0.00  0.00    +0.000 A 
ATOM     18  C   UNL     1       2.383  -1.861   5.510  0.00  0.00    +0.000 A 
ATOM     19  C   UNL     1       2.560  -1.959   4.127  0.00  0.00    +0.000 A 
ENDBRANCH  12  14
ENDBRANCH   1  12
TORSDOF 4
