REMARK  Name = *****
REMARK  5 active torsions:
REMARK  status: ('A' for Active; 'I' for Inactive)
REMARK    1  A    between atoms: C_1  and  C_2
REMARK    2  A    between atoms: C_2  and  C_3
REMARK    3  A    between atoms: C_2  and  O_10
REMARK    4  A    between atoms: C_3  and  C_4
REMARK    5  A    between atoms: O_10  and  C_11
REMARK                            x       y       z     vdW  Elec       q    Type
REMARK                         _______ _______ _______ _____ _____    ______ ____
ROOT
ATOM      1  C   UNL     1       1.095   0.275   0.037  0.00  0.00    +0.000 C 
ATOM      2  C   UNL     1       2.571  -0.075  -0.157  0.00  0.00    +0.000 C 
ENDROOT
BRANCH   2   3
ATOM      3  C   UNL     1       2.784  -1.579   0.115  0.00  0.00    +0.000 C 
BRANCH   3   4
ATOM      4  C   UNL     1       4.231  -1.919   0.401  0.00  0.00    +0.000 A 
ATOM      5  C   UNL     1       4.653  -2.185   1.711  0.00  0.00    +0.000 A 
ATOM      6  C   UNL     1       5.989  -2.491   1.976  0.00  0.00    +0.000 A 
ATOM      7  C   UNL     1       6.916  -2.530   0.936  0.00  0.00    +0.000 A 
ATOM      8  C   UNL     1       6.508  -2.265  -0.370  0.00  0.00    +0.000 A 
ATOM      9  C   UNL     1       5.172  -1.962  -0.637  0.00  0.00    +0.000 A 
ENDBRANCH   3   4
ENDBRANCH   2   3
BRANCH   2  10
ATOM     10  O   UNL     1       2.923   0.175  -1.526  0.00  0.00    +0.000 OA
BRANCH  10  11
ATOM     11  C   UNL     1       3.384   1.408  -1.889  0.00  0.00    +0.000 A 
ATOM     12  C   UNL     1       3.452   2.542  -1.081  0.00  0.00    +0.000 A 
ATOM     13  C   UNL     1       3.944   3.746  -1.598  0.00  0.00    +0.000 A 
ATOM     14  C   UNL     1       4.367   3.822  -2.923  0.00  0.00    +0.000 A 
ATOM     15  C   UNL     1       4.296   2.695  -3.737  0.00  0.00    +0.000 A 
ATOM     16  C   UNL     1       3.806   1.495  -3.219  0.00  0.00    +0.000 A 
ENDBRANCH  10  11
ENDBRANCH   2  10
TORSDOF 4
