REMARK  Name = *****
REMARK  4 active torsions:
REMARK  status: ('A' for Active; 'I' for Inactive)
REMARK    1  A    between atoms: C_4  and  C_7
REMARK    2  A    between atoms: C_7  and  N_8
REMARK    3  A    between atoms: N_8  and  C_9
REMARK    4  A    between atoms: C_9  and  C_10
REMARK                            x       y       z     vdW  Elec       q    Type
REMARK                         _______ _______ _______ _____ _____    ______ ____
ROOT
ATOM      1  C   UNL     1      -4.797  -0.928  -0.165  0.00  0.00    +0.000 C 
ENDROOT
BRANCH   1   2
ATOM      2  C   UNL     1      -5.665  -2.123  -0.231  0.00  0.00    +0.000 A 
ATOM      3  C   UNL     1      -5.174  -3.326  -0.756  0.00  0.00    +0.000 A 
ATOM      4  C   UNL     1      -5.977  -4.466  -0.824  0.00  0.00    +0.000 A 
ATOM      5  C   UNL     1      -7.289  -4.417  -0.366  0.00  0.00    +0.000 A 
ATOM      6  C   UNL     1      -7.784  -3.224   0.153  0.00  0.00    +0.000 A 
ATOM      7  C   UNL     1      -6.989  -2.074   0.225  0.00  0.00    +0.000 A 
ATOM      8 CL   UNL     1      -7.693  -0.646   0.904  0.00  0.00    +0.000 Cl
ATOM      9  F   UNL     1      -9.053  -3.203   0.588  0.00  0.00    +0.000 F 
ATOM     10  F   UNL     1      -3.929  -3.427  -1.241  0.00  0.00    +0.000 F 
ENDBRANCH   1   2
BRANCH   1  11
ATOM     11  N   UNL     1      -3.514  -1.004  -0.267  0.00  0.00    +0.000 NA
BRANCH  11  12
ATOM     12  C   UNL     1      -2.827   0.292  -0.171  0.00  0.00    +0.000 C 
BRANCH  12  16
ATOM     13  C   UNL     1       1.479  -0.023   0.047  0.00  0.00    +0.000 A 
ATOM     14  C   UNL     1       0.742  -1.028  -0.577  0.00  0.00    +0.000 A 
ATOM     15  C   UNL     1      -0.649  -0.937  -0.643  0.00  0.00    +0.000 A 
ATOM     16  C   UNL     1      -1.324   0.154  -0.076  0.00  0.00    +0.000 A 
ATOM     17  C   UNL     1      -0.568   1.166   0.535  0.00  0.00    +0.000 A 
ATOM     18  C   UNL     1       0.824   1.075   0.601  0.00  0.00    +0.000 A 
ENDBRANCH  12  16
ENDBRANCH  11  12
ENDBRANCH   1  11
TORSDOF 4
