REMARK  Name = *****
REMARK  1 active torsions:
REMARK  status: ('A' for Active; 'I' for Inactive)
REMARK    1  A    between atoms: C_3  and  C_12
REMARK                            x       y       z     vdW  Elec       q    Type
REMARK                         _______ _______ _______ _____ _____    ______ ____
ROOT
ATOM      1  C   UNL     1       0.590   0.999   0.928  0.00  0.00    +0.000 C 
ATOM      2  C   UNL     1      -0.844   0.994   0.392  0.00  0.00    +0.000 C 
ATOM      3  C   UNL     1      -1.310  -0.398   0.061  0.00  0.00    +0.000 C 
ATOM      4  C   UNL     1      -0.472  -1.430  -0.136  0.00  0.00    +0.000 C 
ATOM      5  C   UNL     1       0.974  -1.279  -0.093  0.00  0.00    +0.000 C 
ATOM      6  C   UNL     1       1.773  -2.354  -0.190  0.00  0.00    +0.000 C 
ATOM      7  C   UNL     1       3.250  -2.211  -0.188  0.00  0.00    +0.000 C 
ATOM      8  O   UNL     1       3.950  -3.213  -0.308  0.00  0.00    +0.000 OA
ATOM      9  C   UNL     1       3.842  -0.823  -0.120  0.00  0.00    +0.000 C 
ATOM     10  C   UNL     1       2.932   0.125   0.648  0.00  0.00    +0.000 C 
ATOM     11  C   UNL     1       1.515   0.133   0.060  0.00  0.00    +0.000 C 
ENDROOT
BRANCH   3  12
ATOM     12  C   UNL     1      -2.760  -0.614  -0.007  0.00  0.00    +0.000 A 
ATOM     13  C   UNL     1      -3.478  -0.946   1.147  0.00  0.00    +0.000 A 
ATOM     14  C   UNL     1      -4.856  -1.161   1.081  0.00  0.00    +0.000 A 
ATOM     15  C   UNL     1      -5.522  -1.046  -0.140  0.00  0.00    +0.000 A 
ATOM     16  C   UNL     1      -4.811  -0.720  -1.294  0.00  0.00    +0.000 A 
ATOM     17  C   UNL     1      -3.433  -0.506  -1.229  0.00  0.00    +0.000 A 
ENDBRANCH   3  12
TORSDOF 1
