REMARK  Name = *****
REMARK  2 active torsions:
REMARK  status: ('A' for Active; 'I' for Inactive)
REMARK    1  A    between atoms: C_3  and  C_8
REMARK    2  A    between atoms: N_9  and  C_10
REMARK                            x       y       z     vdW  Elec       q    Type
REMARK                         _______ _______ _______ _____ _____    ______ ____
ROOT
ATOM      1  C   UNL     1      -1.830   2.623  -0.125  0.00  0.00    +0.000 C 
ATOM      2  N   UNL     1      -1.296   3.685   0.390  0.00  0.00    +0.000 NA
ENDROOT
BRANCH   1   5
ATOM      3  C   UNL     1      -1.177  -1.050  -0.607  0.00  0.00    +0.000 A 
ATOM      4  C   UNL     1      -1.797   0.202  -0.641  0.00  0.00    +0.000 A 
ATOM      5  C   UNL     1      -1.156   1.311  -0.076  0.00  0.00    +0.000 A 
ATOM      6  C   UNL     1       0.098   1.176   0.521  0.00  0.00    +0.000 A 
ATOM      7  C   UNL     1       0.701  -0.075   0.546  0.00  0.00    +0.000 A 
ATOM      8  C   UNL     1       0.076  -1.188  -0.011  0.00  0.00    +0.000 A 
ATOM      9  F   UNL     1       1.905  -0.217   1.116  0.00  0.00    +0.000 F 
ENDBRANCH   1   5
BRANCH   2  10
ATOM     10  C   UNL     1      -2.042   4.864   0.275  0.00  0.00    +0.000 A 
ATOM     11  C   UNL     1      -3.004   5.191   1.235  0.00  0.00    +0.000 A 
ATOM     12  C   UNL     1      -3.736   6.376   1.128  0.00  0.00    +0.000 A 
ATOM     13  C   UNL     1      -3.495   7.241   0.062  0.00  0.00    +0.000 A 
ATOM     14  C   UNL     1      -2.526   6.934  -0.892  0.00  0.00    +0.000 A 
ATOM     15  C   UNL     1      -1.798   5.747  -0.780  0.00  0.00    +0.000 A 
ATOM     16 CL   UNL     1      -4.395   8.701  -0.073  0.00  0.00    +0.000 Cl
ENDBRANCH   2  10
TORSDOF 2
