REMARK  Name = *****
REMARK  2 active torsions:
REMARK  status: ('A' for Active; 'I' for Inactive)
REMARK    1  A    between atoms: C_4  and  C_7
REMARK    2  A    between atoms: C_7  and  N_8
REMARK                            x       y       z     vdW  Elec       q    Type
REMARK                         _______ _______ _______ _____ _____    ______ ____
ROOT
ATOM      1  N   UNL     1      -3.651  -1.686   0.083  0.00  0.00    +0.000 N 
ATOM      2  C   UNL     1      -3.905  -2.266   1.327  0.00  0.00    +0.000 A 
ATOM      3  C   UNL     1      -4.161  -1.607   2.524  0.00  0.00    +0.000 A 
ATOM      4  C   UNL     1      -4.420  -2.348   3.688  0.00  0.00    +0.000 A 
ATOM      5  C   UNL     1      -4.434  -3.748   3.662  0.00  0.00    +0.000 A 
ATOM      6  C   UNL     1      -4.195  -4.426   2.470  0.00  0.00    +0.000 A 
ATOM      7  C   UNL     1      -3.941  -3.670   1.332  0.00  0.00    +0.000 A 
ATOM      8  C   UNL     1      -3.669  -4.216  -0.000  0.00  0.00    +0.000 A 
ATOM      9  O   UNL     1      -3.634  -5.396  -0.301  0.00  0.00    +0.000 OA
ATOM     10  S   UNL     1      -3.402  -2.863  -1.105  0.00  0.00    +0.000 S 
ENDROOT
BRANCH   1  11
ATOM     11  C   UNL     1      -3.102  -0.341  -0.080  0.00  0.00    +0.000 C 
BRANCH  11  15
ATOM     12  C   UNL     1       1.163  -0.153   0.623  0.00  0.00    +0.000 A 
ATOM     13  C   UNL     1       0.676  -0.429  -0.652  0.00  0.00    +0.000 A 
ATOM     14  C   UNL     1      -0.700  -0.487  -0.877  0.00  0.00    +0.000 A 
ATOM     15  C   UNL     1      -1.608  -0.269   0.172  0.00  0.00    +0.000 A 
ATOM     16  C   UNL     1      -1.102   0.008   1.450  0.00  0.00    +0.000 A 
ATOM     17  C   UNL     1       0.275   0.066   1.674  0.00  0.00    +0.000 A 
ENDBRANCH  11  15
ENDBRANCH   1  11
TORSDOF 2
