REMARK  Name = *****
REMARK  2 active torsions:
REMARK  status: ('A' for Active; 'I' for Inactive)
REMARK    1  A    between atoms: C_5  and  C_8
REMARK    2  A    between atoms: C_9  and  C_10
REMARK                            x       y       z     vdW  Elec       q    Type
REMARK                         _______ _______ _______ _____ _____    ______ ____
ROOT
ATOM      1  C   UNL     1       1.452  -2.072  -1.265  0.00  0.00    +0.000 C 
ATOM      2  C   UNL     1       1.786  -2.587  -2.299  0.00  0.00    +0.000 C 
ENDROOT
BRANCH   1   7
ATOM      3  C   UNL     1      -0.187   1.493  -0.338  0.00  0.00    +0.000 C 
ATOM      4  C   UNL     1      -1.283   0.731  -0.309  0.00  0.00    +0.000 C 
ATOM      5  C   UNL     1      -1.405  -0.647   0.080  0.00  0.00    +0.000 C 
ATOM      6  C   UNL     1      -0.434  -1.565   0.179  0.00  0.00    +0.000 C 
ATOM      7  C   UNL     1       1.054  -1.450   0.010  0.00  0.00    +0.000 C 
ATOM      8  C   UNL     1       1.686  -0.092   0.122  0.00  0.00    +0.000 C 
ATOM      9  C   UNL     1       1.161   1.135   0.011  0.00  0.00    +0.000 C 
ENDBRANCH   1   7
BRANCH   2  10
ATOM     10  C   UNL     1       2.187  -3.199  -3.527  0.00  0.00    +0.000 A 
ATOM     11  C   UNL     1       2.543  -2.407  -4.621  0.00  0.00    +0.000 A 
ATOM     12  C   UNL     1       2.939  -3.005  -5.819  0.00  0.00    +0.000 A 
ATOM     13  C   UNL     1       2.980  -4.395  -5.924  0.00  0.00    +0.000 A 
ATOM     14  C   UNL     1       2.625  -5.189  -4.833  0.00  0.00    +0.000 A 
ATOM     15  C   UNL     1       2.228  -4.591  -3.635  0.00  0.00    +0.000 A 
ENDBRANCH   2  10
TORSDOF 2
