REMARK  Name = *****
REMARK  5 active torsions:
REMARK  status: ('A' for Active; 'I' for Inactive)
REMARK    1  A    between atoms: C_1  and  C_2
REMARK    2  A    between atoms: C_4  and  C_17
REMARK    3  A    between atoms: C_6  and  C_8
REMARK    4  A    between atoms: C_8  and  C_9
REMARK    5  A    between atoms: C_9  and  C_11
REMARK                            x       y       z     vdW  Elec       q    Type
REMARK                         _______ _______ _______ _____ _____    ______ ____
ROOT
ATOM      1  C   UNL     1      -2.607   0.839  -0.119  0.00  0.00    +0.000 C 
ENDROOT
BRANCH   1   7
ATOM      2  C   UNL     1       2.399   1.188   0.181  0.00  0.00    +0.000 C 
ATOM      3  C   UNL     1       1.168   0.332   0.125  0.00  0.00    +0.000 A 
ATOM      4  C   UNL     1       1.265  -1.063   0.102  0.00  0.00    +0.000 A 
ATOM      5  C   UNL     1       0.116  -1.857   0.015  0.00  0.00    +0.000 A 
ATOM      6  C   UNL     1      -1.141  -1.241  -0.044  0.00  0.00    +0.000 A 
ATOM      7  C   UNL     1      -1.265   0.155   0.002  0.00  0.00    +0.000 A 
ATOM      8  C   UNL     1      -0.099   0.931   0.073  0.00  0.00    +0.000 A 
ATOM      9  C   UNL     1       0.214  -3.354  -0.025  0.00  0.00    +0.000 C 
ENDBRANCH   1   7
BRANCH   1  10
ATOM     10  C   UNL     1      -3.770   0.092   0.507  0.00  0.00    +0.000 C 
ATOM     11  O   UNL     1      -4.479  -0.656  -0.169  0.00  0.00    +0.000 OA
BRANCH  10  12
ATOM     12  C   UNL     1      -4.075   0.265   1.961  0.00  0.00    +0.000 A 
ATOM     13  C   UNL     1      -3.217   0.933   2.842  0.00  0.00    +0.000 A 
ATOM     14  C   UNL     1      -3.567   1.074   4.189  0.00  0.00    +0.000 A 
ATOM     15  C   UNL     1      -4.767   0.546   4.663  0.00  0.00    +0.000 A 
ATOM     16  C   UNL     1      -5.621  -0.130   3.795  0.00  0.00    +0.000 A 
ATOM     17  C   UNL     1      -5.276  -0.271   2.450  0.00  0.00    +0.000 A 
ENDBRANCH  10  12
ENDBRANCH   1  10
TORSDOF 3
