REMARK  Name = *****
REMARK  2 active torsions:
REMARK  status: ('A' for Active; 'I' for Inactive)
REMARK    1  A    between atoms: C_5  and  C_6
REMARK    2  A    between atoms: C_7  and  C_8
REMARK                            x       y       z     vdW  Elec       q    Type
REMARK                         _______ _______ _______ _____ _____    ______ ____
ROOT
ATOM      1  C   UNL     1       1.320   3.257  -1.062  0.00  0.00    +0.000 C 
ATOM      2  C   UNL     1       2.324   3.820  -1.402  0.00  0.00    +0.000 C 
ENDROOT
BRANCH   1   7
ATOM      3  C   UNL     1      -0.767  -0.913  -0.109  0.00  0.00    +0.000 C 
ATOM      4  C   UNL     1       0.711  -0.934   0.252  0.00  0.00    +0.000 C 
ATOM      5  C   UNL     1       1.266   0.328  -0.399  0.00  0.00    +0.000 C 
ATOM      6  C   UNL     1       0.099   1.282  -0.363  0.00  0.00    +0.000 C 
ATOM      7  C   UNL     1       0.131   2.589  -0.662  0.00  0.00    +0.000 C 
ATOM      8  C   UNL     1      -1.154   0.552   0.043  0.00  0.00    +0.000 C 
ENDBRANCH   1   7
BRANCH   2   9
ATOM      9  C   UNL     1       3.524   4.484  -1.810  0.00  0.00    +0.000 A 
ATOM     10  C   UNL     1       3.595   5.879  -1.788  0.00  0.00    +0.000 A 
ATOM     11  C   UNL     1       4.767   6.525  -2.187  0.00  0.00    +0.000 A 
ATOM     12  C   UNL     1       5.867   5.778  -2.609  0.00  0.00    +0.000 A 
ATOM     13  C   UNL     1       5.798   4.385  -2.631  0.00  0.00    +0.000 A 
ATOM     14  C   UNL     1       4.627   3.738  -2.232  0.00  0.00    +0.000 A 
ENDBRANCH   2   9
TORSDOF 2
