REMARK  Name = *****
REMARK  2 active torsions:
REMARK  status: ('A' for Active; 'I' for Inactive)
REMARK    1  A    between atoms: C_4  and  C_6
REMARK    2  A    between atoms: C_7  and  C_8
REMARK                            x       y       z     vdW  Elec       q    Type
REMARK                         _______ _______ _______ _____ _____    ______ ____
ROOT
ATOM      1  C   UNL     1      -1.152   1.452   1.750  0.00  0.00    +0.000 C 
ATOM      2  C   UNL     1      -2.406   1.302   2.205  0.00  0.00    +0.000 C 
ENDROOT
BRANCH   1   6
ATOM      3  C   UNL     1       1.167   1.636  -1.079  0.00  0.00    +0.000 C 
ATOM      4  C   UNL     1       1.136   0.129  -0.878  0.00  0.00    +0.000 C 
ATOM      5  C   UNL     1       0.442  -0.022   0.466  0.00  0.00    +0.000 C 
ATOM      6  C   UNL     1      -0.694   1.002   0.391  0.00  0.00    +0.000 C 
ATOM      7  C   UNL     1      -0.135   2.151  -0.466  0.00  0.00    +0.000 C 
ENDBRANCH   1   6
BRANCH   2   8
ATOM      8  C   UNL     1      -2.859   1.755   3.563  0.00  0.00    +0.000 C 
ATOM      9  C   UNL     1      -3.437   0.621   4.409  0.00  0.00    +0.000 C 
ATOM     10  C   UNL     1      -4.232   1.339   5.496  0.00  0.00    +0.000 C 
ATOM     11  C   UNL     1      -4.610   2.702   4.915  0.00  0.00    +0.000 C 
ATOM     12  C   UNL     1      -4.024   2.741   3.507  0.00  0.00    +0.000 C 
ENDBRANCH   2   8
TORSDOF 2
