REMARK  Name = *****
REMARK  4 active torsions:
REMARK  status: ('A' for Active; 'I' for Inactive)
REMARK    1  A    between atoms: C_4  and  S_7
REMARK    2  A    between atoms: S_7  and  C_8
REMARK    3  A    between atoms: C_8  and  C_9
REMARK    4  A    between atoms: C_10  and  C_11
REMARK                            x       y       z     vdW  Elec       q    Type
REMARK                         _______ _______ _______ _____ _____    ______ ____
ROOT
ATOM      1  S   UNL     1      -3.118   0.368   0.848  0.00  0.00    +0.000 S 
ENDROOT
BRANCH   1   5
ATOM      2  C   UNL     1       1.292  -0.278  -0.220  0.00  0.00    +0.000 A 
ATOM      3  C   UNL     1       0.535  -1.347   0.258  0.00  0.00    +0.000 A 
ATOM      4  C   UNL     1      -0.810  -1.160   0.586  0.00  0.00    +0.000 A 
ATOM      5  C   UNL     1      -1.406   0.095   0.429  0.00  0.00    +0.000 A 
ATOM      6  C   UNL     1      -0.637   1.166  -0.037  0.00  0.00    +0.000 A 
ATOM      7  C   UNL     1       0.707   0.979  -0.365  0.00  0.00    +0.000 A 
ENDBRANCH   1   5
BRANCH   1   8
ATOM      8  C   UNL     1      -3.905  -0.762  -0.345  0.00  0.00    +0.000 C 
BRANCH   8   9
ATOM      9  C   UNL     1      -5.394  -0.591  -0.256  0.00  0.00    +0.000 C 
ATOM     10  C   UNL     1      -6.302  -1.472   0.205  0.00  0.00    +0.000 C 
ATOM     11 CL   UNL     1      -5.792  -3.021   0.823  0.00  0.00    +0.000 Cl
BRANCH  10  12
ATOM     12  C   UNL     1      -7.798  -1.294   0.283  0.00  0.00    +0.000 C 
ATOM     13 CL   UNL     1      -8.434   0.143  -0.549  0.00  0.00    +0.000 Cl
ENDBRANCH  10  12
ENDBRANCH   8   9
ENDBRANCH   1   8
TORSDOF 4
