REMARK  Name = *****
REMARK  5 active torsions:
REMARK  status: ('A' for Active; 'I' for Inactive)
REMARK    1  A    between atoms: C_1  and  C_2
REMARK    2  A    between atoms: C_4  and  C_17
REMARK    3  A    between atoms: C_5  and  N_9
REMARK    4  A    between atoms: C_6  and  C_8
REMARK    5  A    between atoms: C_10  and  C_11
REMARK                            x       y       z     vdW  Elec       q    Type
REMARK                         _______ _______ _______ _____ _____    ______ ____
ROOT
ATOM      1  C   UNL     1       2.090   1.862   0.541  0.00  0.00    +0.000 C 
ATOM      2  C   UNL     1       1.057   0.819   0.232  0.00  0.00    +0.000 A 
ATOM      3  C   UNL     1       1.437  -0.417  -0.301  0.00  0.00    +0.000 A 
ATOM      4  C   UNL     1       0.478  -1.388  -0.630  0.00  0.00    +0.000 A 
ATOM      5  C   UNL     1      -0.887  -1.121  -0.406  0.00  0.00    +0.000 A 
ATOM      6  C   UNL     1      -1.280   0.138   0.087  0.00  0.00    +0.000 A 
ATOM      7  C   UNL     1      -0.303   1.094   0.407  0.00  0.00    +0.000 A 
ATOM      8  C   UNL     1      -2.734   0.464   0.290  0.00  0.00    +0.000 C 
ATOM      9  C   UNL     1       0.922  -2.708  -1.196  0.00  0.00    +0.000 C 
ENDROOT
BRANCH   5  10
ATOM     10  N   UNL     1      -1.859  -2.092  -0.712  0.00  0.00    +0.000 NA
ATOM     11  C   UNL     1      -2.144  -2.923   0.242  0.00  0.00    +0.000 C 
BRANCH  11  12
ATOM     12  C   UNL     1      -3.142  -3.995   0.073  0.00  0.00    +0.000 A 
ATOM     13  C   UNL     1      -3.840  -4.141  -1.129  0.00  0.00    +0.000 A 
ATOM     14  C   UNL     1      -4.781  -5.163  -1.264  0.00  0.00    +0.000 A 
ATOM     15  C   UNL     1      -5.021  -6.035  -0.202  0.00  0.00    +0.000 A 
ATOM     16  C   UNL     1      -4.322  -5.889   0.997  0.00  0.00    +0.000 A 
ATOM     17  C   UNL     1      -3.381  -4.868   1.138  0.00  0.00    +0.000 A 
ENDBRANCH  11  12
ENDBRANCH   5  10
TORSDOF 2
