REMARK  Name = *****
REMARK  4 active torsions:
REMARK  status: ('A' for Active; 'I' for Inactive)
REMARK    1  A    between atoms: C_4  and  S_7
REMARK    2  A    between atoms: S_7  and  C_9
REMARK    3  A    between atoms: C_9  and  C_10
REMARK    4  A    between atoms: C_15  and  C_16
REMARK                            x       y       z     vdW  Elec       q    Type
REMARK                         _______ _______ _______ _____ _____    ______ ____
ROOT
ATOM      1  C   UNL     1      -5.383  -0.577  -0.652  0.00  0.00    +0.000 A 
ATOM      2  C   UNL     1      -5.973  -0.685  -1.924  0.00  0.00    +0.000 A 
ATOM      3  C   UNL     1      -7.345  -0.505  -2.098  0.00  0.00    +0.000 A 
ATOM      4  C   UNL     1      -8.150  -0.210  -1.004  0.00  0.00    +0.000 A 
ATOM      5  C   UNL     1      -7.583  -0.088   0.264  0.00  0.00    +0.000 A 
ATOM      6  C   UNL     1      -6.199  -0.259   0.461  0.00  0.00    +0.000 A 
ENDROOT
BRANCH   6   7
ATOM      7  C   UNL     1      -5.633  -0.120   1.857  0.00  0.00    +0.000 C 
ATOM      8  F   UNL     1      -4.558   0.718   1.907  0.00  0.00    +0.000 F 
ATOM      9  F   UNL     1      -6.521   0.365   2.768  0.00  0.00    +0.000 F 
ATOM     10  F   UNL     1      -5.196  -1.309   2.358  0.00  0.00    +0.000 F 
ENDBRANCH   6   7
BRANCH   1  11
ATOM     11  C   UNL     1      -3.886  -0.776  -0.537  0.00  0.00    +0.000 C 
BRANCH  11  12
ATOM     12  S   UNL     1      -2.968   0.748  -0.957  0.00  0.00    +0.000 S 
ATOM     13  O   UNL     1      -2.949   0.864  -2.455  0.00  0.00    +0.000 OA
BRANCH  12  17
ATOM     14  C   UNL     1       1.200  -0.781   0.269  0.00  0.00    +0.000 A 
ATOM     15  C   UNL     1       0.849  -0.736  -1.080  0.00  0.00    +0.000 A 
ATOM     16  C   UNL     1      -0.411  -0.272  -1.459  0.00  0.00    +0.000 A 
ATOM     17  C   UNL     1      -1.328   0.146  -0.489  0.00  0.00    +0.000 A 
ATOM     18  C   UNL     1      -0.967   0.109   0.863  0.00  0.00    +0.000 A 
ATOM     19  C   UNL     1       0.293  -0.357   1.240  0.00  0.00    +0.000 A 
ENDBRANCH  12  17
ENDBRANCH  11  12
ENDBRANCH   1  11
TORSDOF 4
