REMARK  Name = *****
REMARK  5 active torsions:
REMARK  status: ('A' for Active; 'I' for Inactive)
REMARK    1  A    between atoms: C_1  and  C_2
REMARK    2  A    between atoms: C_2  and  C_4
REMARK    3  A    between atoms: C_4  and  C_5
REMARK    4  A    between atoms: C_4  and  C_13
REMARK    5  A    between atoms: C_5  and  C_6
REMARK                            x       y       z     vdW  Elec       q    Type
REMARK                         _______ _______ _______ _____ _____    ______ ____
ROOT
ATOM      1  C   UNL     1       3.103   1.185  -0.418  0.00  0.00    +0.000 C 
ENDROOT
BRANCH   1   2
ATOM      2  C   UNL     1       4.602   0.930  -0.375  0.00  0.00    +0.000 A 
ATOM      3  C   UNL     1       5.235   0.459   0.786  0.00  0.00    +0.000 A 
ATOM      4  C   UNL     1       6.614   0.245   0.807  0.00  0.00    +0.000 A 
ATOM      5  C   UNL     1       7.379   0.503  -0.328  0.00  0.00    +0.000 A 
ATOM      6  C   UNL     1       6.766   0.979  -1.485  0.00  0.00    +0.000 A 
ATOM      7  C   UNL     1       5.387   1.195  -1.508  0.00  0.00    +0.000 A 
ENDBRANCH   1   2
BRANCH   1   9
ATOM      8  C   UNL     1       2.535  -1.351  -0.400  0.00  0.00    +0.000 C 
ATOM      9  C   UNL     1       2.261   0.033   0.144  0.00  0.00    +0.000 C 
ATOM     10  O   UNL     1       1.335   0.206   0.938  0.00  0.00    +0.000 OA
ENDBRANCH   1   9
BRANCH   1  11
ATOM     11  C   UNL     1       2.693   2.579   0.116  0.00  0.00    +0.000 C 
BRANCH  11  12
ATOM     12  C   UNL     1       3.145   2.955   1.511  0.00  0.00    +0.000 A 
ATOM     13  C   UNL     1       4.370   3.613   1.707  0.00  0.00    +0.000 A 
ATOM     14  C   UNL     1       4.795   3.958   2.992  0.00  0.00    +0.000 A 
ATOM     15  C   UNL     1       3.994   3.654   4.090  0.00  0.00    +0.000 A 
ATOM     16  C   UNL     1       2.772   3.010   3.913  0.00  0.00    +0.000 A 
ATOM     17  C   UNL     1       2.349   2.663   2.628  0.00  0.00    +0.000 A 
ATOM     18 CL   UNL     1       4.518   4.077   5.674  0.00  0.00    +0.000 Cl
ENDBRANCH  11  12
ENDBRANCH   1  11
TORSDOF 4
