REMARK  Name = *****
REMARK  4 active torsions:
REMARK  status: ('A' for Active; 'I' for Inactive)
REMARK    1  A    between atoms: C_1  and  C_2
REMARK    2  A    between atoms: C_5  and  S_8
REMARK    3  A    between atoms: S_8  and  C_9
REMARK    4  A    between atoms: C_10  and  C_11
REMARK                            x       y       z     vdW  Elec       q    Type
REMARK                         _______ _______ _______ _____ _____    ______ ____
ROOT
ATOM      1  S   UNL     1      -3.438   0.038   1.149  0.00  0.00    +0.000 S 
ENDROOT
BRANCH   1   6
ATOM      2  C   UNL     1       2.349   0.077  -0.762  0.00  0.00    +0.000 C 
ATOM      3  C   UNL     1       0.920   0.096  -0.304  0.00  0.00    +0.000 A 
ATOM      4  C   UNL     1       0.585   0.622   0.949  0.00  0.00    +0.000 A 
ATOM      5  C   UNL     1      -0.740   0.608   1.391  0.00  0.00    +0.000 A 
ATOM      6  C   UNL     1      -1.746   0.064   0.588  0.00  0.00    +0.000 A 
ATOM      7  C   UNL     1      -1.412  -0.481  -0.654  0.00  0.00    +0.000 A 
ATOM      8  C   UNL     1      -0.087  -0.468  -1.096  0.00  0.00    +0.000 A 
ENDBRANCH   1   6
BRANCH   1   9
ATOM      9  C   UNL     1      -3.871   1.680   0.801  0.00  0.00    +0.000 C 
ATOM     10  C   UNL     1      -5.055   2.179   1.186  0.00  0.00    +0.000 C 
BRANCH  10  11
ATOM     11  C   UNL     1      -5.476   3.563   0.935  0.00  0.00    +0.000 A 
ATOM     12  C   UNL     1      -5.241   4.205  -0.288  0.00  0.00    +0.000 A 
ATOM     13  C   UNL     1      -5.681   5.514  -0.499  0.00  0.00    +0.000 A 
ATOM     14  C   UNL     1      -6.368   6.191   0.506  0.00  0.00    +0.000 A 
ATOM     15  C   UNL     1      -6.622   5.557   1.721  0.00  0.00    +0.000 A 
ATOM     16  C   UNL     1      -6.183   4.248   1.932  0.00  0.00    +0.000 A 
ENDBRANCH  10  11
ENDBRANCH   1   9
TORSDOF 3
