REMARK  Name = *****
REMARK  4 active torsions:
REMARK  status: ('A' for Active; 'I' for Inactive)
REMARK    1  A    between atoms: C_4  and  C_7
REMARK    2  A    between atoms: C_7  and  C_8
REMARK    3  A    between atoms: C_8  and  C_9
REMARK    4  A    between atoms: C_9  and  C_11
REMARK                            x       y       z     vdW  Elec       q    Type
REMARK                         _______ _______ _______ _____ _____    ______ ____
ROOT
ATOM      1  C   UNL     1      -5.127  -0.454  -0.104  0.00  0.00    +0.000 C 
ATOM      2  O   UNL     1      -5.559   0.670  -0.360  0.00  0.00    +0.000 OA
ENDROOT
BRANCH   1   3
ATOM      3  C   UNL     1      -6.107  -1.560   0.105  0.00  0.00    +0.000 A 
ATOM      4  C   UNL     1      -5.731  -2.897   0.264  0.00  0.00    +0.000 A 
ATOM      5  C   UNL     1      -6.684  -3.895   0.458  0.00  0.00    +0.000 A 
ATOM      6  C   UNL     1      -8.029  -3.552   0.493  0.00  0.00    +0.000 A 
ATOM      7  C   UNL     1      -8.434  -2.233   0.335  0.00  0.00    +0.000 A 
ATOM      8  C   UNL     1      -7.475  -1.236   0.140  0.00  0.00    +0.000 A 
ATOM      9  F   UNL     1      -8.948  -4.507   0.680  0.00  0.00    +0.000 F 
ATOM     10  F   UNL     1      -4.445  -3.272   0.228  0.00  0.00    +0.000 F 
ENDBRANCH   1   3
BRANCH   1  11
ATOM     11  C   UNL     1      -3.641  -0.737   0.007  0.00  0.00    +0.000 C 
BRANCH  11  12
ATOM     12  C   UNL     1      -2.814   0.546  -0.091  0.00  0.00    +0.000 C 
BRANCH  12  16
ATOM     13  C   UNL     1       1.392  -0.308   0.326  0.00  0.00    +0.000 A 
ATOM     14  C   UNL     1       0.798  -0.326  -0.935  0.00  0.00    +0.000 A 
ATOM     15  C   UNL     1      -0.562  -0.043  -1.072  0.00  0.00    +0.000 A 
ATOM     16  C   UNL     1      -1.339   0.264   0.053  0.00  0.00    +0.000 A 
ATOM     17  C   UNL     1      -0.734   0.274   1.316  0.00  0.00    +0.000 A 
ATOM     18  C   UNL     1       0.626  -0.009   1.451  0.00  0.00    +0.000 A 
ENDBRANCH  12  16
ENDBRANCH  11  12
ENDBRANCH   1  11
TORSDOF 4
