REMARK  Name = *****
REMARK  3 active torsions:
REMARK  status: ('A' for Active; 'I' for Inactive)
REMARK    1  A    between atoms: C_4  and  S_6
REMARK    2  A    between atoms: S_6  and  C_7
REMARK    3  A    between atoms: C_7  and  C_8
REMARK                            x       y       z     vdW  Elec       q    Type
REMARK                         _______ _______ _______ _____ _____    ______ ____
ROOT
ATOM      1  C   UNL     1      -2.843   1.118   2.294  0.00  0.00    +0.000 C 
ENDROOT
BRANCH   1   2
ATOM      2  C   UNL     1      -3.166   1.485   3.722  0.00  0.00    +0.000 A 
ATOM      3  C   UNL     1      -3.140   0.471   4.699  0.00  0.00    +0.000 A 
ATOM      4  C   UNL     1      -3.429   0.750   6.036  0.00  0.00    +0.000 A 
ATOM      5  C   UNL     1      -3.741   2.049   6.423  0.00  0.00    +0.000 A 
ATOM      6  C   UNL     1      -3.760   3.070   5.474  0.00  0.00    +0.000 A 
ATOM      7  C   UNL     1      -3.472   2.794   4.132  0.00  0.00    +0.000 A 
ATOM      8 BR   UNL     1      -3.518   4.258   2.921  0.00  0.00    +0.000 Br
ENDBRANCH   1   2
BRANCH   1   9
ATOM      9  S   UNL     1      -1.072   1.339   1.927  0.00  0.00    +0.000 S 
BRANCH   9  13
ATOM     10  C   UNL     1      -0.512   2.931  -0.939  0.00  0.00    +0.000 C 
ATOM     11  C   UNL     1       0.774   2.116  -0.815  0.00  0.00    +0.000 C 
ATOM     12  C   UNL     1       0.357   0.717  -0.358  0.00  0.00    +0.000 C 
ATOM     13  C   UNL     1      -1.075   0.852   0.161  0.00  0.00    +0.000 C 
ATOM     14  C   UNL     1      -1.650   1.933  -0.751  0.00  0.00    +0.000 C 
ENDBRANCH   9  13
ENDBRANCH   1   9
TORSDOF 3
