REMARK  Name = *****
REMARK  3 active torsions:
REMARK  status: ('A' for Active; 'I' for Inactive)
REMARK    1  A    between atoms: C_1  and  C_2
REMARK    2  A    between atoms: C_2  and  C_10
REMARK    3  A    between atoms: N_3  and  C_4
REMARK                            x       y       z     vdW  Elec       q    Type
REMARK                         _______ _______ _______ _____ _____    ______ ____
ROOT
ATOM      1  C   UNL     1       1.213  -0.765   0.603  0.00  0.00    +0.000 C 
ATOM      2  C   UNL     1       2.545  -0.177   0.174  0.00  0.00    +0.000 C 
ATOM      3  N   UNL     1       3.058  -0.326  -1.014  0.00  0.00    +0.000 NA
ENDROOT
BRANCH   2   4
ATOM      4  C   UNL     1       3.307   0.635   1.173  0.00  0.00    +0.000 A 
ATOM      5  C   UNL     1       2.658   1.336   2.197  0.00  0.00    +0.000 A 
ATOM      6  C   UNL     1       3.402   2.092   3.109  0.00  0.00    +0.000 A 
ATOM      7  C   UNL     1       4.790   2.153   2.995  0.00  0.00    +0.000 A 
ATOM      8  C   UNL     1       5.444   1.470   1.972  0.00  0.00    +0.000 A 
ATOM      9  C   UNL     1       4.703   0.715   1.059  0.00  0.00    +0.000 A 
ATOM     10 CL   UNL     1       5.700   3.085   4.119  0.00  0.00    +0.000 Cl
ENDBRANCH   2   4
BRANCH   3  11
ATOM     11  C   UNL     1       2.370  -1.051  -1.993  0.00  0.00    +0.000 A 
ATOM     12  C   UNL     1       1.402  -0.432  -2.788  0.00  0.00    +0.000 A 
ATOM     13  C   UNL     1       0.733  -1.153  -3.779  0.00  0.00    +0.000 A 
ATOM     14  C   UNL     1       1.043  -2.496  -3.991  0.00  0.00    +0.000 A 
ATOM     15  C   UNL     1       2.024  -3.115  -3.217  0.00  0.00    +0.000 A 
ATOM     16  C   UNL     1       2.690  -2.391  -2.227  0.00  0.00    +0.000 A 
ENDBRANCH   3  11
TORSDOF 2
