REMARK  Name = *****
REMARK  4 active torsions:
REMARK  status: ('A' for Active; 'I' for Inactive)
REMARK    1  A    between atoms: C_4  and  C_7
REMARK    2  A    between atoms: C_7  and  O_9
REMARK    3  A    between atoms: O_9  and  C_10
REMARK    4  A    between atoms: C_15  and  C_16
REMARK                            x       y       z     vdW  Elec       q    Type
REMARK                         _______ _______ _______ _____ _____    ______ ____
ROOT
ATOM      1  O   UNL     1       2.064  -2.794  -0.865  0.00  0.00    +0.000 OA
ENDROOT
BRANCH   1   2
ATOM      2  C   UNL     1       3.104  -3.372  -1.598  0.00  0.00    +0.000 A 
ATOM      3  C   UNL     1       2.821  -3.664  -2.938  0.00  0.00    +0.000 A 
ATOM      4  C   UNL     1       3.803  -4.229  -3.749  0.00  0.00    +0.000 A 
ATOM      5  C   UNL     1       5.063  -4.508  -3.222  0.00  0.00    +0.000 A 
ATOM      6  C   UNL     1       5.337  -4.234  -1.879  0.00  0.00    +0.000 A 
ATOM      7  C   UNL     1       4.354  -3.676  -1.042  0.00  0.00    +0.000 A 
BRANCH   7   8
ATOM      8  C   UNL     1       4.713  -3.453   0.391  0.00  0.00    +0.000 C 
ATOM      9  O   UNL     1       5.908  -3.301   0.648  0.00  0.00    +0.000 OA
ATOM     10 CL   UNL     1       3.480  -3.496   1.632  0.00  0.00    +0.000 Cl
ENDBRANCH   7   8
ENDBRANCH   1   2
BRANCH   1  11
ATOM     11  C   UNL     1       2.160  -1.405  -0.785  0.00  0.00    +0.000 C 
ATOM     12  O   UNL     1       3.066  -0.725  -1.247  0.00  0.00    +0.000 OA
BRANCH  11  16
ATOM     13  C   UNL     1      -1.271   1.040   0.302  0.00  0.00    +0.000 C 
ATOM     14  C   UNL     1      -1.518  -0.395  -0.155  0.00  0.00    +0.000 C 
ATOM     15  C   UNL     1      -0.302  -0.978  -0.870  0.00  0.00    +0.000 C 
ATOM     16  C   UNL     1       0.964  -0.873  -0.013  0.00  0.00    +0.000 C 
ATOM     17  C   UNL     1       1.204   0.573   0.439  0.00  0.00    +0.000 C 
ATOM     18  C   UNL     1      -0.013   1.148   1.158  0.00  0.00    +0.000 C 
ENDBRANCH  11  16
ENDBRANCH   1  11
TORSDOF 4
