REMARK  Name = *****
REMARK  2 active torsions:
REMARK  status: ('A' for Active; 'I' for Inactive)
REMARK    1  A    between atoms: C_6  and  N_7
REMARK    2  A    between atoms: C_8  and  C_9
REMARK                            x       y       z     vdW  Elec       q    Type
REMARK                         _______ _______ _______ _____ _____    ______ ____
ROOT
ATOM      1  N   UNL     1      -3.403  -0.050  -0.064  0.00  0.00    +0.000 NA
ATOM      2  C   UNL     1      -4.055   1.060   0.068  0.00  0.00    +0.000 C 
ENDROOT
BRANCH   2   3
ATOM      3  C   UNL     1      -5.529   1.096   0.034  0.00  0.00    +0.000 A 
ATOM      4  C   UNL     1      -6.269  -0.080  -0.132  0.00  0.00    +0.000 A 
ATOM      5  C   UNL     1      -7.659  -0.013  -0.160  0.00  0.00    +0.000 A 
ATOM      6  C   UNL     1      -8.313   1.205  -0.026  0.00  0.00    +0.000 A 
ATOM      7  C   UNL     1      -7.569   2.367   0.138  0.00  0.00    +0.000 A 
ATOM      8  C   UNL     1      -6.177   2.327   0.170  0.00  0.00    +0.000 A 
ATOM      9  F   UNL     1      -8.188   3.549   0.268  0.00  0.00    +0.000 F 
ATOM     10  F   UNL     1      -9.652   1.260  -0.054  0.00  0.00    +0.000 F 
ATOM     11  F   UNL     1      -8.366  -1.140  -0.318  0.00  0.00    +0.000 F 
ENDBRANCH   2   3
BRANCH   1  17
ATOM     12  C   UNL     1      -1.274   0.318  -1.175  0.00  0.00    +0.000 A 
ATOM     13  C   UNL     1       0.119   0.401  -1.125  0.00  0.00    +0.000 A 
ATOM     14  C   UNL     1       0.772   0.204   0.086  0.00  0.00    +0.000 A 
ATOM     15  C   UNL     1       0.060  -0.081   1.246  0.00  0.00    +0.000 A 
ATOM     16  C   UNL     1      -1.332  -0.163   1.193  0.00  0.00    +0.000 A 
ATOM     17  C   UNL     1      -2.007   0.049  -0.014  0.00  0.00    +0.000 A 
ATOM     18  F   UNL     1       2.108   0.283   0.135  0.00  0.00    +0.000 F 
ENDBRANCH   1  17
TORSDOF 2
