REMARK  Name = *****
REMARK  4 active torsions:
REMARK  status: ('A' for Active; 'I' for Inactive)
REMARK    1  A    between atoms: C_1  and  S_2
REMARK    2  A    between atoms: S_2  and  N_3
REMARK    3  A    between atoms: S_2  and  C_12
REMARK    4  A    between atoms: N_3  and  C_4
REMARK                            x       y       z     vdW  Elec       q    Type
REMARK                         _______ _______ _______ _____ _____    ______ ____
ROOT
ATOM      1  C   UNL     1       1.301  -0.290  -0.146  0.00  0.00    +0.000 C 
ATOM      2  S   UNL     1       3.037   0.084  -0.085  0.00  0.00    +0.000 S 
ATOM      3  O   UNL     1       3.712  -1.155  -0.429  0.00  0.00    +0.000 OA
ENDROOT
BRANCH   2   4
ATOM      4  C   UNL     1       3.395   1.169  -1.456  0.00  0.00    +0.000 A 
ATOM      5  C   UNL     1       4.580   1.912  -1.411  0.00  0.00    +0.000 A 
ATOM      6  C   UNL     1       4.887   2.789  -2.451  0.00  0.00    +0.000 A 
ATOM      7  C   UNL     1       4.017   2.917  -3.533  0.00  0.00    +0.000 A 
ATOM      8  C   UNL     1       2.842   2.163  -3.583  0.00  0.00    +0.000 A 
ATOM      9  C   UNL     1       2.527   1.283  -2.545  0.00  0.00    +0.000 A 
ENDBRANCH   2   4
BRANCH   2  10
ATOM     10  N   UNL     1       3.298   0.862   1.214  0.00  0.00    +0.000 NA
BRANCH  10  11
ATOM     11  C   UNL     1       2.784   2.112   1.699  0.00  0.00    +0.000 A 
ATOM     12  C   UNL     1       1.955   2.951   0.945  0.00  0.00    +0.000 A 
ATOM     13  C   UNL     1       1.485   4.165   1.464  0.00  0.00    +0.000 A 
ATOM     14  C   UNL     1       1.838   4.563   2.749  0.00  0.00    +0.000 A 
ATOM     15  C   UNL     1       2.665   3.749   3.518  0.00  0.00    +0.000 A 
ATOM     16  C   UNL     1       3.137   2.535   3.000  0.00  0.00    +0.000 A 
ATOM     17 CL   UNL     1       4.161   1.590   4.034  0.00  0.00    +0.000 Cl
ENDBRANCH  10  11
ENDBRANCH   2  10
TORSDOF 3
