REMARK  Name = *****
REMARK  2 active torsions:
REMARK  status: ('A' for Active; 'I' for Inactive)
REMARK    1  A    between atoms: C_5  and  O_6
REMARK    2  A    between atoms: O_6  and  C_7
REMARK                            x       y       z     vdW  Elec       q    Type
REMARK                         _______ _______ _______ _____ _____    ______ ____
ROOT
ATOM      1  O   UNL     1      -2.980  -1.382   0.288  0.00  0.00    +0.000 OA
ENDROOT
BRANCH   1   6
ATOM      2  C   UNL     1       1.866   0.027   0.111  0.00  0.00    +0.000 C 
ATOM      3  C   UNL     1       1.113  -1.301   0.200  0.00  0.00    +0.000 C 
ATOM      4  C   UNL     1      -0.190  -1.272  -0.601  0.00  0.00    +0.000 C 
ATOM      5  C   UNL     1      -1.035  -0.086  -0.205  0.00  0.00    +0.000 C 
ATOM      6  C   UNL     1      -2.312  -0.183   0.195  0.00  0.00    +0.000 C 
ATOM      7  C   UNL     1      -0.323   1.242  -0.274  0.00  0.00    +0.000 C 
ATOM      8  C   UNL     1       0.980   1.203   0.525  0.00  0.00    +0.000 C 
ENDBRANCH   1   6
BRANCH   1   9
ATOM      9  C   UNL     1      -4.332  -1.325   0.525  0.00  0.00    +0.000 A 
ATOM     10  C   UNL     1      -5.203  -0.666  -0.348  0.00  0.00    +0.000 A 
ATOM     11  C   UNL     1      -6.573  -0.670  -0.088  0.00  0.00    +0.000 A 
ATOM     12  C   UNL     1      -7.056  -1.344   1.030  0.00  0.00    +0.000 A 
ATOM     13  C   UNL     1      -6.196  -2.021   1.890  0.00  0.00    +0.000 A 
ATOM     14  C   UNL     1      -4.825  -2.018   1.632  0.00  0.00    +0.000 A 
ATOM     15  F   UNL     1      -8.373  -1.350   1.277  0.00  0.00    +0.000 F 
ENDBRANCH   1   9
TORSDOF 2
