REMARK  Name = *****
REMARK  1 active torsions:
REMARK  status: ('A' for Active; 'I' for Inactive)
REMARK    1  A    between atoms: C_8  and  C_10
REMARK                            x       y       z     vdW  Elec       q    Type
REMARK                         _______ _______ _______ _____ _____    ______ ____
ROOT
ATOM      1  C   UNL     1       0.207   1.123  -1.159  0.00  0.00    +0.000 C 
ATOM      2  C   UNL     1       1.406   0.883  -0.244  0.00  0.00    +0.000 C 
ATOM      3  C   UNL     1       1.482  -0.575   0.209  0.00  0.00    +0.000 C 
ATOM      4  C   UNL     1       0.168  -0.999   0.881  0.00  0.00    +0.000 C 
ATOM      5  C   UNL     1      -1.036  -0.773  -0.045  0.00  0.00    +0.000 C 
ATOM      6  C   UNL     1      -1.098   0.685  -0.497  0.00  0.00    +0.000 C 
ATOM      7  C   UNL     1       0.219  -2.428   1.498  0.00  0.00    +0.000 C 
ATOM      8  C   UNL     1       0.046  -1.755   2.847  0.00  0.00    +0.000 C 
ATOM      9  C   UNL     1      -0.014  -0.519   2.318  0.00  0.00    +0.000 C 
ENDROOT
BRANCH   8  10
ATOM     10  C   UNL     1      -0.033  -2.283   4.240  0.00  0.00    +0.000 C 
ATOM     11  C   UNL     1       0.057  -3.603   4.480  0.00  0.00    +0.000 C 
ATOM     12  C   UNL     1      -0.042  -4.207   5.850  0.00  0.00    +0.000 C 
ATOM     13  C   UNL     1      -0.566  -3.232   6.905  0.00  0.00    +0.000 C 
ATOM     14  C   UNL     1       0.070  -1.856   6.743  0.00  0.00    +0.000 C 
ATOM     15  C   UNL     1      -0.209  -1.277   5.352  0.00  0.00    +0.000 C 
ENDBRANCH   8  10
TORSDOF 1
