REMARK  Name = *****
REMARK  1 active torsions:
REMARK  status: ('A' for Active; 'I' for Inactive)
REMARK    1  A    between atoms: C_8  and  C_10
REMARK                            x       y       z     vdW  Elec       q    Type
REMARK                         _______ _______ _______ _____ _____    ______ ____
ROOT
ATOM      1  C   UNL     1       0.502   1.125  -1.004  0.00  0.00    +0.000 C 
ATOM      2  C   UNL     1       1.612   0.616  -0.086  0.00  0.00    +0.000 C 
ATOM      3  C   UNL     1       1.412  -0.856   0.271  0.00  0.00    +0.000 C 
ATOM      4  C   UNL     1       0.024  -1.076   0.891  0.00  0.00    +0.000 C 
ATOM      5  C   UNL     1      -1.092  -0.579  -0.038  0.00  0.00    +0.000 C 
ATOM      6  C   UNL     1      -0.879   0.891  -0.395  0.00  0.00    +0.000 C 
ATOM      7  C   UNL     1      -0.200  -2.525   1.414  0.00  0.00    +0.000 C 
ATOM      8  C   UNL     1      -0.292  -1.917   2.802  0.00  0.00    +0.000 C 
ATOM      9  C   UNL     1      -0.110  -0.660   2.353  0.00  0.00    +0.000 C 
ENDROOT
BRANCH   8  10
ATOM     10  C   UNL     1      -0.507  -2.511   4.145  0.00  0.00    +0.000 A 
ATOM     11  C   UNL     1      -0.664  -3.893   4.262  0.00  0.00    +0.000 A 
ATOM     12  C   UNL     1      -0.865  -4.462   5.521  0.00  0.00    +0.000 A 
ATOM     13  C   UNL     1      -0.909  -3.652   6.656  0.00  0.00    +0.000 A 
ATOM     14  C   UNL     1      -0.751  -2.271   6.534  0.00  0.00    +0.000 A 
ATOM     15  C   UNL     1      -0.550  -1.697   5.277  0.00  0.00    +0.000 A 
ENDBRANCH   8  10
TORSDOF 1
