REMARK  Name = *****
REMARK  4 active torsions:
REMARK  status: ('A' for Active; 'I' for Inactive)
REMARK    1  A    between atoms: C_5  and  C_6
REMARK    2  A    between atoms: C_6  and  S_14
REMARK    3  A    between atoms: C_7  and  C_8
REMARK    4  A    between atoms: C_7  and  S_13
REMARK                            x       y       z     vdW  Elec       q    Type
REMARK                         _______ _______ _______ _____ _____    ______ ____
ROOT
ATOM      1  C   UNL     1       2.650  -1.471   0.042  0.00  0.00    +0.000 C 
ATOM      2  C   UNL     1       2.643  -2.825  -0.075  0.00  0.00    +0.000 C 
ENDROOT
BRANCH   1   7
ATOM      3  C   UNL     1       0.895  -0.027  -1.100  0.00  0.00    +0.000 A 
ATOM      4  C   UNL     1      -0.225   0.710  -0.783  0.00  0.00    +0.000 A 
ATOM      5  S   UNL     1      -0.573   0.667   0.892  0.00  0.00    +0.000 S 
ATOM      6  C   UNL     1       0.777  -0.338   1.205  0.00  0.00    +0.000 A 
ATOM      7  C   UNL     1       1.475  -0.640   0.053  0.00  0.00    +0.000 A 
ENDBRANCH   1   7
BRANCH   2   8
ATOM      8  C   UNL     1       3.828  -3.645  -0.076  0.00  0.00    +0.000 A 
ATOM      9  C   UNL     1       4.470  -4.041  -1.233  0.00  0.00    +0.000 A 
ATOM     10  S   UNL     1       5.847  -5.005  -0.907  0.00  0.00    +0.000 S 
ATOM     11  C   UNL     1       5.588  -4.903   0.782  0.00  0.00    +0.000 A 
ATOM     12  C   UNL     1       4.477  -4.151   1.093  0.00  0.00    +0.000 A 
ENDBRANCH   2   8
BRANCH   2  13
ATOM     13  S   UNL     1       1.159  -3.766  -0.231  0.00  0.00    +0.000 S 
ATOM     14  H   UNL     1       0.088  -2.929  -0.222  0.00  0.00    +0.000 HD
ENDBRANCH   2  13
BRANCH   1  15
ATOM     15  S   UNL     1       4.158  -0.568   0.188  0.00  0.00    +0.000 S 
ATOM     16  H   UNL     1       3.883   0.760   0.290  0.00  0.00    +0.000 HD
ENDBRANCH   1  15
TORSDOF 4
