REMARK  Name = *****
REMARK  3 active torsions:
REMARK  status: ('A' for Active; 'I' for Inactive)
REMARK    1  A    between atoms: C_6  and  C_7
REMARK    2  A    between atoms: C_7  and  C_8
REMARK    3  A    between atoms: C_8  and  C_9
REMARK                            x       y       z     vdW  Elec       q    Type
REMARK                         _______ _______ _______ _____ _____    ______ ____
ROOT
ATOM      1  C   UNL     1       5.139  -1.450   0.021  0.00  0.00    +0.000 C 
ATOM      2  F   UNL     1       4.649  -2.290   0.986  0.00  0.00    +0.000 F 
ENDROOT
BRANCH   1   3
ATOM      3  C   UNL     1       6.656  -1.475  -0.019  0.00  0.00    +0.000 A 
ATOM      4  C   UNL     1       7.375  -2.176   0.965  0.00  0.00    +0.000 A 
ATOM      5  C   UNL     1       8.770  -2.205   0.941  0.00  0.00    +0.000 A 
ATOM      6  C   UNL     1       9.451  -1.533  -0.065  0.00  0.00    +0.000 A 
ATOM      7  C   UNL     1       8.762  -0.838  -1.052  0.00  0.00    +0.000 A 
ATOM      8  C   UNL     1       7.366  -0.811  -1.034  0.00  0.00    +0.000 A 
ATOM      9  F   UNL     1      10.790  -1.557  -0.087  0.00  0.00    +0.000 F 
ENDBRANCH   1   3
BRANCH   1  10
ATOM     10  C   UNL     1       4.600  -0.040   0.300  0.00  0.00    +0.000 C 
BRANCH  10  16
ATOM     11  C   UNL     1       2.404   0.267  -0.927  0.00  0.00    +0.000 A 
ATOM     12  C   UNL     1       1.007   0.304  -0.947  0.00  0.00    +0.000 A 
ATOM     13  C   UNL     1       0.292   0.092   0.229  0.00  0.00    +0.000 A 
ATOM     14  C   UNL     1       0.958  -0.161   1.425  0.00  0.00    +0.000 A 
ATOM     15  C   UNL     1       2.354  -0.201   1.444  0.00  0.00    +0.000 A 
ATOM     16  C   UNL     1       3.089   0.019   0.270  0.00  0.00    +0.000 A 
ATOM     17 BR   UNL     1      -1.598   0.143   0.202  0.00  0.00    +0.000 Br
ENDBRANCH  10  16
ENDBRANCH   1  10
TORSDOF 3
