REMARK  Name = *****
REMARK  4 active torsions:
REMARK  status: ('A' for Active; 'I' for Inactive)
REMARK    1  A    between atoms: C_4  and  C_7
REMARK    2  A    between atoms: C_7  and  S_9
REMARK    3  A    between atoms: S_9  and  C_10
REMARK    4  A    between atoms: C_11  and  C_15
REMARK                            x       y       z     vdW  Elec       q    Type
REMARK                         _______ _______ _______ _____ _____    ______ ____
ROOT
ATOM      1  C   UNL     1      -2.768   0.287  -0.116  0.00  0.00    +0.000 C 
ATOM      2  O   UNL     1      -3.215   1.298   0.414  0.00  0.00    +0.000 OA
ENDROOT
BRANCH   1   6
ATOM      3  C   UNL     1       1.493  -0.310  -0.154  0.00  0.00    +0.000 A 
ATOM      4  C   UNL     1       0.929   0.809   0.451  0.00  0.00    +0.000 A 
ATOM      5  C   UNL     1      -0.458   0.977   0.452  0.00  0.00    +0.000 A 
ATOM      6  C   UNL     1      -1.297   0.026  -0.151  0.00  0.00    +0.000 A 
ATOM      7  C   UNL     1      -0.716  -1.098  -0.756  0.00  0.00    +0.000 A 
ATOM      8  C   UNL     1       0.673  -1.262  -0.757  0.00  0.00    +0.000 A 
ENDBRANCH   1   6
BRANCH   1   9
ATOM      9  S   UNL     1      -3.859  -0.889  -0.841  0.00  0.00    +0.000 S 
BRANCH   9  10
ATOM     10  C   UNL     1      -4.328  -0.024  -2.304  0.00  0.00    +0.000 A 
ATOM     11  C   UNL     1      -4.055  -0.413  -3.600  0.00  0.00    +0.000 A 
ATOM     12  S   UNL     1      -4.724   0.688  -4.736  0.00  0.00    +0.000 S 
ATOM     13  C   UNL     1      -5.366   1.679  -3.503  0.00  0.00    +0.000 A 
ATOM     14  C   UNL     1      -5.089   1.182  -2.249  0.00  0.00    +0.000 A 
BRANCH  11  15
ATOM     15  C   UNL     1      -3.317  -1.549  -4.111  0.00  0.00    +0.000 C 
ATOM     16  O   UNL     1      -2.694  -2.367  -3.437  0.00  0.00    +0.000 OA
ENDBRANCH  11  15
ENDBRANCH   9  10
ENDBRANCH   1   9
TORSDOF 4
