REMARK  Name = *****
REMARK  1 active torsions:
REMARK  status: ('A' for Active; 'I' for Inactive)
REMARK    1  A    between atoms: C_7  and  C_9
REMARK                            x       y       z     vdW  Elec       q    Type
REMARK                         _______ _______ _______ _____ _____    ______ ____
ROOT
ATOM      1  C   UNL     1       2.397   0.018   0.377  0.00  0.00    +0.000 C 
ATOM      2  C   UNL     1       1.491  -1.229   0.454  0.00  0.00    +0.000 C 
ATOM      3  C   UNL     1       0.180  -0.661   0.092  0.00  0.00    +0.000 C 
ATOM      4  C   UNL     1       0.177   0.665   0.048  0.00  0.00    +0.000 C 
ATOM      5  C   UNL     1       1.485   1.264   0.373  0.00  0.00    +0.000 C 
ATOM      6  C   UNL     1      -1.155   1.244  -0.225  0.00  0.00    +0.000 C 
ATOM      7  C   UNL     1      -2.007  -0.024  -0.540  0.00  0.00    +0.000 C 
ATOM      8  C   UNL     1      -1.148  -1.263  -0.143  0.00  0.00    +0.000 C 
ENDROOT
BRANCH   7   9
ATOM      9  C   UNL     1      -2.466  -0.073  -1.990  0.00  0.00    +0.000 A 
ATOM     10  C   UNL     1      -1.549  -0.101  -3.052  0.00  0.00    +0.000 A 
ATOM     11  C   UNL     1      -1.991  -0.147  -4.375  0.00  0.00    +0.000 A 
ATOM     12  C   UNL     1      -3.355  -0.165  -4.655  0.00  0.00    +0.000 A 
ATOM     13  C   UNL     1      -4.278  -0.137  -3.612  0.00  0.00    +0.000 A 
ATOM     14  C   UNL     1      -3.837  -0.092  -2.288  0.00  0.00    +0.000 A 
ENDBRANCH   7   9
TORSDOF 1
