REMARK  Name = *****
REMARK  4 active torsions:
REMARK  status: ('A' for Active; 'I' for Inactive)
REMARK    1  A    between atoms: C_4  and  C_7
REMARK    2  A    between atoms: C_7  and  O_8
REMARK    3  A    between atoms: O_8  and  C_9
REMARK    4  A    between atoms: C_12  and  C_15
REMARK                            x       y       z     vdW  Elec       q    Type
REMARK                         _______ _______ _______ _____ _____    ______ ____
ROOT
ATOM      1  O   UNL     1      -3.557  -0.656  -0.350  0.00  0.00    +0.000 OA
ENDROOT
BRANCH   1   2
ATOM      2  C   UNL     1      -4.929  -0.516  -0.359  0.00  0.00    +0.000 A 
ATOM      3  N   UNL     1      -5.498   0.610   0.119  0.00  0.00    +0.000 NA
ATOM      4  C   UNL     1      -6.848   0.674   0.074  0.00  0.00    +0.000 A 
ATOM      5  C   UNL     1      -7.666  -0.342  -0.409  0.00  0.00    +0.000 A 
ATOM      6  C   UNL     1      -7.039  -1.490  -0.902  0.00  0.00    +0.000 A 
ATOM      7  C   UNL     1      -5.650  -1.581  -0.875  0.00  0.00    +0.000 A 
BRANCH   5   8
ATOM      8  C   UNL     1      -9.155  -0.191  -0.427  0.00  0.00    +0.000 C 
ATOM      9 CL   UNL     1      -9.689   0.541  -1.951  0.00  0.00    +0.000 Cl
ENDBRANCH   5   8
ENDBRANCH   1   2
BRANCH   1  10
ATOM     10  C   UNL     1      -2.884   0.485   0.177  0.00  0.00    +0.000 C 
BRANCH  10  14
ATOM     11  C   UNL     1       1.347  -0.351   0.053  0.00  0.00    +0.000 A 
ATOM     12  C   UNL     1       0.758   0.410  -0.955  0.00  0.00    +0.000 A 
ATOM     13  C   UNL     1      -0.610   0.684  -0.916  0.00  0.00    +0.000 A 
ATOM     14  C   UNL     1      -1.401   0.205   0.138  0.00  0.00    +0.000 A 
ATOM     15  C   UNL     1      -0.799  -0.571   1.140  0.00  0.00    +0.000 A 
ATOM     16  C   UNL     1       0.569  -0.844   1.099  0.00  0.00    +0.000 A 
ENDBRANCH  10  14
ENDBRANCH   1  10
TORSDOF 4
