REMARK  Name = *****
REMARK  6 active torsions:
REMARK  status: ('A' for Active; 'I' for Inactive)
REMARK    1  A    between atoms: C_1  and  C_2
REMARK    2  A    between atoms: C_2  and  C_3
REMARK    3  A    between atoms: C_3  and  C_4
REMARK    4  A    between atoms: C_4  and  C_5
REMARK    5  A    between atoms: C_4  and  C_11
REMARK    6  A    between atoms: C_11  and  C_13
REMARK                            x       y       z     vdW  Elec       q    Type
REMARK                         _______ _______ _______ _____ _____    ______ ____
ROOT
ATOM      1  C   UNL     1       4.393   0.068   1.465  0.00  0.00    +0.000 C 
ENDROOT
BRANCH   1   2
ATOM      2  C   UNL     1       2.874  -0.049   1.485  0.00  0.00    +0.000 A 
ATOM      3  C   UNL     1       2.087   0.826   2.250  0.00  0.00    +0.000 A 
ATOM      4  C   UNL     1       0.694   0.772   2.187  0.00  0.00    +0.000 A 
ATOM      5  C   UNL     1       0.069  -0.156   1.357  0.00  0.00    +0.000 A 
ATOM      6  C   UNL     1       0.836  -1.035   0.595  0.00  0.00    +0.000 A 
ATOM      7  C   UNL     1       2.230  -0.982   0.656  0.00  0.00    +0.000 A 
ENDBRANCH   1   2
BRANCH   1   8
ATOM      8  C   UNL     1       4.987   0.114   2.880  0.00  0.00    +0.000 C 
ATOM      9  O   UNL     1       5.155   1.179   3.478  0.00  0.00    +0.000 OA
BRANCH   8  10
ATOM     10  C   UNL     1       5.389  -1.157   3.565  0.00  0.00    +0.000 A 
ATOM     11  C   UNL     1       5.053  -2.427   3.083  0.00  0.00    +0.000 A 
ATOM     12  C   UNL     1       5.483  -3.574   3.760  0.00  0.00    +0.000 A 
ATOM     13  C   UNL     1       6.241  -3.462   4.924  0.00  0.00    +0.000 A 
ATOM     14  C   UNL     1       6.569  -2.203   5.420  0.00  0.00    +0.000 A 
ATOM     15  C   UNL     1       6.145  -1.056   4.744  0.00  0.00    +0.000 A 
ENDBRANCH   8  10
ENDBRANCH   1   8
BRANCH   1  16
ATOM     16  C   UNL     1       4.779   1.324   0.651  0.00  0.00    +0.000 C 
BRANCH  16  18
ATOM     17  C   UNL     1       6.589   2.599  -0.538  0.00  0.00    +0.000 C 
ATOM     18  C   UNL     1       6.270   1.377   0.309  0.00  0.00    +0.000 C 
ENDBRANCH  16  18
ENDBRANCH   1  16
TORSDOF 5
