REMARK  Name = *****
REMARK  5 active torsions:
REMARK  status: ('A' for Active; 'I' for Inactive)
REMARK    1  A    between atoms: C_1  and  C_2
REMARK    2  A    between atoms: C_3  and  C_16
REMARK    3  A    between atoms: C_4  and  C_8
REMARK    4  A    between atoms: C_8  and  N_9
REMARK    5  A    between atoms: N_9  and  C_10
REMARK                            x       y       z     vdW  Elec       q    Type
REMARK                         _______ _______ _______ _____ _____    ______ ____
ROOT
ATOM      1  C   UNL     1       1.750   1.587   0.007  0.00  0.00    +0.000 C 
ATOM      2  C   UNL     1       0.534   0.699  -0.040  0.00  0.00    +0.000 A 
ATOM      3  C   UNL     1       0.625  -0.713   0.030  0.00  0.00    +0.000 A 
ATOM      4  C   UNL     1      -0.568  -1.472  -0.026  0.00  0.00    +0.000 A 
ATOM      5  C   UNL     1      -1.813  -0.837  -0.141  0.00  0.00    +0.000 A 
ATOM      6  C   UNL     1      -1.891   0.549  -0.205  0.00  0.00    +0.000 A 
ATOM      7  C   UNL     1      -0.727   1.310  -0.155  0.00  0.00    +0.000 A 
ATOM      8  C   UNL     1       1.961  -1.401   0.157  0.00  0.00    +0.000 C 
ENDROOT
BRANCH   4   9
ATOM      9  C   UNL     1      -0.548  -2.956   0.032  0.00  0.00    +0.000 C 
BRANCH   9  10
ATOM     10  N   UNL     1      -1.631  -3.658  -0.012  0.00  0.00    +0.000 NA
BRANCH  10  11
ATOM     11  C   UNL     1      -1.430  -5.112   0.057  0.00  0.00    +0.000 C 
ATOM     12  C   UNL     1      -1.266  -5.667  -1.362  0.00  0.00    +0.000 C 
ATOM     13  C   UNL     1      -1.210  -7.192  -1.366  0.00  0.00    +0.000 C 
ATOM     14  C   UNL     1      -2.425  -7.802  -0.671  0.00  0.00    +0.000 C 
ATOM     15  C   UNL     1      -2.602  -7.249   0.740  0.00  0.00    +0.000 C 
ATOM     16  C   UNL     1      -2.658  -5.723   0.742  0.00  0.00    +0.000 C 
ENDBRANCH  10  11
ENDBRANCH   9  10
ENDBRANCH   4   9
TORSDOF 3
