REMARK  Name = *****
REMARK  1 active torsions:
REMARK  status: ('A' for Active; 'I' for Inactive)
REMARK    1  A    between atoms: C_4  and  N_7
REMARK                            x       y       z     vdW  Elec       q    Type
REMARK                         _______ _______ _______ _____ _____    ______ ____
ROOT
ATOM      1  N   UNL     1       2.727  -0.805  -0.425  0.00  0.00    +0.000 N 
ATOM      2  C   UNL     1       3.003  -0.692  -1.854  0.00  0.00    +0.000 C 
ATOM      3  C   UNL     1       3.868  -1.818  -2.337  0.00  0.00    +0.000 A 
ATOM      4  C   UNL     1       3.583  -2.511  -3.521  0.00  0.00    +0.000 A 
ATOM      5  C   UNL     1       4.431  -3.529  -3.957  0.00  0.00    +0.000 A 
ATOM      6  C   UNL     1       5.570  -3.853  -3.221  0.00  0.00    +0.000 A 
ATOM      7  C   UNL     1       5.862  -3.158  -2.046  0.00  0.00    +0.000 A 
ATOM      8  C   UNL     1       5.010  -2.144  -1.601  0.00  0.00    +0.000 A 
ATOM      9  S   UNL     1       5.385  -1.242  -0.119  0.00  0.00    +0.000 S 
ATOM     10  C   UNL     1       3.776  -0.864   0.496  0.00  0.00    +0.000 C 
ATOM     11  O   UNL     1       3.634  -0.677   1.700  0.00  0.00    +0.000 OA
ENDROOT
BRANCH   1  15
ATOM     12  C   UNL     1      -1.407   0.478  -0.165  0.00  0.00    +0.000 C 
ATOM     13  C   UNL     1      -1.081  -0.990   0.098  0.00  0.00    +0.000 C 
ATOM     14  C   UNL     1       0.287  -1.371  -0.465  0.00  0.00    +0.000 C 
ATOM     15  C   UNL     1       1.390  -0.445   0.076  0.00  0.00    +0.000 C 
ATOM     16  C   UNL     1       1.060   1.034  -0.180  0.00  0.00    +0.000 C 
ATOM     17  C   UNL     1      -0.317   1.403   0.370  0.00  0.00    +0.000 C 
ENDBRANCH   1  15
TORSDOF 1
