REMARK  Name = *****
REMARK  1 active torsions:
REMARK  status: ('A' for Active; 'I' for Inactive)
REMARK    1  A    between atoms: C_9  and  C_12
REMARK                            x       y       z     vdW  Elec       q    Type
REMARK                         _______ _______ _______ _____ _____    ______ ____
ROOT
ATOM      1  C   UNL     1      -1.276   0.051  -0.193  0.00  0.00    +0.000 C 
ATOM      2  C   UNL     1      -0.263   1.184  -0.327  0.00  0.00    +0.000 C 
ATOM      3  C   UNL     1       0.824   1.125   0.738  0.00  0.00    +0.000 C 
ATOM      4  C   UNL     1       2.030   0.245   0.418  0.00  0.00    +0.000 C 
ATOM      5  C   UNL     1       1.783  -1.081  -0.312  0.00  0.00    +0.000 C 
ATOM      6  C   UNL     1       0.492  -1.813   0.075  0.00  0.00    +0.000 C 
ATOM      7  C   UNL     1      -0.776  -1.322  -0.623  0.00  0.00    +0.000 C 
ATOM      8  O   UNL     1       2.884  -1.937  -0.008  0.00  0.00    +0.000 OA
ATOM      9  C   UNL     1       3.450  -2.136  -1.214  0.00  0.00    +0.000 C 
ATOM     10  N   UNL     1       2.911  -1.563  -2.236  0.00  0.00    +0.000 NA
ATOM     11  O   UNL     1       1.808  -0.849  -1.729  0.00  0.00    +0.000 OA
ENDROOT
BRANCH   9  12
ATOM     12  C   UNL     1       4.641  -3.000  -1.218  0.00  0.00    +0.000 A 
ATOM     13  C   UNL     1       5.124  -3.582  -0.040  0.00  0.00    +0.000 A 
ATOM     14  C   UNL     1       6.258  -4.397  -0.076  0.00  0.00    +0.000 A 
ATOM     15  C   UNL     1       6.911  -4.632  -1.286  0.00  0.00    +0.000 A 
ATOM     16  C   UNL     1       6.433  -4.055  -2.462  0.00  0.00    +0.000 A 
ATOM     17  C   UNL     1       5.300  -3.240  -2.430  0.00  0.00    +0.000 A 
ENDBRANCH   9  12
TORSDOF 1
