REMARK  Name = *****
REMARK  6 active torsions:
REMARK  status: ('A' for Active; 'I' for Inactive)
REMARK    1  A    between atoms: C_1  and  O_2
REMARK    2  A    between atoms: O_2  and  C_3
REMARK    3  A    between atoms: C_5  and  N_10
REMARK    4  A    between atoms: C_11  and  C_12
REMARK    5  A    between atoms: C_11  and  O_18
REMARK    6  A    between atoms: O_18  and  C_19
REMARK                            x       y       z     vdW  Elec       q    Type
REMARK                         _______ _______ _______ _____ _____    ______ ____
ROOT
ATOM      1  N   UNL     1       3.516  -1.551  -4.586  0.00  0.00    +0.000 NA
ATOM      2  C   UNL     1       3.783  -2.711  -5.098  0.00  0.00    +0.000 C 
ENDROOT
BRANCH   1   5
ATOM      3  C   UNL     1       3.459  -0.886  -0.947  0.00  0.00    +0.000 A 
ATOM      4  C   UNL     1       3.062  -1.210  -2.246  0.00  0.00    +0.000 A 
ATOM      5  C   UNL     1       3.990  -1.228  -3.299  0.00  0.00    +0.000 A 
ATOM      6  C   UNL     1       5.322  -0.862  -3.037  0.00  0.00    +0.000 A 
ATOM      7  C   UNL     1       5.724  -0.541  -1.740  0.00  0.00    +0.000 A 
ATOM      8  C   UNL     1       4.794  -0.561  -0.700  0.00  0.00    +0.000 A 
ATOM      9 CL   UNL     1       6.504  -0.779  -4.296  0.00  0.00    +0.000 Cl
BRANCH   3  11
ATOM     10  C   UNL     1       1.266  -1.108  -0.053  0.00  0.00    +0.000 C 
ATOM     11  O   UNL     1       2.650  -0.853   0.156  0.00  0.00    +0.000 OA
ENDBRANCH   3  11
ENDBRANCH   1   5
BRANCH   2  12
ATOM     12  C   UNL     1       4.481  -3.867  -4.506  0.00  0.00    +0.000 A 
ATOM     13  C   UNL     1       3.961  -4.495  -3.370  0.00  0.00    +0.000 A 
ATOM     14  C   UNL     1       4.634  -5.582  -2.812  0.00  0.00    +0.000 A 
ATOM     15  C   UNL     1       5.818  -6.042  -3.392  0.00  0.00    +0.000 A 
ATOM     16  C   UNL     1       6.330  -5.421  -4.532  0.00  0.00    +0.000 A 
ATOM     17  C   UNL     1       5.661  -4.334  -5.094  0.00  0.00    +0.000 A 
ENDBRANCH   2  12
BRANCH   2  18
ATOM     18  O   UNL     1       3.397  -3.068  -6.351  0.00  0.00    +0.000 OA
ATOM     19  C   UNL     1       2.719  -2.062  -7.109  0.00  0.00    +0.000 C 
ENDBRANCH   2  18
TORSDOF 4
