REMARK  Name = *****
REMARK  5 active torsions:
REMARK  status: ('A' for Active; 'I' for Inactive)
REMARK    1  A    between atoms: C_1  and  O_2
REMARK    2  A    between atoms: O_2  and  C_3
REMARK    3  A    between atoms: C_6  and  C_9
REMARK    4  A    between atoms: C_9  and  C_10
REMARK    5  A    between atoms: C_10  and  C_11
REMARK                            x       y       z     vdW  Elec       q    Type
REMARK                         _______ _______ _______ _____ _____    ______ ____
ROOT
ATOM      1  C   UNL     1       5.422   1.166   4.327  0.00  0.00    +0.000 C 
ATOM      2 CL   UNL     1       5.326   0.053   5.730  0.00  0.00    +0.000 Cl
ENDROOT
BRANCH   1   6
ATOM      3  C   UNL     1       2.590   0.240   1.163  0.00  0.00    +0.000 A 
ATOM      4  C   UNL     1       3.910   0.574   0.865  0.00  0.00    +0.000 A 
ATOM      5  C   UNL     1       4.816   0.857   1.895  0.00  0.00    +0.000 A 
ATOM      6  C   UNL     1       4.422   0.806   3.243  0.00  0.00    +0.000 A 
ATOM      7  C   UNL     1       3.091   0.471   3.528  0.00  0.00    +0.000 A 
ATOM      8  C   UNL     1       2.189   0.188   2.498  0.00  0.00    +0.000 A 
BRANCH   3  10
ATOM      9  C   UNL     1       1.954   0.038  -1.118  0.00  0.00    +0.000 C 
ATOM     10  O   UNL     1       1.607  -0.050   0.258  0.00  0.00    +0.000 OA
ENDBRANCH   3  10
ENDBRANCH   1   6
BRANCH   1  11
ATOM     11  C   UNL     1       5.394   2.648   4.756  0.00  0.00    +0.000 C 
BRANCH  11  12
ATOM     12  C   UNL     1       4.102   3.170   5.344  0.00  0.00    +0.000 A 
ATOM     13  C   UNL     1       3.844   3.064   6.717  0.00  0.00    +0.000 A 
ATOM     14  C   UNL     1       2.645   3.538   7.252  0.00  0.00    +0.000 A 
ATOM     15  C   UNL     1       1.692   4.124   6.421  0.00  0.00    +0.000 A 
ATOM     16  C   UNL     1       1.938   4.239   5.055  0.00  0.00    +0.000 A 
ATOM     17  C   UNL     1       3.137   3.767   4.519  0.00  0.00    +0.000 A 
ENDBRANCH  11  12
ENDBRANCH   1  11
TORSDOF 4
