REMARK  Name = *****
REMARK  3 active torsions:
REMARK  status: ('A' for Active; 'I' for Inactive)
REMARK    1  A    between atoms: C_4  and  S_7
REMARK    2  A    between atoms: S_7  and  C_8
REMARK    3  A    between atoms: C_9  and  C_10
REMARK                            x       y       z     vdW  Elec       q    Type
REMARK                         _______ _______ _______ _____ _____    ______ ____
ROOT
ATOM      1  C   UNL     1      -0.650  -3.885   1.037  0.00  0.00    +0.000 C 
ATOM      2  C   UNL     1      -1.521  -4.423   1.666  0.00  0.00    +0.000 C 
ENDROOT
BRANCH   2   3
ATOM      3  C   UNL     1      -2.539  -5.136   2.374  0.00  0.00    +0.000 A 
ATOM      4  C   UNL     1      -2.431  -6.521   2.530  0.00  0.00    +0.000 A 
ATOM      5  C   UNL     1      -3.431  -7.232   3.198  0.00  0.00    +0.000 A 
ATOM      6  C   UNL     1      -4.539  -6.560   3.711  0.00  0.00    +0.000 A 
ATOM      7  C   UNL     1      -4.647  -5.177   3.561  0.00  0.00    +0.000 A 
ATOM      8  C   UNL     1      -3.648  -4.464   2.893  0.00  0.00    +0.000 A 
ENDBRANCH   2   3
BRANCH   1   9
ATOM      9  S   UNL     1       0.609  -3.255   0.102  0.00  0.00    +0.000 S 
BRANCH   9  13
ATOM     10  C   UNL     1      -0.342   1.274   0.334  0.00  0.00    +0.000 C 
ATOM     11  C   UNL     1      -1.398   0.369  -0.288  0.00  0.00    +0.000 C 
ATOM     12  C   UNL     1      -1.218  -1.085   0.165  0.00  0.00    +0.000 C 
ATOM     13  C   UNL     1       0.221  -1.552   0.126  0.00  0.00    +0.000 C 
ATOM     14  C   UNL     1       1.237  -0.676   0.009  0.00  0.00    +0.000 C 
ATOM     15  C   UNL     1       1.064   0.814  -0.045  0.00  0.00    +0.000 C 
ENDBRANCH   9  13
ENDBRANCH   1   9
TORSDOF 3
