REMARK  Name = *****
REMARK  4 active torsions:
REMARK  status: ('A' for Active; 'I' for Inactive)
REMARK    1  A    between atoms: C_2  and  C_3
REMARK    2  A    between atoms: C_2  and  O_9
REMARK    3  A    between atoms: O_9  and  C_10
REMARK    4  A    between atoms: C_10  and  C_12
REMARK                            x       y       z     vdW  Elec       q    Type
REMARK                         _______ _______ _______ _____ _____    ______ ____
ROOT
ATOM      1  O   UNL     1       3.231  -1.059  -0.195  0.00  0.00    +0.000 OA
ENDROOT
BRANCH   1   3
ATOM      2  C   UNL     1       1.124  -0.131   0.346  0.00  0.00    +0.000 C 
ATOM      3  C   UNL     1       2.445   0.044   0.208  0.00  0.00    +0.000 C 
BRANCH   3   4
ATOM      4  C   UNL     1       3.174   1.368   0.366  0.00  0.00    +0.000 C 
ATOM      5  C   UNL     1       2.878   2.056   1.711  0.00  0.00    +0.000 C 
ATOM      6  C   UNL     1       3.632   3.379   1.839  0.00  0.00    +0.000 C 
ATOM      7  C   UNL     1       3.332   4.311   0.670  0.00  0.00    +0.000 C 
ATOM      8  C   UNL     1       3.612   3.640  -0.671  0.00  0.00    +0.000 C 
ATOM      9  C   UNL     1       2.865   2.314  -0.808  0.00  0.00    +0.000 C 
ENDBRANCH   3   4
ENDBRANCH   1   3
BRANCH   1  10
ATOM     10  C   UNL     1       4.127  -1.510   0.734  0.00  0.00    +0.000 C 
ATOM     11  O   UNL     1       4.324  -1.060   1.853  0.00  0.00    +0.000 OA
BRANCH  10  12
ATOM     12  C   UNL     1       4.890  -2.663   0.179  0.00  0.00    +0.000 A 
ATOM     13  C   UNL     1       4.531  -3.301  -1.017  0.00  0.00    +0.000 A 
ATOM     14  C   UNL     1       5.282  -4.383  -1.486  0.00  0.00    +0.000 A 
ATOM     15  C   UNL     1       6.389  -4.831  -0.768  0.00  0.00    +0.000 A 
ATOM     16  C   UNL     1       6.750  -4.203   0.423  0.00  0.00    +0.000 A 
ATOM     17  C   UNL     1       6.002  -3.124   0.897  0.00  0.00    +0.000 A 
ENDBRANCH  10  12
ENDBRANCH   1  10
TORSDOF 4
