REMARK  Name = *****
REMARK  2 active torsions:
REMARK  status: ('A' for Active; 'I' for Inactive)
REMARK    1  A    between atoms: C_1  and  C_2
REMARK    2  A    between atoms: C_3  and  C_11
REMARK                            x       y       z     vdW  Elec       q    Type
REMARK                         _______ _______ _______ _____ _____    ______ ____
ROOT
ATOM      1  C   UNL     1       0.917   0.030  -0.019  0.00  0.00    +0.000 C 
ATOM      2  C   UNL     1       2.397  -0.098  -0.016  0.00  0.00    +0.000 C 
ATOM      3  C   UNL     1       3.173  -1.200  -0.023  0.00  0.00    +0.000 C 
ATOM      4  C   UNL     1       4.653  -0.888  -0.017  0.00  0.00    +0.000 C 
ATOM      5  C   UNL     1       4.623   0.611  -0.005  0.00  0.00    +0.000 A 
ATOM      6  C   UNL     1       5.687   1.497   0.004  0.00  0.00    +0.000 A 
ATOM      7  C   UNL     1       5.404   2.864   0.014  0.00  0.00    +0.000 A 
ATOM      8  C   UNL     1       4.075   3.320   0.014  0.00  0.00    +0.000 A 
ATOM      9  C   UNL     1       3.009   2.415   0.005  0.00  0.00    +0.000 A 
ATOM     10  C   UNL     1       3.294   1.059  -0.005  0.00  0.00    +0.000 A 
ENDROOT
BRANCH   3  11
ATOM     11  C   UNL     1       2.719  -2.584  -0.035  0.00  0.00    +0.000 A 
ATOM     12  C   UNL     1       2.499  -3.242  -1.250  0.00  0.00    +0.000 A 
ATOM     13  C   UNL     1       2.057  -4.567  -1.261  0.00  0.00    +0.000 A 
ATOM     14  C   UNL     1       1.830  -5.237  -0.059  0.00  0.00    +0.000 A 
ATOM     15  C   UNL     1       2.042  -4.584   1.154  0.00  0.00    +0.000 A 
ATOM     16  C   UNL     1       2.484  -3.260   1.167  0.00  0.00    +0.000 A 
ENDBRANCH   3  11
TORSDOF 1
