REMARK  Name = *****
REMARK  2 active torsions:
REMARK  status: ('A' for Active; 'I' for Inactive)
REMARK    1  A    between atoms: C_4  and  C_7
REMARK    2  A    between atoms: C_8  and  C_12
REMARK                            x       y       z     vdW  Elec       q    Type
REMARK                         _______ _______ _______ _____ _____    ______ ____
ROOT
ATOM      1  C   UNL     1      -2.865   0.456  -0.242  0.00  0.00    +0.000 C 
ATOM      2  C   UNL     1      -3.848  -0.084   0.805  0.00  0.00    +0.000 C 
ATOM      3  C   UNL     1      -3.793  -0.661  -0.565  0.00  0.00    +0.000 C 
ATOM      4  F   UNL     1      -4.812  -0.467  -1.470  0.00  0.00    +0.000 F 
ATOM      5  F   UNL     1      -3.336  -1.948  -0.749  0.00  0.00    +0.000 F 
ENDROOT
BRANCH   1   9
ATOM      6  C   UNL     1       1.394  -0.160   0.293  0.00  0.00    +0.000 A 
ATOM      7  C   UNL     1       0.760  -0.631  -0.852  0.00  0.00    +0.000 A 
ATOM      8  C   UNL     1      -0.613  -0.436  -1.022  0.00  0.00    +0.000 A 
ATOM      9  C   UNL     1      -1.385   0.226  -0.052  0.00  0.00    +0.000 A 
ATOM     10  C   UNL     1      -0.717   0.701   1.090  0.00  0.00    +0.000 A 
ATOM     11  C   UNL     1       0.656   0.509   1.265  0.00  0.00    +0.000 A 
ENDBRANCH   1   9
BRANCH   2  12
ATOM     12  C   UNL     1      -4.998   0.785   1.252  0.00  0.00    +0.000 A 
ATOM     13  C   UNL     1      -6.331   0.358   1.134  0.00  0.00    +0.000 A 
ATOM     14  C   UNL     1      -7.394   1.155   1.565  0.00  0.00    +0.000 A 
ATOM     15  C   UNL     1      -7.144   2.400   2.134  0.00  0.00    +0.000 A 
ATOM     16  C   UNL     1      -5.833   2.845   2.273  0.00  0.00    +0.000 A 
ATOM     17  C   UNL     1      -4.774   2.043   1.839  0.00  0.00    +0.000 A 
ENDBRANCH   2  12
TORSDOF 2
