REMARK  Name = *****
REMARK  3 active torsions:
REMARK  status: ('A' for Active; 'I' for Inactive)
REMARK    1  A    between atoms: C_6  and  C_7
REMARK    2  A    between atoms: N_8  and  C_9
REMARK    3  A    between atoms: C_12  and  S_15
REMARK                            x       y       z     vdW  Elec       q    Type
REMARK                         _______ _______ _______ _____ _____    ______ ____
ROOT
ATOM      1  C   UNL     1       3.946   0.215   0.226  0.00  0.00    +0.000 C 
ATOM      2  N   UNL     1       4.650   1.162  -0.309  0.00  0.00    +0.000 NA
ENDROOT
BRANCH   1   8
ATOM      3  C   UNL     1       1.781  -0.891   0.686  0.00  0.00    +0.000 A 
ATOM      4  C   UNL     1       0.390  -0.957   0.566  0.00  0.00    +0.000 A 
ATOM      5  C   UNL     1      -0.294   0.030  -0.146  0.00  0.00    +0.000 A 
ATOM      6  C   UNL     1       0.400   1.083  -0.741  0.00  0.00    +0.000 A 
ATOM      7  C   UNL     1       1.790   1.151  -0.624  0.00  0.00    +0.000 A 
ATOM      8  C   UNL     1       2.478   0.164   0.089  0.00  0.00    +0.000 A 
ATOM      9 CL   UNL     1      -2.006  -0.055  -0.290  0.00  0.00    +0.000 Cl
ENDBRANCH   1   8
BRANCH   2  10
ATOM     10  C   UNL     1       6.033   1.090  -0.100  0.00  0.00    +0.000 A 
ATOM     11  C   UNL     1       6.851   0.431  -1.020  0.00  0.00    +0.000 A 
ATOM     12  C   UNL     1       8.234   0.368  -0.822  0.00  0.00    +0.000 A 
ATOM     13  C   UNL     1       8.811   0.972   0.298  0.00  0.00    +0.000 A 
ATOM     14  C   UNL     1       7.996   1.652   1.208  0.00  0.00    +0.000 A 
ATOM     15  C   UNL     1       6.614   1.712   1.006  0.00  0.00    +0.000 A 
BRANCH  13  16
ATOM     16  S   UNL     1      10.569   0.914   0.563  0.00  0.00    +0.000 S 
ATOM     17  H   UNL     1      11.155   0.205  -0.439  0.00  0.00    +0.000 HD
ENDBRANCH  13  16
ENDBRANCH   2  10
TORSDOF 3
