REMARK  Name = *****
REMARK  6 active torsions:
REMARK  status: ('A' for Active; 'I' for Inactive)
REMARK    1  A    between atoms: C_1  and  C_2
REMARK    2  A    between atoms: C_5  and  C_8
REMARK    3  A    between atoms: C_8  and  S_9
REMARK    4  A    between atoms: C_8  and  N_11
REMARK    5  A    between atoms: N_11  and  C_12
REMARK    6  A    between atoms: N_11  and  C_13
REMARK                            x       y       z     vdW  Elec       q    Type
REMARK                         _______ _______ _______ _____ _____    ______ ____
ROOT
ATOM      1  C   UNL     1      -3.337   0.041  -0.141  0.00  0.00    +0.000 C 
ENDROOT
BRANCH   1   6
ATOM      2  C   UNL     1       2.382  -0.009   0.863  0.00  0.00    +0.000 C 
ATOM      3  C   UNL     1       0.903  -0.024   0.613  0.00  0.00    +0.000 A 
ATOM      4  C   UNL     1       0.367  -0.789  -0.430  0.00  0.00    +0.000 A 
ATOM      5  C   UNL     1      -1.007  -0.783  -0.682  0.00  0.00    +0.000 A 
ATOM      6  C   UNL     1      -1.864  -0.001   0.102  0.00  0.00    +0.000 A 
ATOM      7  C   UNL     1      -1.328   0.773   1.140  0.00  0.00    +0.000 A 
ATOM      8  C   UNL     1       0.047   0.767   1.387  0.00  0.00    +0.000 A 
ENDBRANCH   1   6
BRANCH   1   9
ATOM      9  S   UNL     1      -4.178  -1.369  -0.345  0.00  0.00    +0.000 S 
ATOM     10  O   UNL     1      -3.374  -2.622  -0.302  0.00  0.00    +0.000 OA
ENDBRANCH   1   9
BRANCH   1  11
ATOM     11  N   UNL     1      -4.001   1.289  -0.115  0.00  0.00    +0.000 N 
ATOM     12  C   UNL     1      -5.343   1.406   0.472  0.00  0.00    +0.000 C 
BRANCH  11  13
ATOM     13  C   UNL     1      -3.441   2.482  -0.705  0.00  0.00    +0.000 A 
ATOM     14  C   UNL     1      -2.483   2.406  -1.728  0.00  0.00    +0.000 A 
ATOM     15  C   UNL     1      -1.952   3.560  -2.315  0.00  0.00    +0.000 A 
ATOM     16  C   UNL     1      -2.379   4.815  -1.900  0.00  0.00    +0.000 A 
ATOM     17  C   UNL     1      -3.345   4.916  -0.905  0.00  0.00    +0.000 A 
ATOM     18  C   UNL     1      -3.876   3.761  -0.319  0.00  0.00    +0.000 A 
ENDBRANCH  11  13
ENDBRANCH   1  11
TORSDOF 4
