REMARK  Name = *****
REMARK  5 active torsions:
REMARK  status: ('A' for Active; 'I' for Inactive)
REMARK    1  A    between atoms: C_1  and  C_2
REMARK    2  A    between atoms: C_7  and  C_8
REMARK    3  A    between atoms: C_8  and  C_9
REMARK    4  A    between atoms: C_9  and  O_11
REMARK    5  A    between atoms: O_11  and  C_12
REMARK                            x       y       z     vdW  Elec       q    Type
REMARK                         _______ _______ _______ _____ _____    ______ ____
ROOT
ATOM      1  C   UNL     1       1.953  -3.223   0.024  0.00  0.00    +0.000 C 
ATOM      2  O   UNL     1       2.973  -3.253   0.703  0.00  0.00    +0.000 OA
ENDROOT
BRANCH   1   3
ATOM      3  C   UNL     1       0.630  -2.677   0.509  0.00  0.00    +0.000 C 
BRANCH   3  10
ATOM      4  C   UNL     1      -1.205  -1.857  -1.760  0.00  0.00    +0.000 C 
ATOM      5  C   UNL     1      -0.433  -0.853  -0.949  0.00  0.00    +0.000 A 
ATOM      6  C   UNL     1      -0.571   0.511  -1.256  0.00  0.00    +0.000 A 
ATOM      7  C   UNL     1       0.121   1.484  -0.534  0.00  0.00    +0.000 A 
ATOM      8  C   UNL     1       0.962   1.108   0.507  0.00  0.00    +0.000 A 
ATOM      9  C   UNL     1       1.108  -0.241   0.827  0.00  0.00    +0.000 A 
ATOM     10  C   UNL     1       0.413  -1.235   0.114  0.00  0.00    +0.000 A 
ENDBRANCH   3  10
ENDBRANCH   1   3
BRANCH   1  11
ATOM     11  O   UNL     1       1.812  -3.662  -1.289  0.00  0.00    +0.000 OA
BRANCH  11  12
ATOM     12  C   UNL     1       2.982  -4.165  -1.864  0.00  0.00    +0.000 A 
ATOM     13  C   UNL     1       3.489  -5.403  -1.473  0.00  0.00    +0.000 A 
ATOM     14  C   UNL     1       4.625  -5.903  -2.109  0.00  0.00    +0.000 A 
ATOM     15  C   UNL     1       5.230  -5.174  -3.135  0.00  0.00    +0.000 A 
ATOM     16  C   UNL     1       4.699  -3.944  -3.531  0.00  0.00    +0.000 A 
ATOM     17  C   UNL     1       3.565  -3.438  -2.899  0.00  0.00    +0.000 A 
ENDBRANCH  11  12
ENDBRANCH   1  11
TORSDOF 4
