REMARK  Name = *****
REMARK  4 active torsions:
REMARK  status: ('A' for Active; 'I' for Inactive)
REMARK    1  A    between atoms: C_3  and  C_7
REMARK    2  A    between atoms: C_7  and  O_8
REMARK    3  A    between atoms: O_8  and  C_9
REMARK    4  A    between atoms: C_9  and  C_10
REMARK                            x       y       z     vdW  Elec       q    Type
REMARK                         _______ _______ _______ _____ _____    ______ ____
ROOT
ATOM      1  O   UNL     1      -1.601   1.887  -2.202  0.00  0.00    +0.000 OA
ENDROOT
BRANCH   1   2
ATOM      2  C   UNL     1      -1.405   0.529  -1.810  0.00  0.00    +0.000 C 
BRANCH   2   5
ATOM      3  C   UNL     1       1.251   0.767  -0.174  0.00  0.00    +0.000 C 
ATOM      4  C   UNL     1      -0.116   1.311   0.255  0.00  0.00    +0.000 C 
ATOM      5  C   UNL     1      -1.282   0.460  -0.279  0.00  0.00    +0.000 C 
ATOM      6  C   UNL     1      -1.130  -0.996   0.199  0.00  0.00    +0.000 C 
ATOM      7  C   UNL     1       0.273  -1.522   0.086  0.00  0.00    +0.000 C 
ATOM      8  C   UNL     1       1.340  -0.730  -0.095  0.00  0.00    +0.000 C 
ENDBRANCH   2   5
ENDBRANCH   1   2
BRANCH   1   9
ATOM      9  C   UNL     1      -1.711   2.018  -3.619  0.00  0.00    +0.000 C 
BRANCH   9  10
ATOM     10  C   UNL     1      -1.865   3.472  -3.993  0.00  0.00    +0.000 A 
ATOM     11  C   UNL     1      -1.112   4.466  -3.352  0.00  0.00    +0.000 A 
ATOM     12  C   UNL     1      -1.228   5.804  -3.731  0.00  0.00    +0.000 A 
ATOM     13  C   UNL     1      -2.092   6.163  -4.764  0.00  0.00    +0.000 A 
ATOM     14  C   UNL     1      -2.837   5.185  -5.419  0.00  0.00    +0.000 A 
ATOM     15  C   UNL     1      -2.721   3.845  -5.039  0.00  0.00    +0.000 A 
ENDBRANCH   9  10
ENDBRANCH   1   9
TORSDOF 4
