REMARK  Name = *****
REMARK  1 active torsions:
REMARK  status: ('A' for Active; 'I' for Inactive)
REMARK    1  A    between atoms: C_6  and  C_12
REMARK                            x       y       z     vdW  Elec       q    Type
REMARK                         _______ _______ _______ _____ _____    ______ ____
ROOT
ATOM      1  C   UNL     1       2.705   3.809  -1.042  0.00  0.00    +0.000 C 
ATOM      2  C   UNL     1       2.322   2.812  -2.128  0.00  0.00    +0.000 C 
ATOM      3  C   UNL     1       1.261   1.796  -1.709  0.00  0.00    +0.000 C 
ATOM      4  C   UNL     1      -0.168   2.342  -1.796  0.00  0.00    +0.000 C 
ATOM      5  C   UNL     1      -1.157   1.220  -1.628  0.00  0.00    +0.000 C 
ATOM      6  C   UNL     1      -1.983   1.312  -0.576  0.00  0.00    +0.000 C 
ATOM      7  C   UNL     1      -1.628   2.601   0.069  0.00  0.00    +0.000 C 
ATOM      8  O   UNL     1      -2.130   3.013   1.106  0.00  0.00    +0.000 OA
ATOM      9  C   UNL     1      -0.596   3.365  -0.735  0.00  0.00    +0.000 C 
ATOM     10  C   UNL     1       0.472   3.960   0.176  0.00  0.00    +0.000 C 
ATOM     11  C   UNL     1       1.569   4.709  -0.574  0.00  0.00    +0.000 C 
ENDROOT
BRANCH   6  12
ATOM     12  C   UNL     1      -3.027   0.367  -0.172  0.00  0.00    +0.000 A 
ATOM     13  C   UNL     1      -2.909  -1.004  -0.453  0.00  0.00    +0.000 A 
ATOM     14  C   UNL     1      -3.905  -1.908  -0.069  0.00  0.00    +0.000 A 
ATOM     15  C   UNL     1      -5.034  -1.455   0.607  0.00  0.00    +0.000 A 
ATOM     16  C   UNL     1      -5.166  -0.101   0.901  0.00  0.00    +0.000 A 
ATOM     17  C   UNL     1      -4.170   0.801   0.515  0.00  0.00    +0.000 A 
ENDBRANCH   6  12
TORSDOF 1
