REMARK  Name = *****
REMARK  6 active torsions:
REMARK  status: ('A' for Active; 'I' for Inactive)
REMARK    1  A    between atoms: C_1  and  C_2
REMARK    2  A    between atoms: C_4  and  C_8
REMARK    3  A    between atoms: C_8  and  C_9
REMARK    4  A    between atoms: C_9  and  C_10
REMARK    5  A    between atoms: C_9  and  C_12
REMARK    6  A    between atoms: C_17  and  C_18
REMARK                            x       y       z     vdW  Elec       q    Type
REMARK                         _______ _______ _______ _____ _____    ______ ____
ROOT
ATOM      1  C   UNL     1      -0.688   3.560   0.000  0.00  0.00    +0.000 C 
ENDROOT
BRANCH   1   2
ATOM      2  C   UNL     1       0.762   3.454   0.497  0.00  0.00    +0.000 A 
ATOM      3  C   UNL     1       1.375   2.200   0.698  0.00  0.00    +0.000 A 
ATOM      4  C   UNL     1       2.694   2.089   1.146  0.00  0.00    +0.000 A 
ATOM      5  C   UNL     1       3.435   3.230   1.415  0.00  0.00    +0.000 A 
ATOM      6  C   UNL     1       2.851   4.482   1.251  0.00  0.00    +0.000 A 
ATOM      7  C   UNL     1       1.518   4.614   0.816  0.00  0.00    +0.000 A 
ATOM      8  C   UNL     1       0.980   6.016   0.676  0.00  0.00    +0.000 C 
ENDBRANCH   1   2
BRANCH   1   9
ATOM      9  C   UNL     1      -0.828   4.341  -1.251  0.00  0.00    +0.000 C 
ATOM     10  N   UNL     1      -0.955   4.973  -2.217  0.00  0.00    +0.000 NA
ENDBRANCH   1   9
BRANCH   1  11
ATOM     11  C   UNL     1      -1.533   2.260  -0.093  0.00  0.00    +0.000 C 
BRANCH  11  15
ATOM     12  C   UNL     1       0.959   0.385  -4.138  0.00  0.00    +0.000 C 
ATOM     13  C   UNL     1      -0.133   0.286  -3.113  0.00  0.00    +0.000 A 
ATOM     14  C   UNL     1      -0.293   1.297  -2.151  0.00  0.00    +0.000 A 
ATOM     15  C   UNL     1      -1.286   1.211  -1.165  0.00  0.00    +0.000 A 
ATOM     16  C   UNL     1      -2.115   0.076  -1.158  0.00  0.00    +0.000 A 
ATOM     17  C   UNL     1      -1.953  -0.941  -2.100  0.00  0.00    +0.000 A 
ATOM     18  C   UNL     1      -0.962  -0.839  -3.071  0.00  0.00    +0.000 A 
ENDBRANCH  11  15
ENDBRANCH   1  11
TORSDOF 4
