REMARK  Name = *****
REMARK  5 active torsions:
REMARK  status: ('A' for Active; 'I' for Inactive)
REMARK    1  A    between atoms: C_1  and  C_2
REMARK    2  A    between atoms: C_5  and  C_8
REMARK    3  A    between atoms: C_8  and  C_9
REMARK    4  A    between atoms: C_9  and  C_10
REMARK    5  A    between atoms: C_13  and  C_16
REMARK                            x       y       z     vdW  Elec       q    Type
REMARK                         _______ _______ _______ _____ _____    ______ ____
ROOT
ATOM      1  C   UNL     1      -2.898   0.357  -0.588  0.00  0.00    +0.000 C 
ENDROOT
BRANCH   1   6
ATOM      2  C   UNL     1       2.428   0.007   1.746  0.00  0.00    +0.000 C 
ATOM      3  C   UNL     1       1.054   0.120   1.156  0.00  0.00    +0.000 A 
ATOM      4  C   UNL     1      -0.057  -0.379   1.844  0.00  0.00    +0.000 A 
ATOM      5  C   UNL     1      -1.333  -0.305   1.281  0.00  0.00    +0.000 A 
ATOM      6  C   UNL     1      -1.517   0.257   0.012  0.00  0.00    +0.000 A 
ATOM      7  C   UNL     1      -0.404   0.748  -0.681  0.00  0.00    +0.000 A 
ATOM      8  C   UNL     1       0.872   0.672  -0.117  0.00  0.00    +0.000 A 
ENDBRANCH   1   6
BRANCH   1   9
ATOM      9  C   UNL     1      -3.614   1.636  -0.145  0.00  0.00    +0.000 C 
BRANCH   9  10
ATOM     10  C   UNL     1      -4.986   1.746  -0.761  0.00  0.00    +0.000 A 
ATOM     11  C   UNL     1      -6.091   1.141  -0.149  0.00  0.00    +0.000 A 
ATOM     12  C   UNL     1      -7.358   1.226  -0.731  0.00  0.00    +0.000 A 
ATOM     13  C   UNL     1      -7.540   1.906  -1.940  0.00  0.00    +0.000 A 
ATOM     14  C   UNL     1      -6.439   2.519  -2.547  0.00  0.00    +0.000 A 
ATOM     15  C   UNL     1      -5.171   2.434  -1.967  0.00  0.00    +0.000 A 
ATOM     16  C   UNL     1      -8.907   2.027  -2.545  0.00  0.00    +0.000 C 
ENDBRANCH   9  10
ENDBRANCH   1   9
TORSDOF 3
