REMARK  Name = *****
REMARK  2 active torsions:
REMARK  status: ('A' for Active; 'I' for Inactive)
REMARK    1  A    between atoms: C_5  and  C_7
REMARK    2  A    between atoms: C_8  and  C_9
REMARK                            x       y       z     vdW  Elec       q    Type
REMARK                         _______ _______ _______ _____ _____    ______ ____
ROOT
ATOM      1  C   UNL     1      -1.183  -2.518   0.094  0.00  0.00    +0.000 C 
ATOM      2  C   UNL     1      -0.599  -3.720  -0.045  0.00  0.00    +0.000 C 
ENDROOT
BRANCH   2   3
ATOM      3  C   UNL     1      -1.334  -4.992   0.051  0.00  0.00    +0.000 A 
ATOM      4  C   UNL     1      -0.887  -6.056   0.857  0.00  0.00    +0.000 A 
ATOM      5  C   UNL     1      -1.593  -7.262   0.904  0.00  0.00    +0.000 A 
ATOM      6  C   UNL     1      -2.744  -7.418   0.139  0.00  0.00    +0.000 A 
ATOM      7  C   UNL     1      -3.197  -6.384  -0.676  0.00  0.00    +0.000 A 
ATOM      8  C   UNL     1      -2.492  -5.179  -0.723  0.00  0.00    +0.000 A 
ATOM      9 CL   UNL     1      -3.614  -8.902   0.194  0.00  0.00    +0.000 Cl
ATOM     10 CL   UNL     1       0.531  -5.928   1.842  0.00  0.00    +0.000 Cl
ENDBRANCH   2   3
BRANCH   1  15
ATOM     11  C   UNL     1      -0.419   1.154   0.120  0.00  0.00    +0.000 A 
ATOM     12  C   UNL     1       0.939   1.117  -0.170  0.00  0.00    +0.000 A 
ATOM     13  C   UNL     1       1.531  -0.119  -0.360  0.00  0.00    +0.000 A 
ATOM     14  N   UNL     1       0.865  -1.292  -0.280  0.00  0.00    +0.000 NA
ATOM     15  C   UNL     1      -0.457  -1.242   0.007  0.00  0.00    +0.000 A 
ATOM     16  C   UNL     1      -1.130  -0.040   0.210  0.00  0.00    +0.000 A 
ENDBRANCH   1  15
TORSDOF 2
