REMARK  Name = *****
REMARK  1 active torsions:
REMARK  status: ('A' for Active; 'I' for Inactive)
REMARK    1  A    between atoms: N_8  and  C_9
REMARK                            x       y       z     vdW  Elec       q    Type
REMARK                         _______ _______ _______ _____ _____    ______ ____
ROOT
ATOM      1  C   UNL     1       1.343   1.108   0.091  0.00  0.00    +0.000 C 
ATOM      2  C   UNL     1      -0.049   0.573   0.039  0.00  0.00    +0.000 A 
ATOM      3  C   UNL     1      -0.088  -0.781  -0.155  0.00  0.00    +0.000 A 
ATOM      4  S   UNL     1      -1.638  -1.416  -0.219  0.00  0.00    +0.000 S 
ATOM      5  C   UNL     1      -2.314   0.157   0.019  0.00  0.00    +0.000 A 
ATOM      6  C   UNL     1      -1.343   1.137   0.142  0.00  0.00    +0.000 A 
ATOM      7  S   UNL     1       1.485  -1.528  -0.290  0.00  0.00    +0.000 S 
ATOM      8  N   UNL     1       2.280  -0.032  -0.089  0.00  0.00    +0.000 N 
ENDROOT
BRANCH   8   9
ATOM      9  C   UNL     1       3.671   0.142  -0.103  0.00  0.00    +0.000 A 
ATOM     10  C   UNL     1       4.563  -0.931  -0.288  0.00  0.00    +0.000 A 
ATOM     11  C   UNL     1       5.952  -0.752  -0.302  0.00  0.00    +0.000 A 
ATOM     12  C   UNL     1       6.494   0.514  -0.129  0.00  0.00    +0.000 A 
ATOM     13  C   UNL     1       5.646   1.598   0.058  0.00  0.00    +0.000 A 
ATOM     14  C   UNL     1       4.257   1.411   0.070  0.00  0.00    +0.000 A 
ENDBRANCH   8   9
TORSDOF 1
