REMARK  Name = *****
REMARK  7 active torsions:
REMARK  status: ('A' for Active; 'I' for Inactive)
REMARK    1  A    between atoms: C_1  and  C_2
REMARK    2  A    between atoms: C_5  and  C_8
REMARK    3  A    between atoms: C_9  and  C_10
REMARK    4  A    between atoms: C_12  and  O_18
REMARK    5  A    between atoms: C_14  and  O_16
REMARK    6  A    between atoms: O_16  and  C_17
REMARK    7  A    between atoms: O_18  and  C_19
REMARK                            x       y       z     vdW  Elec       q    Type
REMARK                         _______ _______ _______ _____ _____    ______ ____
ROOT
ATOM      1  C   UNL     1      -5.514   1.076  -0.085  0.00  0.00    +0.000 A 
ATOM      2  C   UNL     1      -6.228  -0.127   0.005  0.00  0.00    +0.000 A 
ATOM      3  C   UNL     1      -7.625  -0.123   0.001  0.00  0.00    +0.000 A 
ATOM      4  C   UNL     1      -8.314   1.092  -0.079  0.00  0.00    +0.000 A 
ATOM      5  C   UNL     1      -7.619   2.298  -0.151  0.00  0.00    +0.000 A 
ATOM      6  C   UNL     1      -6.222   2.282  -0.149  0.00  0.00    +0.000 A 
ENDROOT
BRANCH   1   8
ATOM      7  C   UNL     1      -3.256   0.225  -0.673  0.00  0.00    +0.000 C 
ATOM      8  C   UNL     1      -4.044   1.118  -0.052  0.00  0.00    +0.000 C 
BRANCH   7  13
ATOM      9  C   UNL     1       2.535   0.257  -0.677  0.00  0.00    +0.000 C 
ATOM     10  C   UNL     1       1.036   0.285  -0.676  0.00  0.00    +0.000 A 
ATOM     11  C   UNL     1       0.333   0.652   0.476  0.00  0.00    +0.000 A 
ATOM     12  C   UNL     1      -1.066   0.647   0.487  0.00  0.00    +0.000 A 
ATOM     13  C   UNL     1      -1.787   0.276  -0.654  0.00  0.00    +0.000 A 
ATOM     14  C   UNL     1      -1.081  -0.121  -1.795  0.00  0.00    +0.000 A 
ATOM     15  C   UNL     1       0.318  -0.117  -1.807  0.00  0.00    +0.000 A 
ENDBRANCH   7  13
ENDBRANCH   1   8
BRANCH   5  16
ATOM     16  O   UNL     1      -8.176   3.546  -0.224  0.00  0.00    +0.000 OA
ATOM     17  C   UNL     1      -9.596   3.615  -0.224  0.00  0.00    +0.000 C 
ENDBRANCH   5  16
BRANCH   3  18
ATOM     18  O   UNL     1      -8.431  -1.228   0.077  0.00  0.00    +0.000 OA
ATOM     19  C   UNL     1      -7.786  -2.494   0.143  0.00  0.00    +0.000 C 
ENDBRANCH   3  18
TORSDOF 4
