REMARK  Name = *****
REMARK  4 active torsions:
REMARK  status: ('A' for Active; 'I' for Inactive)
REMARK    1  A    between atoms: C_1  and  N_2
REMARK    2  A    between atoms: N_2  and  C_3
REMARK    3  A    between atoms: N_2  and  C_10
REMARK    4  A    between atoms: C_10  and  C_12
REMARK                            x       y       z     vdW  Elec       q    Type
REMARK                         _______ _______ _______ _____ _____    ______ ____
ROOT
ATOM      1  C   UNL     1       1.188  -0.234   0.857  0.00  0.00    +0.000 C 
ATOM      2  N   UNL     1       2.499   0.033   0.254  0.00  0.00    +0.000 N 
ENDROOT
BRANCH   2   3
ATOM      3  C   UNL     1       3.239  -1.148  -0.023  0.00  0.00    +0.000 A 
ATOM      4  C   UNL     1       2.661  -2.229  -0.711  0.00  0.00    +0.000 A 
ATOM      5  C   UNL     1       3.398  -3.386  -0.984  0.00  0.00    +0.000 A 
ATOM      6  C   UNL     1       4.723  -3.476  -0.568  0.00  0.00    +0.000 A 
ATOM      7  C   UNL     1       5.317  -2.422   0.119  0.00  0.00    +0.000 A 
ATOM      8  C   UNL     1       4.576  -1.267   0.389  0.00  0.00    +0.000 A 
ATOM      9 CL   UNL     1       5.630  -4.899  -0.904  0.00  0.00    +0.000 Cl
ENDBRANCH   2   3
BRANCH   2  10
ATOM     10  C   UNL     1       2.908   1.321  -0.124  0.00  0.00    +0.000 C 
ATOM     11  C   UNL     1       2.320   2.471   0.255  0.00  0.00    +0.000 C 
BRANCH  10  12
ATOM     12  C   UNL     1       4.024   1.487  -1.092  0.00  0.00    +0.000 A 
ATOM     13  C   UNL     1       5.227   2.099  -0.708  0.00  0.00    +0.000 A 
ATOM     14  C   UNL     1       6.266   2.259  -1.627  0.00  0.00    +0.000 A 
ATOM     15  C   UNL     1       6.111   1.814  -2.940  0.00  0.00    +0.000 A 
ATOM     16  C   UNL     1       4.918   1.211  -3.335  0.00  0.00    +0.000 A 
ATOM     17  C   UNL     1       3.878   1.050  -2.417  0.00  0.00    +0.000 A 
ENDBRANCH  10  12
ENDBRANCH   2  10
TORSDOF 3
