REMARK  Name = *****
REMARK  4 active torsions:
REMARK  status: ('A' for Active; 'I' for Inactive)
REMARK    1  A    between atoms: C_4  and  C_7
REMARK    2  A    between atoms: C_7  and  O_8
REMARK    3  A    between atoms: O_8  and  C_9
REMARK    4  A    between atoms: C_14  and  C_15
REMARK                            x       y       z     vdW  Elec       q    Type
REMARK                         _______ _______ _______ _____ _____    ______ ____
ROOT
ATOM      1  C   UNL     1      -4.908  -0.639  -0.505  0.00  0.00    +0.000 A 
ATOM      2  C   UNL     1      -5.658   0.543  -0.542  0.00  0.00    +0.000 A 
ATOM      3  C   UNL     1      -7.041   0.506  -0.745  0.00  0.00    +0.000 A 
ATOM      4  C   UNL     1      -7.694  -0.710  -0.922  0.00  0.00    +0.000 A 
ATOM      5  C   UNL     1      -6.964  -1.895  -0.881  0.00  0.00    +0.000 A 
ATOM      6  C   UNL     1      -5.576  -1.866  -0.657  0.00  0.00    +0.000 A 
ENDROOT
BRANCH   6   7
ATOM      7  C   UNL     1      -4.870  -3.176  -0.598  0.00  0.00    +0.000 C 
ATOM      8  O   UNL     1      -5.214  -4.023  -1.424  0.00  0.00    +0.000 OA
ATOM      9 CL   UNL     1      -3.713  -3.480   0.678  0.00  0.00    +0.000 Cl
ENDBRANCH   6   7
BRANCH   1  10
ATOM     10  O   UNL     1      -3.548  -0.684  -0.371  0.00  0.00    +0.000 OA
BRANCH  10  11
ATOM     11  C   UNL     1      -2.842   0.546  -0.215  0.00  0.00    +0.000 C 
BRANCH  11  15
ATOM     12  C   UNL     1       1.360  -0.335   0.224  0.00  0.00    +0.000 A 
ATOM     13  C   UNL     1       0.918   0.427  -0.857  0.00  0.00    +0.000 A 
ATOM     14  C   UNL     1      -0.441   0.712  -1.003  0.00  0.00    +0.000 A 
ATOM     15  C   UNL     1      -1.372   0.237  -0.069  0.00  0.00    +0.000 A 
ATOM     16  C   UNL     1      -0.914  -0.529   1.014  0.00  0.00    +0.000 A 
ATOM     17  C   UNL     1       0.444  -0.813   1.158  0.00  0.00    +0.000 A 
ENDBRANCH  11  15
ENDBRANCH  10  11
ENDBRANCH   1  10
TORSDOF 4
