REMARK  Name = *****
REMARK  1 active torsions:
REMARK  status: ('A' for Active; 'I' for Inactive)
REMARK    1  A    between atoms: C_9  and  C_11
REMARK                            x       y       z     vdW  Elec       q    Type
REMARK                         _______ _______ _______ _____ _____    ______ ____
ROOT
ATOM      1  C   UNL     1      -2.105  -0.667  -0.023  0.00  0.00    +0.000 A 
ATOM      2  C   UNL     1      -0.918  -1.416  -0.029  0.00  0.00    +0.000 A 
ATOM      3  C   UNL     1       0.303  -0.727  -0.006  0.00  0.00    +0.000 A 
ATOM      4  C   UNL     1       0.297   0.658   0.022  0.00  0.00    +0.000 A 
ATOM      5  C   UNL     1      -0.860   1.427   0.028  0.00  0.00    +0.000 A 
ATOM      6  C   UNL     1      -2.075   0.733   0.005  0.00  0.00    +0.000 A 
ATOM      7 CL   UNL     1      -0.815   3.139   0.063  0.00  0.00    +0.000 Cl
ATOM      8  O   UNL     1       1.598   1.076   0.040  0.00  0.00    +0.000 OA
ATOM      9  C   UNL     1       2.324  -0.087   0.024  0.00  0.00    +0.000 A 
ATOM     10  N   UNL     1       1.595  -1.189  -0.004  0.00  0.00    +0.000 NA
ENDROOT
BRANCH   9  11
ATOM     11  C   UNL     1       3.777   0.048   0.041  0.00  0.00    +0.000 A 
ATOM     12  C   UNL     1       4.407   1.301   0.062  0.00  0.00    +0.000 A 
ATOM     13  C   UNL     1       5.798   1.385   0.078  0.00  0.00    +0.000 A 
ATOM     14  C   UNL     1       6.588   0.246   0.075  0.00  0.00    +0.000 A 
ATOM     15  C   UNL     1       5.967  -0.993   0.054  0.00  0.00    +0.000 A 
ATOM     16  C   UNL     1       4.579  -1.104   0.037  0.00  0.00    +0.000 A 
ATOM     17  F   UNL     1       6.715  -2.104   0.051  0.00  0.00    +0.000 F 
ATOM     18  F   UNL     1       6.381   2.590   0.098  0.00  0.00    +0.000 F 
ENDBRANCH   9  11
TORSDOF 1
