REMARK  Name = *****
REMARK  3 active torsions:
REMARK  status: ('A' for Active; 'I' for Inactive)
REMARK    1  A    between atoms: N_4  and  C_7
REMARK    2  A    between atoms: C_7  and  C_9
REMARK    3  A    between atoms: C_9  and  C_10
REMARK                            x       y       z     vdW  Elec       q    Type
REMARK                         _______ _______ _______ _____ _____    ______ ____
ROOT
ATOM      1  C   UNL     1       2.680   0.389   0.950  0.00  0.00    +0.000 C 
ATOM      2  S   UNL     1       3.353   1.944   1.008  0.00  0.00    +0.000 S 
ENDROOT
BRANCH   1   6
ATOM      3  C   UNL     1      -1.338  -0.488  -0.438  0.00  0.00    +0.000 C 
ATOM      4  C   UNL     1      -0.893   0.930  -0.116  0.00  0.00    +0.000 C 
ATOM      5  C   UNL     1       0.613   1.095  -0.292  0.00  0.00    +0.000 C 
ATOM      6  N   UNL     1       1.394   0.090   0.456  0.00  0.00    +0.000 N 
ATOM      7  C   UNL     1       0.950  -1.297   0.241  0.00  0.00    +0.000 C 
ATOM      8  C   UNL     1      -0.556  -1.476   0.414  0.00  0.00    +0.000 C 
ENDBRANCH   1   6
BRANCH   1   9
ATOM      9  C   UNL     1       3.532  -0.750   1.538  0.00  0.00    +0.000 C 
BRANCH   9  10
ATOM     10  C   UNL     1       4.120  -1.713   0.521  0.00  0.00    +0.000 A 
ATOM     11  C   UNL     1       4.657  -1.271  -0.697  0.00  0.00    +0.000 A 
ATOM     12  C   UNL     1       5.216  -2.179  -1.601  0.00  0.00    +0.000 A 
ATOM     13  C   UNL     1       5.258  -3.534  -1.286  0.00  0.00    +0.000 A 
ATOM     14  C   UNL     1       4.752  -3.989  -0.072  0.00  0.00    +0.000 A 
ATOM     15  C   UNL     1       4.193  -3.081   0.831  0.00  0.00    +0.000 A 
ATOM     16 CL   UNL     1       5.945  -4.652  -2.399  0.00  0.00    +0.000 Cl
ENDBRANCH   9  10
ENDBRANCH   1   9
TORSDOF 3
