REMARK  Name = *****
REMARK  2 active torsions:
REMARK  status: ('A' for Active; 'I' for Inactive)
REMARK    1  A    between atoms: C_5  and  C_6
REMARK    2  A    between atoms: C_6  and  C_8
REMARK                            x       y       z     vdW  Elec       q    Type
REMARK                         _______ _______ _______ _____ _____    ______ ____
ROOT
ATOM      1  C   UNL     1      -1.462   3.071   0.211  0.00  0.00    +0.000 C 
ATOM      2  O   UNL     1      -2.505   2.624   0.672  0.00  0.00    +0.000 OA
ENDROOT
BRANCH   1   3
ATOM      3  C   UNL     1      -1.364   4.513  -0.153  0.00  0.00    +0.000 A 
ATOM      4  C   UNL     1      -0.381   5.004  -1.024  0.00  0.00    +0.000 A 
ATOM      5  C   UNL     1      -0.338   6.368  -1.334  0.00  0.00    +0.000 A 
ATOM      6  C   UNL     1      -1.277   7.239  -0.783  0.00  0.00    +0.000 A 
ATOM      7  C   UNL     1      -2.267   6.759   0.072  0.00  0.00    +0.000 A 
ATOM      8  C   UNL     1      -2.313   5.397   0.383  0.00  0.00    +0.000 A 
ATOM      9 CL   UNL     1      -1.217   8.914  -1.167  0.00  0.00    +0.000 Cl
ENDBRANCH   1   3
BRANCH   1  14
ATOM     10  C   UNL     1       0.686  -1.512  -0.521  0.00  0.00    +0.000 C 
ATOM     11  C   UNL     1      -0.542  -1.394  -1.406  0.00  0.00    +0.000 C 
ATOM     12  S   UNL     1      -1.522   0.015  -0.811  0.00  0.00    +0.000 S 
ATOM     13  C   UNL     1      -0.169   0.970  -0.282  0.00  0.00    +0.000 C 
ATOM     14  C   UNL     1      -0.225   2.253   0.099  0.00  0.00    +0.000 C 
ATOM     15  S   UNL     1       1.380   0.158  -0.321  0.00  0.00    +0.000 S 
ENDBRANCH   1  14
TORSDOF 2
