REMARK  Name = *****
REMARK  4 active torsions:
REMARK  status: ('A' for Active; 'I' for Inactive)
REMARK    1  A    between atoms: C_1  and  N_2
REMARK    2  A    between atoms: N_2  and  C_3
REMARK    3  A    between atoms: N_2  and  C_10
REMARK    4  A    between atoms: C_3  and  C_4
REMARK                            x       y       z     vdW  Elec       q    Type
REMARK                         _______ _______ _______ _____ _____    ______ ____
ROOT
ATOM      1  C   UNL     1       1.248  -0.038   0.104  0.00  0.00    +0.000 C 
ATOM      2  N   UNL     1       2.689  -0.112  -0.119  0.00  0.00    +0.000 N 
ENDROOT
BRANCH   2   3
ATOM      3  C   UNL     1       3.288   0.669  -1.110  0.00  0.00    +0.000 A 
ATOM      4  C   UNL     1       2.567   1.605  -1.871  0.00  0.00    +0.000 A 
ATOM      5  C   UNL     1       3.180   2.371  -2.870  0.00  0.00    +0.000 A 
ATOM      6  C   UNL     1       4.531   2.222  -3.152  0.00  0.00    +0.000 A 
ATOM      7  C   UNL     1       5.270   1.294  -2.430  0.00  0.00    +0.000 A 
ATOM      8  C   UNL     1       4.653   0.531  -1.430  0.00  0.00    +0.000 A 
ATOM      9 CL   UNL     1       2.247   3.514  -3.760  0.00  0.00    +0.000 Cl
ENDBRANCH   2   3
BRANCH   2  10
ATOM     10  C   UNL     1       3.489  -0.568   1.030  0.00  0.00    +0.000 C 
BRANCH  10  11
ATOM     11  C   UNL     1       4.077  -1.955   0.848  0.00  0.00    +0.000 A 
ATOM     12  C   UNL     1       5.191  -2.328   1.618  0.00  0.00    +0.000 A 
ATOM     13  C   UNL     1       5.743  -3.606   1.505  0.00  0.00    +0.000 A 
ATOM     14  C   UNL     1       5.184  -4.532   0.627  0.00  0.00    +0.000 A 
ATOM     15  C   UNL     1       4.072  -4.182  -0.134  0.00  0.00    +0.000 A 
ATOM     16  C   UNL     1       3.519  -2.904  -0.021  0.00  0.00    +0.000 A 
ENDBRANCH  10  11
ENDBRANCH   2  10
TORSDOF 3
