REMARK  Name = *****
REMARK  2 active torsions:
REMARK  status: ('A' for Active; 'I' for Inactive)
REMARK    1  A    between atoms: N_7  and  C_10
REMARK    2  A    between atoms: C_10  and  C_11
REMARK                            x       y       z     vdW  Elec       q    Type
REMARK                         _______ _______ _______ _____ _____    ______ ____
ROOT
ATOM      1  C   UNL     1      -2.032  -0.811  -0.218  0.00  0.00    +0.000 A 
ATOM      2  C   UNL     1      -2.174   0.572  -0.164  0.00  0.00    +0.000 A 
ATOM      3  C   UNL     1      -1.059   1.404  -0.035  0.00  0.00    +0.000 A 
ATOM      4  C   UNL     1       0.207   0.805   0.036  0.00  0.00    +0.000 A 
ATOM      5  C   UNL     1       0.369  -0.579  -0.021  0.00  0.00    +0.000 A 
ATOM      6  C   UNL     1      -0.766  -1.405  -0.147  0.00  0.00    +0.000 A 
ATOM      7  N   UNL     1       1.704  -0.949   0.062  0.00  0.00    +0.000 N 
ATOM      8  C   UNL     1       2.553   0.053   0.203  0.00  0.00    +0.000 C 
ATOM      9  S   UNL     1       1.749   1.559   0.203  0.00  0.00    +0.000 S 
ENDROOT
BRANCH   7  10
ATOM     10  C   UNL     1       2.169  -2.337   0.043  0.00  0.00    +0.000 C 
BRANCH  10  11
ATOM     11  C   UNL     1       2.066  -2.924  -1.348  0.00  0.00    +0.000 A 
ATOM     12  C   UNL     1       2.634  -2.281  -2.461  0.00  0.00    +0.000 A 
ATOM     13  C   UNL     1       2.537  -2.849  -3.736  0.00  0.00    +0.000 A 
ATOM     14  C   UNL     1       1.885  -4.066  -3.909  0.00  0.00    +0.000 A 
ATOM     15  C   UNL     1       1.335  -4.727  -2.815  0.00  0.00    +0.000 A 
ATOM     16  C   UNL     1       1.429  -4.163  -1.539  0.00  0.00    +0.000 A 
ATOM     17 CL   UNL     1       1.768  -4.759  -5.476  0.00  0.00    +0.000 Cl
ENDBRANCH  10  11
ENDBRANCH   7  10
TORSDOF 2
