REMARK  Name = *****
REMARK  3 active torsions:
REMARK  status: ('A' for Active; 'I' for Inactive)
REMARK    1  A    between atoms: C_4  and  N_7
REMARK    2  A    between atoms: N_7  and  S_8
REMARK    3  A    between atoms: S_8  and  C_9
REMARK                            x       y       z     vdW  Elec       q    Type
REMARK                         _______ _______ _______ _____ _____    ______ ____
ROOT
ATOM      1  N   UNL     1      -2.797  -0.023   0.125  0.00  0.00    +0.000 N 
ATOM      2  H   UNL     1      -3.217   0.681   0.670  0.00  0.00    +0.000 HD
ENDROOT
BRANCH   1   6
ATOM      3  C   UNL     1       1.436   0.011  -0.039  0.00  0.00    +0.000 A 
ATOM      4  C   UNL     1       0.750  -1.141  -0.409  0.00  0.00    +0.000 A 
ATOM      5  C   UNL     1      -0.649  -1.167  -0.377  0.00  0.00    +0.000 A 
ATOM      6  C   UNL     1      -1.388  -0.037   0.000  0.00  0.00    +0.000 A 
ATOM      7  C   UNL     1      -0.673   1.104   0.402  0.00  0.00    +0.000 A 
ATOM      8  C   UNL     1       0.725   1.134   0.372  0.00  0.00    +0.000 A 
ENDBRANCH   1   6
BRANCH   1   9
ATOM      9  S   UNL     1      -3.774  -1.152  -0.616  0.00  0.00    +0.000 S 
BRANCH   9  10
ATOM     10  C   UNL     1      -4.975  -1.422   0.680  0.00  0.00    +0.000 A 
ATOM     11  C   UNL     1      -6.326  -1.552   0.341  0.00  0.00    +0.000 A 
ATOM     12  C   UNL     1      -7.284  -1.783   1.331  0.00  0.00    +0.000 A 
ATOM     13  C   UNL     1      -6.898  -1.889   2.666  0.00  0.00    +0.000 A 
ATOM     14  C   UNL     1      -5.553  -1.769   3.012  0.00  0.00    +0.000 A 
ATOM     15  C   UNL     1      -4.595  -1.540   2.022  0.00  0.00    +0.000 A 
ENDBRANCH   9  10
ENDBRANCH   1   9
TORSDOF 3
