REMARK  Name = *****
REMARK  4 active torsions:
REMARK  status: ('A' for Active; 'I' for Inactive)
REMARK    1  A    between atoms: C_1  and  C_2
REMARK    2  A    between atoms: C_5  and  C_7
REMARK    3  A    between atoms: C_7  and  N_9
REMARK    4  A    between atoms: N_9  and  C_10
REMARK                            x       y       z     vdW  Elec       q    Type
REMARK                         _______ _______ _______ _____ _____    ______ ____
ROOT
ATOM      1  C   UNL     1      -1.255   2.738  -0.559  0.00  0.00    +0.000 C 
ATOM      2  S   UNL     1      -0.302   4.034  -1.037  0.00  0.00    +0.000 S 
ENDROOT
BRANCH   1   7
ATOM      3  C   UNL     1       2.442  -0.721   0.463  0.00  0.00    +0.000 C 
ATOM      4  C   UNL     1       1.069  -0.167   0.283  0.00  0.00    +0.000 A 
ATOM      5  C   UNL     1      -0.100  -0.875   0.463  0.00  0.00    +0.000 A 
ATOM      6  S   UNL     1      -1.490   0.067   0.179  0.00  0.00    +0.000 S 
ATOM      7  C   UNL     1      -0.568   1.480  -0.198  0.00  0.00    +0.000 A 
ATOM      8  C   UNL     1       0.787   1.187  -0.094  0.00  0.00    +0.000 A 
ENDBRANCH   1   7
BRANCH   1   9
ATOM      9  N   UNL     1      -2.637   2.701  -0.426  0.00  0.00    +0.000 N 
ATOM     10  H   UNL     1      -2.962   1.846  -0.062  0.00  0.00    +0.000 HD
BRANCH   9  11
ATOM     11  C   UNL     1      -3.681   3.615  -0.697  0.00  0.00    +0.000 A 
ATOM     12  C   UNL     1      -3.551   4.848  -1.332  0.00  0.00    +0.000 A 
ATOM     13  C   UNL     1      -4.669   5.664  -1.550  0.00  0.00    +0.000 A 
ATOM     14  C   UNL     1      -5.934   5.254  -1.140  0.00  0.00    +0.000 A 
ATOM     15  C   UNL     1      -6.084   4.022  -0.514  0.00  0.00    +0.000 A 
ATOM     16  C   UNL     1      -4.966   3.210  -0.298  0.00  0.00    +0.000 A 
ENDBRANCH   9  11
ENDBRANCH   1   9
TORSDOF 3
