REMARK  Name = *****
REMARK  4 active torsions:
REMARK  status: ('A' for Active; 'I' for Inactive)
REMARK    1  A    between atoms: C_1  and  C_2
REMARK    2  A    between atoms: N_6  and  C_8
REMARK    3  A    between atoms: C_8  and  C_9
REMARK    4  A    between atoms: C_10  and  C_11
REMARK                            x       y       z     vdW  Elec       q    Type
REMARK                         _______ _______ _______ _____ _____    ______ ____
ROOT
ATOM      1  C   UNL     1       2.539  -3.371  -3.468  0.00  0.00    +0.000 C 
ATOM      2  C   UNL     1       2.185  -3.694  -4.570  0.00  0.00    +0.000 C 
ENDROOT
BRANCH   2   3
ATOM      3  C   UNL     1       1.792  -4.048  -5.898  0.00  0.00    +0.000 A 
ATOM      4  C   UNL     1       1.778  -5.387  -6.292  0.00  0.00    +0.000 A 
ATOM      5  C   UNL     1       1.415  -5.728  -7.600  0.00  0.00    +0.000 A 
ATOM      6  C   UNL     1       1.066  -4.726  -8.513  0.00  0.00    +0.000 A 
ATOM      7  C   UNL     1       1.078  -3.386  -8.113  0.00  0.00    +0.000 A 
ATOM      8  C   UNL     1       1.441  -3.048  -6.807  0.00  0.00    +0.000 A 
ATOM      9 CL   UNL     1       0.616  -5.073 -10.145  0.00  0.00    +0.000 Cl
ATOM     10 CL   UNL     1       1.424  -7.404  -8.024  0.00  0.00    +0.000 Cl
ENDBRANCH   2   3
BRANCH   1  11
ATOM     11  C   UNL     1       3.008  -2.957  -2.137  0.00  0.00    +0.000 C 
BRANCH  11  17
ATOM     12  C   UNL     1       0.862   0.092   0.203  0.00  0.00    +0.000 C 
ATOM     13  C   UNL     1       2.389   0.056   0.091  0.00  0.00    +0.000 C 
ATOM     14  C   UNL     1       2.914   1.155  -0.841  0.00  0.00    +0.000 C 
ATOM     15  C   UNL     1       2.656   0.822  -2.307  0.00  0.00    +0.000 C 
ATOM     16  C   UNL     1       3.153  -0.581  -2.660  0.00  0.00    +0.000 C 
ATOM     17  N   UNL     1       2.556  -1.601  -1.781  0.00  0.00    +0.000 N 
ATOM     18  C   UNL     1       2.892  -1.322  -0.373  0.00  0.00    +0.000 C 
ATOM     19  H   UNL     1       1.544  -1.559  -1.907  0.00  0.00    +0.000 HD
ENDBRANCH  11  17
ENDBRANCH   1  11
TORSDOF 3
