REMARK  Name = *****
REMARK  6 active torsions:
REMARK  status: ('A' for Active; 'I' for Inactive)
REMARK    1  A    between atoms: C_1  and  C_2
REMARK    2  A    between atoms: C_4  and  C_18
REMARK    3  A    between atoms: C_6  and  C_8
REMARK    4  A    between atoms: C_8  and  C_9
REMARK    5  A    between atoms: C_9  and  C_10
REMARK    6  A    between atoms: C_10  and  C_12
REMARK                            x       y       z     vdW  Elec       q    Type
REMARK                         _______ _______ _______ _____ _____    ______ ____
ROOT
ATOM      1  C   UNL     1      -2.539   1.031  -0.002  0.00  0.00    +0.000 C 
ENDROOT
BRANCH   1   7
ATOM      2  C   UNL     1       1.269  -1.096   2.513  0.00  0.00    +0.000 C 
ATOM      3  C   UNL     1       0.617  -0.746   1.208  0.00  0.00    +0.000 A 
ATOM      4  C   UNL     1       1.202  -1.112  -0.011  0.00  0.00    +0.000 A 
ATOM      5  C   UNL     1       0.590  -0.783  -1.226  0.00  0.00    +0.000 A 
ATOM      6  C   UNL     1      -0.622  -0.080  -1.215  0.00  0.00    +0.000 A 
ATOM      7  C   UNL     1      -1.220   0.298  -0.006  0.00  0.00    +0.000 A 
ATOM      8  C   UNL     1      -0.596  -0.044   1.201  0.00  0.00    +0.000 A 
ATOM      9  C   UNL     1       1.214  -1.172  -2.534  0.00  0.00    +0.000 C 
ENDBRANCH   1   7
BRANCH   1  10
ATOM     10  C   UNL     1      -3.714   0.058  -0.008  0.00  0.00    +0.000 C 
BRANCH  10  11
ATOM     11  C   UNL     1      -5.051   0.777   0.019  0.00  0.00    +0.000 C 
ATOM     12  O   UNL     1      -5.132   2.005   0.055  0.00  0.00    +0.000 OA
BRANCH  11  13
ATOM     13  C   UNL     1      -6.293  -0.109  -0.033  0.00  0.00    +0.000 C 
ATOM     14  C   UNL     1      -6.676  -0.376  -1.492  0.00  0.00    +0.000 C 
ATOM     15  C   UNL     1      -7.949  -1.211  -1.597  0.00  0.00    +0.000 C 
ATOM     16  C   UNL     1      -9.103  -0.586  -0.818  0.00  0.00    +0.000 C 
ATOM     17  C   UNL     1      -8.723  -0.323   0.636  0.00  0.00    +0.000 C 
ATOM     18  C   UNL     1      -7.457   0.524   0.738  0.00  0.00    +0.000 C 
ENDBRANCH  11  13
ENDBRANCH  10  11
ENDBRANCH   1  10
TORSDOF 4
