REMARK  Name = *****
REMARK  4 active torsions:
REMARK  status: ('A' for Active; 'I' for Inactive)
REMARK    1  A    between atoms: C_1  and  O_2
REMARK    2  A    between atoms: O_2  and  C_3
REMARK    3  A    between atoms: C_7  and  C_9
REMARK    4  A    between atoms: C_10  and  C_11
REMARK                            x       y       z     vdW  Elec       q    Type
REMARK                         _______ _______ _______ _____ _____    ______ ____
ROOT
ATOM      1  C   UNL     1       6.686  -1.057   2.229  0.00  0.00    +0.000 C 
ATOM      2  C   UNL     1       7.665  -1.889   2.621  0.00  0.00    +0.000 C 
ENDROOT
BRANCH   2   3
ATOM      3  C   UNL     1       9.022  -1.468   3.010  0.00  0.00    +0.000 A 
ATOM      4  C   UNL     1       9.290  -0.220   3.590  0.00  0.00    +0.000 A 
ATOM      5  C   UNL     1      10.591   0.127   3.971  0.00  0.00    +0.000 A 
ATOM      6  C   UNL     1      11.641  -0.772   3.789  0.00  0.00    +0.000 A 
ATOM      7  C   UNL     1      11.389  -2.023   3.232  0.00  0.00    +0.000 A 
ATOM      8  C   UNL     1      10.091  -2.363   2.855  0.00  0.00    +0.000 A 
ATOM      9  F   UNL     1       9.882  -3.581   2.329  0.00  0.00    +0.000 F 
ENDBRANCH   2   3
BRANCH   1  14
ATOM     10  C   UNL     1       3.385  -1.170   0.405  0.00  0.00    +0.000 A 
ATOM     11  C   UNL     1       2.750  -2.240   1.033  0.00  0.00    +0.000 A 
ATOM     12  C   UNL     1       3.398  -2.934   2.057  0.00  0.00    +0.000 A 
ATOM     13  C   UNL     1       4.684  -2.565   2.454  0.00  0.00    +0.000 A 
ATOM     14  C   UNL     1       5.344  -1.504   1.824  0.00  0.00    +0.000 A 
ATOM     15  C   UNL     1       4.675  -0.805   0.809  0.00  0.00    +0.000 A 
BRANCH  10  17
ATOM     16  C   UNL     1       1.569  -0.752  -1.071  0.00  0.00    +0.000 C 
ATOM     17  O   UNL     1       2.865  -0.403  -0.601  0.00  0.00    +0.000 OA
ENDBRANCH  10  17
ENDBRANCH   1  14
TORSDOF 3
