REMARK  Name = *****
REMARK  4 active torsions:
REMARK  status: ('A' for Active; 'I' for Inactive)
REMARK    1  A    between atoms: C_4  and  C_7
REMARK    2  A    between atoms: C_7  and  C_8
REMARK    3  A    between atoms: C_7  and  C_16
REMARK    4  A    between atoms: C_8  and  C_9
REMARK                            x       y       z     vdW  Elec       q    Type
REMARK                         _______ _______ _______ _____ _____    ______ ____
ROOT
ATOM      1  C   UNL     1      -2.929   0.469  -0.054  0.00  0.00    +0.000 C 
ENDROOT
BRANCH   1   5
ATOM      2  C   UNL     1       1.164  -0.898   0.352  0.00  0.00    +0.000 A 
ATOM      3  C   UNL     1       0.662   0.084   1.203  0.00  0.00    +0.000 A 
ATOM      4  C   UNL     1      -0.659   0.515   1.071  0.00  0.00    +0.000 A 
ATOM      5  C   UNL     1      -1.497  -0.032   0.085  0.00  0.00    +0.000 A 
ATOM      6  C   UNL     1      -0.975  -1.021  -0.766  0.00  0.00    +0.000 A 
ATOM      7  C   UNL     1       0.347  -1.449  -0.631  0.00  0.00    +0.000 A 
ENDBRANCH   1   5
BRANCH   1   8
ATOM      8  C   UNL     1      -3.908  -0.636   0.045  0.00  0.00    +0.000 C 
ATOM      9  N   UNL     1      -4.696  -1.487   0.106  0.00  0.00    +0.000 NA
ENDBRANCH   1   8
BRANCH   1  10
ATOM     10  C   UNL     1      -3.161   1.243  -1.370  0.00  0.00    +0.000 C 
BRANCH  10  11
ATOM     11  C   UNL     1      -2.381   2.537  -1.457  0.00  0.00    +0.000 A 
ATOM     12  C   UNL     1      -1.205   2.606  -2.219  0.00  0.00    +0.000 A 
ATOM     13  C   UNL     1      -0.472   3.792  -2.283  0.00  0.00    +0.000 A 
ATOM     14  C   UNL     1      -0.910   4.915  -1.585  0.00  0.00    +0.000 A 
ATOM     15  C   UNL     1      -2.075   4.861  -0.824  0.00  0.00    +0.000 A 
ATOM     16  C   UNL     1      -2.810   3.675  -0.760  0.00  0.00    +0.000 A 
ATOM     17 CL   UNL     1      -0.005   6.376  -1.662  0.00  0.00    +0.000 Cl
ENDBRANCH  10  11
ENDBRANCH   1  10
TORSDOF 4
