REMARK  Name = *****
REMARK  1 active torsions:
REMARK  status: ('A' for Active; 'I' for Inactive)
REMARK    1  A    between atoms: C_5  and  C_9
REMARK                            x       y       z     vdW  Elec       q    Type
REMARK                         _______ _______ _______ _____ _____    ______ ____
ROOT
ATOM      1  C   UNL     1       2.320  -0.093  -0.119  0.00  0.00    +0.000 C 
ATOM      2  C   UNL     1       1.270  -1.183  -0.452  0.00  0.00    +0.000 C 
ATOM      3  C   UNL     1       0.031  -0.662   0.254  0.00  0.00    +0.000 C 
ATOM      4  C   UNL     1      -1.377  -1.031  -0.075  0.00  0.00    +0.000 C 
ATOM      5  C   UNL     1      -2.225  -0.003   0.127  0.00  0.00    +0.000 C 
ATOM      6  S   UNL     1      -1.401   1.481   0.603  0.00  0.00    +0.000 S 
ATOM      7  C   UNL     1       0.131   0.825  -0.090  0.00  0.00    +0.000 C 
ATOM      8  C   UNL     1       1.533   1.149   0.370  0.00  0.00    +0.000 C 
ENDROOT
BRANCH   5   9
ATOM      9  C   UNL     1      -3.685  -0.033  -0.008  0.00  0.00    +0.000 A 
ATOM     10  C   UNL     1      -4.420  -1.116   0.499  0.00  0.00    +0.000 A 
ATOM     11  C   UNL     1      -5.811  -1.162   0.375  0.00  0.00    +0.000 A 
ATOM     12  C   UNL     1      -6.489  -0.124  -0.260  0.00  0.00    +0.000 A 
ATOM     13  C   UNL     1      -5.777   0.959  -0.768  0.00  0.00    +0.000 A 
ATOM     14  C   UNL     1      -4.385   1.004  -0.643  0.00  0.00    +0.000 A 
ENDBRANCH   5   9
TORSDOF 1
