REMARK  Name = *****
REMARK  5 active torsions:
REMARK  status: ('A' for Active; 'I' for Inactive)
REMARK    1  A    between atoms: C_1  and  C_2
REMARK    2  A    between atoms: C_4  and  C_8
REMARK    3  A    between atoms: C_8  and  O_9
REMARK    4  A    between atoms: O_9  and  C_10
REMARK    5  A    between atoms: C_15  and  C_16
REMARK                            x       y       z     vdW  Elec       q    Type
REMARK                         _______ _______ _______ _____ _____    ______ ____
ROOT
ATOM      1  O   UNL     1      -1.158   3.555   0.141  0.00  0.00    +0.000 OA
ENDROOT
BRANCH   1   2
ATOM      2  C   UNL     1      -1.704   4.806   0.081  0.00  0.00    +0.000 A 
ATOM      3  C   UNL     1      -2.811   5.145  -0.707  0.00  0.00    +0.000 A 
ATOM      4  C   UNL     1      -3.273   6.464  -0.761  0.00  0.00    +0.000 A 
ATOM      5  C   UNL     1      -2.631   7.464  -0.036  0.00  0.00    +0.000 A 
ATOM      6  C   UNL     1      -1.530   7.143   0.754  0.00  0.00    +0.000 A 
ATOM      7  C   UNL     1      -1.074   5.816   0.827  0.00  0.00    +0.000 A 
BRANCH   7   8
ATOM      8  C   UNL     1       0.093   5.546   1.713  0.00  0.00    +0.000 C 
ATOM      9  O   UNL     1       1.005   6.374   1.684  0.00  0.00    +0.000 OA
ATOM     10 CL   UNL     1       0.057   4.178   2.802  0.00  0.00    +0.000 Cl
ENDBRANCH   7   8
ENDBRANCH   1   2
BRANCH   1  11
ATOM     11  C   UNL     1      -1.814   2.495  -0.550  0.00  0.00    +0.000 C 
BRANCH  11  15
ATOM     12  C   UNL     1       2.152  -0.482  -1.466  0.00  0.00    +0.000 C 
ATOM     13  C   UNL     1       0.888  -0.200  -0.710  0.00  0.00    +0.000 A 
ATOM     14  C   UNL     1       0.152   0.965  -0.964  0.00  0.00    +0.000 A 
ATOM     15  C   UNL     1      -1.048   1.224  -0.283  0.00  0.00    +0.000 A 
ATOM     16  C   UNL     1      -1.501   0.302   0.669  0.00  0.00    +0.000 A 
ATOM     17  C   UNL     1      -0.783  -0.868   0.915  0.00  0.00    +0.000 A 
ATOM     18  C   UNL     1       0.401  -1.122   0.224  0.00  0.00    +0.000 A 
ENDBRANCH  11  15
ENDBRANCH   1  11
TORSDOF 4
