REMARK  Name = *****
REMARK  5 active torsions:
REMARK  status: ('A' for Active; 'I' for Inactive)
REMARK    1  A    between atoms: C_1  and  C_2
REMARK    2  A    between atoms: C_4  and  C_10
REMARK    3  A    between atoms: C_5  and  N_8
REMARK    4  A    between atoms: C_10  and  C_11
REMARK    5  A    between atoms: C_11  and  C_13
REMARK                            x       y       z     vdW  Elec       q    Type
REMARK                         _______ _______ _______ _____ _____    ______ ____
ROOT
ATOM      1  C   UNL     1       3.497  -0.984   2.742  0.00  0.00    +0.000 C 
ATOM      2  C   UNL     1       3.698  -0.425   1.363  0.00  0.00    +0.000 A 
ATOM      3  C   UNL     1       4.399   0.775   1.172  0.00  0.00    +0.000 A 
ATOM      4  C   UNL     1       4.570   1.318  -0.113  0.00  0.00    +0.000 A 
ATOM      5  C   UNL     1       3.996   0.639  -1.197  0.00  0.00    +0.000 A 
ATOM      6  C   UNL     1       3.291  -0.553  -1.023  0.00  0.00    +0.000 A 
ATOM      7  C   UNL     1       3.143  -1.082   0.258  0.00  0.00    +0.000 A 
ENDROOT
BRANCH   5   8
ATOM      8  N   UNL     1       4.125   1.136  -2.489  0.00  0.00    +0.000 NA
ATOM      9  C   UNL     1       4.244   1.540  -3.583  0.00  0.00    +0.000 C 
ENDBRANCH   5   8
BRANCH   4  10
ATOM     10  C   UNL     1       5.315   2.623  -0.287  0.00  0.00    +0.000 C 
BRANCH  10  11
ATOM     11  C   UNL     1       4.405   3.840  -0.360  0.00  0.00    +0.000 C 
ATOM     12  O   UNL     1       3.186   3.768  -0.210  0.00  0.00    +0.000 OA
BRANCH  11  13
ATOM     13  C   UNL     1       5.026   5.181  -0.595  0.00  0.00    +0.000 A 
ATOM     14  C   UNL     1       6.406   5.354  -0.763  0.00  0.00    +0.000 A 
ATOM     15  C   UNL     1       6.934   6.632  -0.971  0.00  0.00    +0.000 A 
ATOM     16  C   UNL     1       6.092   7.742  -1.010  0.00  0.00    +0.000 A 
ATOM     17  C   UNL     1       4.718   7.579  -0.843  0.00  0.00    +0.000 A 
ATOM     18  C   UNL     1       4.187   6.304  -0.637  0.00  0.00    +0.000 A 
ENDBRANCH  11  13
ENDBRANCH  10  11
ENDBRANCH   4  10
TORSDOF 4
