REMARK  Name = *****
REMARK  2 active torsions:
REMARK  status: ('A' for Active; 'I' for Inactive)
REMARK    1  A    between atoms: C_4  and  C_7
REMARK    2  A    between atoms: C_8  and  C_9
REMARK                            x       y       z     vdW  Elec       q    Type
REMARK                         _______ _______ _______ _____ _____    ______ ____
ROOT
ATOM      1  C   UNL     1       6.261  -0.132  -0.727  0.00  0.00    +0.000 C 
ATOM      2  C   UNL     1       7.436  -0.148  -0.976  0.00  0.00    +0.000 C 
ENDROOT
BRANCH   1   6
ATOM      3  C   UNL     1       2.126  -0.081   0.138  0.00  0.00    +0.000 A 
ATOM      4  C   UNL     1       2.832   1.108  -0.015  0.00  0.00    +0.000 A 
ATOM      5  C   UNL     1       4.193   1.105  -0.300  0.00  0.00    +0.000 A 
ATOM      6  C   UNL     1       4.862  -0.112  -0.433  0.00  0.00    +0.000 A 
ATOM      7  C   UNL     1       4.161  -1.313  -0.280  0.00  0.00    +0.000 A 
ATOM      8  C   UNL     1       2.793  -1.298   0.006  0.00  0.00    +0.000 A 
ATOM      9  F   UNL     1       2.189   2.276   0.112  0.00  0.00    +0.000 F 
ENDBRANCH   1   6
BRANCH   2  10
ATOM     10  C   UNL     1       8.834  -0.164  -1.276  0.00  0.00    +0.000 A 
ATOM     11  C   UNL     1       9.532   1.037  -1.427  0.00  0.00    +0.000 A 
ATOM     12  C   UNL     1      10.897   1.020  -1.721  0.00  0.00    +0.000 A 
ATOM     13  C   UNL     1      11.565  -0.196  -1.865  0.00  0.00    +0.000 A 
ATOM     14  C   UNL     1      10.870  -1.396  -1.714  0.00  0.00    +0.000 A 
ATOM     15  C   UNL     1       9.505  -1.381  -1.420  0.00  0.00    +0.000 A 
ENDBRANCH   2  10
TORSDOF 2
