REMARK  Name = *****
REMARK  3 active torsions:
REMARK  status: ('A' for Active; 'I' for Inactive)
REMARK    1  A    between atoms: C_4  and  C_7
REMARK    2  A    between atoms: C_7  and  C_8
REMARK    3  A    between atoms: N_9  and  C_10
REMARK                            x       y       z     vdW  Elec       q    Type
REMARK                         _______ _______ _______ _____ _____    ______ ____
ROOT
ATOM      1  C   UNL     1      -3.707  -0.807  -0.111  0.00  0.00    +0.000 C 
ATOM      2  N   UNL     1      -4.435  -1.405   0.777  0.00  0.00    +0.000 NA
ENDROOT
BRANCH   2   3
ATOM      3  C   UNL     1      -5.123  -2.543   0.334  0.00  0.00    +0.000 A 
ATOM      4  C   UNL     1      -4.462  -3.765   0.176  0.00  0.00    +0.000 A 
ATOM      5  C   UNL     1      -5.159  -4.896  -0.254  0.00  0.00    +0.000 A 
ATOM      6  C   UNL     1      -6.526  -4.813  -0.517  0.00  0.00    +0.000 A 
ATOM      7  C   UNL     1      -7.196  -3.602  -0.344  0.00  0.00    +0.000 A 
ATOM      8  C   UNL     1      -6.495  -2.472   0.085  0.00  0.00    +0.000 A 
ENDBRANCH   2   3
BRANCH   1   9
ATOM      9  C   UNL     1      -2.905   0.416   0.245  0.00  0.00    +0.000 C 
BRANCH   9  13
ATOM     10  C   UNL     1       1.319  -0.382  -0.081  0.00  0.00    +0.000 A 
ATOM     11  C   UNL     1       0.681   0.392  -1.049  0.00  0.00    +0.000 A 
ATOM     12  C   UNL     1      -0.685   0.657  -0.946  0.00  0.00    +0.000 A 
ATOM     13  C   UNL     1      -1.425   0.152   0.131  0.00  0.00    +0.000 A 
ATOM     14  C   UNL     1      -0.775  -0.628   1.098  0.00  0.00    +0.000 A 
ATOM     15  C   UNL     1       0.591  -0.892   0.992  0.00  0.00    +0.000 A 
ENDBRANCH   9  13
ENDBRANCH   1   9
TORSDOF 3
