REMARK  Name = *****
REMARK  5 active torsions:
REMARK  status: ('A' for Active; 'I' for Inactive)
REMARK    1  A    between atoms: C_1  and  C_2
REMARK    2  A    between atoms: C_4  and  C_8
REMARK    3  A    between atoms: C_8  and  C_9
REMARK    4  A    between atoms: C_9  and  C_10
REMARK    5  A    between atoms: C_9  and  C_11
REMARK                            x       y       z     vdW  Elec       q    Type
REMARK                         _______ _______ _______ _____ _____    ______ ____
ROOT
ATOM      1  C   UNL     1      -2.001   2.575  -0.338  0.00  0.00    +0.000 C 
ENDROOT
BRANCH   1   5
ATOM      2  C   UNL     1      -1.413  -2.347   0.615  0.00  0.00    +0.000 C 
ATOM      3  C   UNL     1      -1.211  -1.166  -0.289  0.00  0.00    +0.000 A 
ATOM      4  C   UNL     1      -1.672   0.102   0.090  0.00  0.00    +0.000 A 
ATOM      5  C   UNL     1      -1.518   1.207  -0.761  0.00  0.00    +0.000 A 
ATOM      6  C   UNL     1      -0.906   1.026  -2.007  0.00  0.00    +0.000 A 
ATOM      7  C   UNL     1      -0.459  -0.236  -2.397  0.00  0.00    +0.000 A 
ATOM      8  C   UNL     1      -0.615  -1.329  -1.544  0.00  0.00    +0.000 A 
ENDBRANCH   1   5
BRANCH   1   9
ATOM      9  C   UNL     1      -0.862   3.535   0.074  0.00  0.00    +0.000 C 
ATOM     10  C   UNL     1      -0.155   3.085   1.360  0.00  0.00    +0.000 C 
BRANCH   9  11
ATOM     11  C   UNL     1      -1.388   4.957   0.216  0.00  0.00    +0.000 A 
ATOM     12  C   UNL     1      -2.324   5.302   1.204  0.00  0.00    +0.000 A 
ATOM     13  C   UNL     1      -2.798   6.611   1.310  0.00  0.00    +0.000 A 
ATOM     14  C   UNL     1      -2.346   7.591   0.429  0.00  0.00    +0.000 A 
ATOM     15  C   UNL     1      -1.419   7.263  -0.558  0.00  0.00    +0.000 A 
ATOM     16  C   UNL     1      -0.944   5.955  -0.665  0.00  0.00    +0.000 A 
ENDBRANCH   9  11
ENDBRANCH   1   9
TORSDOF 3
