REMARK  Name = *****
REMARK  5 active torsions:
REMARK  status: ('A' for Active; 'I' for Inactive)
REMARK    1  A    between atoms: C_1  and  C_2
REMARK    2  A    between atoms: C_2  and  C_3
REMARK    3  A    between atoms: C_2  and  C_11
REMARK    4  A    between atoms: C_3  and  C_4
REMARK    5  A    between atoms: C_14  and  C_17
REMARK                            x       y       z     vdW  Elec       q    Type
REMARK                         _______ _______ _______ _____ _____    ______ ____
ROOT
ATOM      1  C   UNL     1       0.819   0.211   0.224  0.00  0.00    +0.000 C 
ATOM      2  C   UNL     1       2.345   0.155   0.073  0.00  0.00    +0.000 C 
ENDROOT
BRANCH   2   3
ATOM      3  C   UNL     1       3.003  -0.261   1.383  0.00  0.00    +0.000 A 
ATOM      4  C   UNL     1       3.794  -1.419   1.427  0.00  0.00    +0.000 A 
ATOM      5  C   UNL     1       4.412  -1.817   2.616  0.00  0.00    +0.000 A 
ATOM      6  C   UNL     1       4.249  -1.061   3.779  0.00  0.00    +0.000 A 
ATOM      7  C   UNL     1       3.465   0.095   3.747  0.00  0.00    +0.000 A 
ATOM      8  C   UNL     1       2.847   0.492   2.557  0.00  0.00    +0.000 A 
BRANCH   6   9
ATOM      9  C   UNL     1       4.882  -1.468   4.999  0.00  0.00    +0.000 C 
ATOM     10  N   UNL     1       5.395  -1.797   5.986  0.00  0.00    +0.000 NA
ENDBRANCH   6   9
ENDBRANCH   2   3
BRANCH   2  11
ATOM     11  C   UNL     1       2.936   1.491  -0.429  0.00  0.00    +0.000 C 
BRANCH  11  12
ATOM     12  C   UNL     1       2.535   1.840  -1.844  0.00  0.00    +0.000 A 
ATOM     13  C   UNL     1       1.583   2.840  -2.088  0.00  0.00    +0.000 A 
ATOM     14  C   UNL     1       1.207   3.156  -3.396  0.00  0.00    +0.000 A 
ATOM     15  C   UNL     1       1.782   2.473  -4.465  0.00  0.00    +0.000 A 
ATOM     16  C   UNL     1       2.730   1.478  -4.239  0.00  0.00    +0.000 A 
ATOM     17  C   UNL     1       3.106   1.162  -2.931  0.00  0.00    +0.000 A 
ATOM     18 CL   UNL     1       1.318   2.861  -6.076  0.00  0.00    +0.000 Cl
ENDBRANCH  11  12
ENDBRANCH   2  11
TORSDOF 4
