REMARK  Name = *****
REMARK  3 active torsions:
REMARK  status: ('A' for Active; 'I' for Inactive)
REMARK    1  A    between atoms: C_1  and  C_2
REMARK    2  A    between atoms: C_4  and  C_8
REMARK    3  A    between atoms: C_9  and  C_10
REMARK                            x       y       z     vdW  Elec       q    Type
REMARK                         _______ _______ _______ _____ _____    ______ ____
ROOT
ATOM      1  C   UNL     1       5.425  -2.419  -0.118  0.00  0.00    +0.000 C 
ATOM      2  C   UNL     1       6.010  -3.461  -0.242  0.00  0.00    +0.000 C 
ENDROOT
BRANCH   1   6
ATOM      3  C   UNL     1       1.222  -0.146  -0.117  0.00  0.00    +0.000 C 
ATOM      4  C   UNL     1       2.716  -0.073  -0.009  0.00  0.00    +0.000 A 
ATOM      5  N   UNL     1       3.401  -1.238  -0.083  0.00  0.00    +0.000 NA
ATOM      6  C   UNL     1       4.748  -1.167  -0.003  0.00  0.00    +0.000 A 
ATOM      7  C   UNL     1       5.455   0.015   0.150  0.00  0.00    +0.000 A 
ATOM      8  C   UNL     1       4.735   1.202   0.220  0.00  0.00    +0.000 A 
ATOM      9  C   UNL     1       3.346   1.161   0.137  0.00  0.00    +0.000 A 
ENDBRANCH   1   6
BRANCH   2  10
ATOM     10  C   UNL     1       6.721  -4.688  -0.422  0.00  0.00    +0.000 A 
ATOM     11  C   UNL     1       8.013  -4.670  -0.951  0.00  0.00    +0.000 A 
ATOM     12  C   UNL     1       8.697  -5.870  -1.140  0.00  0.00    +0.000 A 
ATOM     13  C   UNL     1       8.103  -7.086  -0.803  0.00  0.00    +0.000 A 
ATOM     14  C   UNL     1       6.812  -7.103  -0.272  0.00  0.00    +0.000 A 
ATOM     15  C   UNL     1       6.122  -5.904  -0.082  0.00  0.00    +0.000 A 
ATOM     16 CL   UNL     1      10.288  -5.851  -1.796  0.00  0.00    +0.000 Cl
ENDBRANCH   2  10
TORSDOF 2
