REMARK  Name = *****
REMARK  1 active torsions:
REMARK  status: ('A' for Active; 'I' for Inactive)
REMARK    1  A    between atoms: N_9  and  C_10
REMARK                            x       y       z     vdW  Elec       q    Type
REMARK                         _______ _______ _______ _____ _____    ______ ____
ROOT
ATOM      1  C   UNL     1      -2.157   1.000   0.241  0.00  0.00    +0.000 C 
ATOM      2  C   UNL     1      -2.453  -0.506   0.289  0.00  0.00    +0.000 C 
ATOM      3  C   UNL     1      -1.254  -1.335   0.772  0.00  0.00    +0.000 C 
ATOM      4  C   UNL     1      -0.037  -0.975  -0.061  0.00  0.00    +0.000 C 
ATOM      5  C   UNL     1       0.290   0.506   0.073  0.00  0.00    +0.000 C 
ATOM      6  C   UNL     1      -0.857   1.331  -0.499  0.00  0.00    +0.000 C 
ATOM      7  O   UNL     1       1.524   0.739  -0.604  0.00  0.00    +0.000 OA
ATOM      8  C   UNL     1       2.354  -0.322  -0.342  0.00  0.00    +0.000 C 
ATOM      9  N   UNL     1       3.597  -0.225  -0.675  0.00  0.00    +0.000 NA
ATOM     10  S   UNL     1       1.545  -1.706   0.401  0.00  0.00    +0.000 S 
ENDROOT
BRANCH   9  11
ATOM     11  C   UNL     1       4.474  -1.290  -0.438  0.00  0.00    +0.000 A 
ATOM     12  C   UNL     1       4.673  -2.273  -1.411  0.00  0.00    +0.000 A 
ATOM     13  C   UNL     1       5.569  -3.321  -1.187  0.00  0.00    +0.000 A 
ATOM     14  C   UNL     1       6.284  -3.381   0.009  0.00  0.00    +0.000 A 
ATOM     15  C   UNL     1       6.109  -2.391   0.975  0.00  0.00    +0.000 A 
ATOM     16  C   UNL     1       5.212  -1.345   0.748  0.00  0.00    +0.000 A 
ENDBRANCH   9  11
TORSDOF 1
