REMARK  Name = *****
REMARK  2 active torsions:
REMARK  status: ('A' for Active; 'I' for Inactive)
REMARK    1  A    between atoms: C_4  and  C_7
REMARK    2  A    between atoms: C_8  and  C_9
REMARK                            x       y       z     vdW  Elec       q    Type
REMARK                         _______ _______ _______ _____ _____    ______ ____
ROOT
ATOM      1  C   UNL     1       0.610  -2.789   0.152  0.00  0.00    +0.000 C 
ATOM      2  C   UNL     1      -0.278  -3.796   0.212  0.00  0.00    +0.000 C 
ENDROOT
BRANCH   1   6
ATOM      3  C   UNL     1      -0.352   1.441   0.317  0.00  0.00    +0.000 C 
ATOM      4  C   UNL     1      -1.311   0.549  -0.460  0.00  0.00    +0.000 C 
ATOM      5  C   UNL     1      -1.146  -0.922  -0.063  0.00  0.00    +0.000 C 
ATOM      6  C   UNL     1       0.296  -1.365   0.070  0.00  0.00    +0.000 C 
ATOM      7  C   UNL     1       1.298  -0.464   0.107  0.00  0.00    +0.000 C 
ATOM      8  C   UNL     1       1.096   1.024   0.071  0.00  0.00    +0.000 C 
ENDBRANCH   1   6
BRANCH   2   9
ATOM      9  C   UNL     1       0.037  -5.218   0.301  0.00  0.00    +0.000 C 
ATOM     10  C   UNL     1      -0.963  -6.111   0.444  0.00  0.00    +0.000 C 
ATOM     11  C   UNL     1      -0.759  -7.591   0.586  0.00  0.00    +0.000 C 
ATOM     12  C   UNL     1       0.689  -7.974   0.881  0.00  0.00    +0.000 C 
ATOM     13  C   UNL     1       1.647  -7.180   0.004  0.00  0.00    +0.000 C 
ATOM     14  C   UNL     1       1.480  -5.673   0.222  0.00  0.00    +0.000 C 
ENDBRANCH   2   9
TORSDOF 2
