REMARK  Name = *****
REMARK  3 active torsions:
REMARK  status: ('A' for Active; 'I' for Inactive)
REMARK    1  A    between atoms: C_1  and  C_2
REMARK    2  A    between atoms: C_2  and  C_11
REMARK    3  A    between atoms: C_4  and  C_5
REMARK                            x       y       z     vdW  Elec       q    Type
REMARK                         _______ _______ _______ _____ _____    ______ ____
ROOT
ATOM      1  C   UNL     1       0.720   0.232  -0.039  0.00  0.00    +0.000 C 
ATOM      2  C   UNL     1       2.225   0.123   0.061  0.00  0.00    +0.000 C 
ATOM      3  C   UNL     1       3.031   0.912  -0.950  0.00  0.00    +0.000 C 
ATOM      4  C   UNL     1       3.029  -0.592  -1.037  0.00  0.00    +0.000 C 
ENDROOT
BRANCH   4   5
ATOM      5  C   UNL     1       2.345  -1.309  -2.178  0.00  0.00    +0.000 A 
ATOM      6  C   UNL     1       2.492  -0.891  -3.511  0.00  0.00    +0.000 A 
ATOM      7  C   UNL     1       1.873  -1.572  -4.563  0.00  0.00    +0.000 A 
ATOM      8  C   UNL     1       1.098  -2.698  -4.302  0.00  0.00    +0.000 A 
ATOM      9  C   UNL     1       0.947  -3.144  -2.993  0.00  0.00    +0.000 A 
ATOM     10  C   UNL     1       1.569  -2.458  -1.946  0.00  0.00    +0.000 A 
ENDBRANCH   4   5
BRANCH   2  11
ATOM     11  C   UNL     1       2.746   0.015   1.490  0.00  0.00    +0.000 A 
ATOM     12  C   UNL     1       2.912  -1.235   2.112  0.00  0.00    +0.000 A 
ATOM     13  C   UNL     1       3.377  -1.340   3.426  0.00  0.00    +0.000 A 
ATOM     14  C   UNL     1       3.681  -0.191   4.150  0.00  0.00    +0.000 A 
ATOM     15  C   UNL     1       3.518   1.060   3.561  0.00  0.00    +0.000 A 
ATOM     16  C   UNL     1       3.053   1.158   2.247  0.00  0.00    +0.000 A 
ENDBRANCH   2  11
TORSDOF 2
