REMARK  Name = *****
REMARK  5 active torsions:
REMARK  status: ('A' for Active; 'I' for Inactive)
REMARK    1  A    between atoms: C_1  and  C_2
REMARK    2  A    between atoms: C_5  and  C_8
REMARK    3  A    between atoms: C_8  and  C_10
REMARK    4  A    between atoms: C_10  and  S_12
REMARK    5  A    between atoms: S_12  and  C_13
REMARK                            x       y       z     vdW  Elec       q    Type
REMARK                         _______ _______ _______ _____ _____    ______ ____
ROOT
ATOM      1  C   UNL     1      -3.449   0.221  -0.119  0.00  0.00    +0.000 C 
ATOM      2  O   UNL     1      -3.505  -0.576   0.811  0.00  0.00    +0.000 OA
ENDROOT
BRANCH   1   7
ATOM      3  C   UNL     1      -0.667  -1.172  -5.014  0.00  0.00    +0.000 C 
ATOM      4  C   UNL     1      -1.361  -0.796  -3.738  0.00  0.00    +0.000 A 
ATOM      5  C   UNL     1      -1.584  -1.751  -2.741  0.00  0.00    +0.000 A 
ATOM      6  C   UNL     1      -2.257  -1.404  -1.567  0.00  0.00    +0.000 A 
ATOM      7  C   UNL     1      -2.729  -0.099  -1.381  0.00  0.00    +0.000 A 
ATOM      8  C   UNL     1      -2.517   0.858  -2.381  0.00  0.00    +0.000 A 
ATOM      9  C   UNL     1      -1.842   0.506  -3.554  0.00  0.00    +0.000 A 
ENDBRANCH   1   7
BRANCH   1  10
ATOM     10  C   UNL     1      -4.095   1.581   0.032  0.00  0.00    +0.000 C 
ATOM     11  O   UNL     1      -3.503   2.618   0.247  0.00  0.00    +0.000 OA
BRANCH  10  12
ATOM     12  S   UNL     1      -5.773   1.314  -0.304  0.00  0.00    +0.000 S 
BRANCH  12  13
ATOM     13  C   UNL     1      -6.521   2.949   0.008  0.00  0.00    +0.000 C 
ATOM     14  C   UNL     1      -6.068   4.010  -1.001  0.00  0.00    +0.000 C 
ATOM     15  C   UNL     1      -6.768   5.346  -0.747  0.00  0.00    +0.000 C 
ATOM     16  C   UNL     1      -6.589   5.811   0.696  0.00  0.00    +0.000 C 
ATOM     17  C   UNL     1      -7.060   4.753   1.690  0.00  0.00    +0.000 C 
ATOM     18  C   UNL     1      -6.362   3.411   1.462  0.00  0.00    +0.000 C 
ENDBRANCH  12  13
ENDBRANCH  10  12
ENDBRANCH   1  10
TORSDOF 4
