REMARK  Name = *****
REMARK  4 active torsions:
REMARK  status: ('A' for Active; 'I' for Inactive)
REMARK    1  A    between atoms: C_1  and  C_2
REMARK    2  A    between atoms: C_5  and  C_7
REMARK    3  A    between atoms: C_8  and  C_9
REMARK    4  A    between atoms: C_8  and  C_11
REMARK                            x       y       z     vdW  Elec       q    Type
REMARK                         _______ _______ _______ _____ _____    ______ ____
ROOT
ATOM      1  C   UNL     1      -3.002   0.500   0.039  0.00  0.00    +0.000 C 
ATOM      2  C   UNL     1      -4.101  -0.247  -0.191  0.00  0.00    +0.000 C 
ENDROOT
BRANCH   1   7
ATOM      3  C   UNL     1       2.154  -0.001   1.032  0.00  0.00    +0.000 C 
ATOM      4  C   UNL     1       0.786  -0.177   0.469  0.00  0.00    +0.000 A 
ATOM      5  C   UNL     1       0.364  -1.060  -0.498  0.00  0.00    +0.000 A 
ATOM      6  C   UNL     1      -1.028  -0.929  -0.779  0.00  0.00    +0.000 A 
ATOM      7  C   UNL     1      -1.652   0.037  -0.008  0.00  0.00    +0.000 A 
ATOM      8  S   UNL     1      -0.497   0.803   1.024  0.00  0.00    +0.000 S 
ENDBRANCH   1   7
BRANCH   2   9
ATOM      9  C   UNL     1      -5.421   0.413  -0.084  0.00  0.00    +0.000 A 
ATOM     10  C   UNL     1      -5.761   1.480  -0.932  0.00  0.00    +0.000 A 
ATOM     11  C   UNL     1      -7.010   2.097  -0.829  0.00  0.00    +0.000 A 
ATOM     12  C   UNL     1      -7.931   1.655   0.118  0.00  0.00    +0.000 A 
ATOM     13  C   UNL     1      -7.607   0.595   0.963  0.00  0.00    +0.000 A 
ATOM     14  C   UNL     1      -6.360  -0.025   0.863  0.00  0.00    +0.000 A 
ENDBRANCH   2   9
BRANCH   2  15
ATOM     15  C   UNL     1      -4.073  -1.648  -0.473  0.00  0.00    +0.000 C 
ATOM     16  N   UNL     1      -4.063  -2.785  -0.707  0.00  0.00    +0.000 NA
ENDBRANCH   2  15
TORSDOF 3
