REMARK  Name = *****
REMARK  4 active torsions:
REMARK  status: ('A' for Active; 'I' for Inactive)
REMARK    1  A    between atoms: C_1  and  C_2
REMARK    2  A    between atoms: C_2  and  C_3
REMARK    3  A    between atoms: C_2  and  C_11
REMARK    4  A    between atoms: C_4  and  C_5
REMARK                            x       y       z     vdW  Elec       q    Type
REMARK                         _______ _______ _______ _____ _____    ______ ____
ROOT
ATOM      1  C   UNL     1       1.017  -0.094   0.169  0.00  0.00    +0.000 C 
ATOM      2  C   UNL     1       2.540   0.009   0.029  0.00  0.00    +0.000 C 
ENDROOT
BRANCH   2   3
ATOM      3  C   UNL     1       3.013   1.437  -0.204  0.00  0.00    +0.000 A 
ATOM      4  C   UNL     1       4.086   1.943   0.548  0.00  0.00    +0.000 A 
ATOM      5  C   UNL     1       4.551   3.244   0.346  0.00  0.00    +0.000 A 
ATOM      6  C   UNL     1       3.956   4.056  -0.616  0.00  0.00    +0.000 A 
ATOM      7  C   UNL     1       2.900   3.566  -1.380  0.00  0.00    +0.000 A 
ATOM      8  C   UNL     1       2.433   2.265  -1.179  0.00  0.00    +0.000 A 
ENDBRANCH   2   3
BRANCH   2   9
ATOM      9  C   UNL     1       3.032  -0.913  -1.064  0.00  0.00    +0.000 C 
ATOM     10  C   UNL     1       3.855  -1.954  -0.851  0.00  0.00    +0.000 C 
BRANCH  10  11
ATOM     11  C   UNL     1       4.332  -2.852  -1.911  0.00  0.00    +0.000 A 
ATOM     12  C   UNL     1       4.698  -2.381  -3.179  0.00  0.00    +0.000 A 
ATOM     13  C   UNL     1       5.178  -3.261  -4.153  0.00  0.00    +0.000 A 
ATOM     14  C   UNL     1       5.307  -4.618  -3.865  0.00  0.00    +0.000 A 
ATOM     15  C   UNL     1       4.963  -5.095  -2.602  0.00  0.00    +0.000 A 
ATOM     16  C   UNL     1       4.484  -4.215  -1.628  0.00  0.00    +0.000 A 
ENDBRANCH  10  11
ENDBRANCH   2   9
TORSDOF 3
