REMARK  Name = *****
REMARK  3 active torsions:
REMARK  status: ('A' for Active; 'I' for Inactive)
REMARK    1  A    between atoms: C_4  and  C_7
REMARK    2  A    between atoms: C_7  and  C_9
REMARK    3  A    between atoms: C_9  and  C_10
REMARK                            x       y       z     vdW  Elec       q    Type
REMARK                         _______ _______ _______ _____ _____    ______ ____
ROOT
ATOM      1  C   UNL     1      -3.775  -0.875  -0.478  0.00  0.00    +0.000 C 
ENDROOT
BRANCH   1   2
ATOM      2  C   UNL     1      -5.053  -0.073  -0.568  0.00  0.00    +0.000 A 
ATOM      3  C   UNL     1      -5.470   0.677   0.541  0.00  0.00    +0.000 A 
ATOM      4  C   UNL     1      -6.646   1.424   0.532  0.00  0.00    +0.000 A 
ATOM      5  C   UNL     1      -7.452   1.426  -0.600  0.00  0.00    +0.000 A 
ATOM      6  C   UNL     1      -7.075   0.673  -1.711  0.00  0.00    +0.000 A 
ATOM      7  C   UNL     1      -5.890  -0.076  -1.694  0.00  0.00    +0.000 A 
ATOM      8 CL   UNL     1      -5.525  -0.992  -3.113  0.00  0.00    +0.000 Cl
ATOM      9  F   UNL     1      -4.728   0.686   1.657  0.00  0.00    +0.000 F 
ENDBRANCH   1   2
BRANCH   1  10
ATOM     10  C   UNL     1      -2.560  -0.102   0.006  0.00  0.00    +0.000 C 
ATOM     11  O   UNL     1      -1.875  -0.512   0.943  0.00  0.00    +0.000 OA
BRANCH  10  15
ATOM     12  C   UNL     1      -1.344   3.542  -1.895  0.00  0.00    +0.000 A 
ATOM     13  C   UNL     1      -1.055   3.311  -0.552  0.00  0.00    +0.000 A 
ATOM     14  C   UNL     1      -1.455   2.118   0.052  0.00  0.00    +0.000 A 
ATOM     15  C   UNL     1      -2.154   1.154  -0.685  0.00  0.00    +0.000 A 
ATOM     16  C   UNL     1      -2.429   1.384  -2.038  0.00  0.00    +0.000 A 
ATOM     17  C   UNL     1      -2.027   2.579  -2.638  0.00  0.00    +0.000 A 
ENDBRANCH  10  15
ENDBRANCH   1  10
TORSDOF 3
