REMARK  Name = *****
REMARK  3 active torsions:
REMARK  status: ('A' for Active; 'I' for Inactive)
REMARK    1  A    between atoms: C_4  and  O_7
REMARK    2  A    between atoms: O_7  and  C_8
REMARK    3  A    between atoms: C_8  and  C_10
REMARK                            x       y       z     vdW  Elec       q    Type
REMARK                         _______ _______ _______ _____ _____    ______ ____
ROOT
ATOM      1  C   UNL     1      -0.403  -2.385   2.402  0.00  0.00    +0.000 C 
ATOM      2  O   UNL     1      -1.013  -3.310   1.891  0.00  0.00    +0.000 OA
ENDROOT
BRANCH   1   3
ATOM      3  C   UNL     1      -0.226  -2.225   3.871  0.00  0.00    +0.000 A 
ATOM      4  C   UNL     1      -0.742  -3.221   4.712  0.00  0.00    +0.000 A 
ATOM      5  C   UNL     1      -0.603  -3.117   6.099  0.00  0.00    +0.000 A 
ATOM      6  C   UNL     1       0.052  -2.015   6.648  0.00  0.00    +0.000 A 
ATOM      7  C   UNL     1       0.568  -1.018   5.822  0.00  0.00    +0.000 A 
ATOM      8  C   UNL     1       0.430  -1.120   4.434  0.00  0.00    +0.000 A 
ATOM      9 CL   UNL     1       0.224  -1.886   8.354  0.00  0.00    +0.000 Cl
ENDBRANCH   1   3
BRANCH   1  10
ATOM     10  O   UNL     1       0.202  -1.374   1.737  0.00  0.00    +0.000 OA
BRANCH  10  14
ATOM     11  C   UNL     1      -0.387   1.678  -0.335  0.00  0.00    +0.000 C 
ATOM     12  C   UNL     1       0.980   1.208   0.147  0.00  0.00    +0.000 C 
ATOM     13  S   UNL     1       1.424  -0.448  -0.465  0.00  0.00    +0.000 S 
ATOM     14  C   UNL     1       0.072  -1.419   0.307  0.00  0.00    +0.000 C 
ATOM     15  C   UNL     1      -1.314  -0.937  -0.157  0.00  0.00    +0.000 C 
ATOM     16  S   UNL     1      -1.769   0.748   0.401  0.00  0.00    +0.000 S 
ENDBRANCH  10  14
ENDBRANCH   1  10
TORSDOF 3
