REMARK  Name = *****
REMARK  4 active torsions:
REMARK  status: ('A' for Active; 'I' for Inactive)
REMARK    1  A    between atoms: C_4  and  O_7
REMARK    2  A    between atoms: O_7  and  S_8
REMARK    3  A    between atoms: S_8  and  C_9
REMARK    4  A    between atoms: C_9  and  C_11
REMARK                            x       y       z     vdW  Elec       q    Type
REMARK                         _______ _______ _______ _____ _____    ______ ____
ROOT
ATOM      1  S   UNL     1       3.891  -1.433   1.164  0.00  0.00    +0.000 S 
ENDROOT
BRANCH   1   2
ATOM      2  C   UNL     1       4.330  -2.487  -0.190  0.00  0.00    +0.000 C 
ATOM      3  O   UNL     1       3.897  -2.300  -1.323  0.00  0.00    +0.000 OA
BRANCH   2   4
ATOM      4  C   UNL     1       5.257  -3.630   0.080  0.00  0.00    +0.000 A 
ATOM      5  C   UNL     1       5.704  -3.994   1.359  0.00  0.00    +0.000 A 
ATOM      6  C   UNL     1       6.569  -5.080   1.526  0.00  0.00    +0.000 A 
ATOM      7  C   UNL     1       6.996  -5.814   0.421  0.00  0.00    +0.000 A 
ATOM      8  C   UNL     1       6.560  -5.465  -0.855  0.00  0.00    +0.000 A 
ATOM      9  C   UNL     1       5.695  -4.382  -1.024  0.00  0.00    +0.000 A 
ENDBRANCH   2   4
ENDBRANCH   1   2
BRANCH   1  10
ATOM     10  O   UNL     1       3.004  -0.321   0.290  0.00  0.00    +0.000 OA
BRANCH  10  14
ATOM     11  C   UNL     1      -1.112   0.166  -0.613  0.00  0.00    +0.000 C 
ATOM     12  C   UNL     1      -0.592  -1.259  -0.450  0.00  0.00    +0.000 C 
ATOM     13  C   UNL     1       0.931  -1.316  -0.525  0.00  0.00    +0.000 C 
ATOM     14  C   UNL     1       1.587  -0.369   0.486  0.00  0.00    +0.000 C 
ATOM     15  C   UNL     1       1.059   1.058   0.307  0.00  0.00    +0.000 C 
ATOM     16  C   UNL     1      -0.462   1.118   0.386  0.00  0.00    +0.000 C 
ENDBRANCH  10  14
ENDBRANCH   1  10
TORSDOF 4
