REMARK  Name = *****
REMARK  2 active torsions:
REMARK  status: ('A' for Active; 'I' for Inactive)
REMARK    1  A    between atoms: C_5  and  N_7
REMARK    2  A    between atoms: C_8  and  C_9
REMARK                            x       y       z     vdW  Elec       q    Type
REMARK                         _______ _______ _______ _____ _____    ______ ____
ROOT
ATOM      1  N   UNL     1       0.888  -2.442  -0.300  0.00  0.00    +0.000 NA
ATOM      2  C   UNL     1       2.074  -2.540   0.210  0.00  0.00    +0.000 C 
ENDROOT
BRANCH   1   7
ATOM      3  C   UNL     1      -1.811  -0.023   0.449  0.00  0.00    +0.000 A 
ATOM      4  C   UNL     1      -1.234   1.191   0.076  0.00  0.00    +0.000 A 
ATOM      5  C   UNL     1       0.065   1.214  -0.429  0.00  0.00    +0.000 A 
ATOM      6  C   UNL     1       0.779   0.023  -0.553  0.00  0.00    +0.000 A 
ATOM      7  C   UNL     1       0.223  -1.207  -0.168  0.00  0.00    +0.000 A 
ATOM      8  C   UNL     1      -1.086  -1.213   0.322  0.00  0.00    +0.000 A 
ATOM      9  F   UNL     1       2.027   0.077  -1.045  0.00  0.00    +0.000 F 
ENDBRANCH   1   7
BRANCH   2  10
ATOM     10  C   UNL     1       2.860  -3.786   0.113  0.00  0.00    +0.000 A 
ATOM     11  C   UNL     1       2.340  -4.914  -0.533  0.00  0.00    +0.000 A 
ATOM     12  C   UNL     1       3.101  -6.081  -0.611  0.00  0.00    +0.000 A 
ATOM     13  C   UNL     1       4.371  -6.110  -0.045  0.00  0.00    +0.000 A 
ATOM     14  C   UNL     1       4.897  -4.993   0.599  0.00  0.00    +0.000 A 
ATOM     15  C   UNL     1       4.140  -3.822   0.680  0.00  0.00    +0.000 A 
ATOM     16  F   UNL     1       5.101  -7.230  -0.119  0.00  0.00    +0.000 F 
ENDBRANCH   2  10
TORSDOF 2
