REMARK  Name = *****
REMARK  3 active torsions:
REMARK  status: ('A' for Active; 'I' for Inactive)
REMARK    1  A    between atoms: C_5  and  O_7
REMARK    2  A    between atoms: O_7  and  C_8
REMARK    3  A    between atoms: C_8  and  C_10
REMARK                            x       y       z     vdW  Elec       q    Type
REMARK                         _______ _______ _______ _____ _____    ______ ____
ROOT
ATOM      1  O   UNL     1      -0.380  -2.459   0.618  0.00  0.00    +0.000 OA
ENDROOT
BRANCH   1   6
ATOM      2  C   UNL     1       2.384  -0.049   0.388  0.00  0.00    +0.000 A 
ATOM      3  C   UNL     1       1.718   1.082  -0.090  0.00  0.00    +0.000 A 
ATOM      4  C   UNL     1       0.342   1.037  -0.337  0.00  0.00    +0.000 A 
ATOM      5  C   UNL     1      -0.367  -0.142  -0.112  0.00  0.00    +0.000 A 
ATOM      6  C   UNL     1       0.311  -1.274   0.348  0.00  0.00    +0.000 A 
ATOM      7  C   UNL     1       1.680  -1.232   0.616  0.00  0.00    +0.000 A 
ATOM      8 CL   UNL     1      -2.068  -0.164  -0.392  0.00  0.00    +0.000 Cl
ENDBRANCH   1   6
BRANCH   1   9
ATOM      9  C   UNL     1      -0.479  -3.297  -0.493  0.00  0.00    +0.000 C 
ATOM     10  O   UNL     1       0.049  -3.085  -1.580  0.00  0.00    +0.000 OA
BRANCH   9  11
ATOM     11  C   UNL     1      -1.286  -4.453  -0.141  0.00  0.00    +0.000 A 
ATOM     12  C   UNL     1      -1.945  -4.746   1.041  0.00  0.00    +0.000 A 
ATOM     13  C   UNL     1      -2.637  -5.992   0.989  0.00  0.00    +0.000 A 
ATOM     14  C   UNL     1      -2.487  -6.613  -0.229  0.00  0.00    +0.000 A 
ATOM     15  S   UNL     1      -1.520  -5.697  -1.300  0.00  0.00    +0.000 S 
ENDBRANCH   9  11
ENDBRANCH   1   9
TORSDOF 3
