REMARK  Name = *****
REMARK  5 active torsions:
REMARK  status: ('A' for Active; 'I' for Inactive)
REMARK    1  A    between atoms: C_1  and  C_2
REMARK    2  A    between atoms: C_5  and  C_17
REMARK    3  A    between atoms: C_7  and  C_9
REMARK    4  A    between atoms: C_9  and  C_10
REMARK    5  A    between atoms: C_10  and  C_11
REMARK                            x       y       z     vdW  Elec       q    Type
REMARK                         _______ _______ _______ _____ _____    ______ ____
ROOT
ATOM      1  C   UNL     1       2.369   0.351   1.567  0.00  0.00    +0.000 C 
ATOM      2  C   UNL     1       2.523   0.046   0.077  0.00  0.00    +0.000 C 
ATOM      3  C   UNL     1       3.123   1.211  -0.730  0.00  0.00    +0.000 C 
ATOM      4  C   UNL     1       4.472   1.713  -0.293  0.00  0.00    +0.000 C 
ATOM      5  C   UNL     1       5.484   0.976   0.198  0.00  0.00    +0.000 C 
ATOM      6  C   UNL     1       5.483  -0.536   0.311  0.00  0.00    +0.000 C 
ATOM      7  C   UNL     1       4.473  -1.286  -0.580  0.00  0.00    +0.000 C 
ATOM      8  O   UNL     1       3.140  -1.232  -0.072  0.00  0.00    +0.000 OA
ATOM      9  C   UNL     1       6.750   1.638   0.679  0.00  0.00    +0.000 C 
ENDROOT
BRANCH   7  10
ATOM     10  C   UNL     1       4.856  -2.776  -0.645  0.00  0.00    +0.000 C 
BRANCH  10  11
ATOM     11  C   UNL     1       3.934  -3.567  -1.580  0.00  0.00    +0.000 C 
BRANCH  11  12
ATOM     12  C   UNL     1       4.357  -5.012  -1.681  0.00  0.00    +0.000 A 
ATOM     13  C   UNL     1       3.868  -5.958  -0.771  0.00  0.00    +0.000 A 
ATOM     14  C   UNL     1       4.272  -7.292  -0.851  0.00  0.00    +0.000 A 
ATOM     15  C   UNL     1       5.171  -7.690  -1.838  0.00  0.00    +0.000 A 
ATOM     16  C   UNL     1       5.669  -6.756  -2.745  0.00  0.00    +0.000 A 
ATOM     17  C   UNL     1       5.265  -5.422  -2.666  0.00  0.00    +0.000 A 
ENDBRANCH  11  12
ENDBRANCH  10  11
ENDBRANCH   7  10
TORSDOF 3
