REMARK  Name = *****
REMARK  3 active torsions:
REMARK  status: ('A' for Active; 'I' for Inactive)
REMARK    1  A    between atoms: C_4  and  C_6
REMARK    2  A    between atoms: C_6  and  O_8
REMARK    3  A    between atoms: O_8  and  C_9
REMARK                            x       y       z     vdW  Elec       q    Type
REMARK                         _______ _______ _______ _____ _____    ______ ____
ROOT
ATOM      1  O   UNL     1      -2.560   1.558   1.728  0.00  0.00    +0.000 OA
ENDROOT
BRANCH   1   2
ATOM      2  C   UNL     1      -2.974   2.171   2.916  0.00  0.00    +0.000 A 
ATOM      3  C   UNL     1      -2.739   3.527   3.144  0.00  0.00    +0.000 A 
ATOM      4  C   UNL     1      -3.214   4.114   4.318  0.00  0.00    +0.000 A 
ATOM      5  C   UNL     1      -3.931   3.345   5.236  0.00  0.00    +0.000 A 
ATOM      6  C   UNL     1      -4.182   1.994   4.990  0.00  0.00    +0.000 A 
ATOM      7  C   UNL     1      -3.707   1.402   3.819  0.00  0.00    +0.000 A 
ATOM      8 CL   UNL     1      -4.520   4.072   6.680  0.00  0.00    +0.000 Cl
ENDBRANCH   1   2
BRANCH   1   9
ATOM      9  C   UNL     1      -1.179   1.482   1.549  0.00  0.00    +0.000 C 
ATOM     10  O   UNL     1      -0.323   1.874   2.330  0.00  0.00    +0.000 OA
BRANCH   9  14
ATOM     11  C   UNL     1       1.266  -0.253   0.139  0.00  0.00    +0.000 C 
ATOM     12  C   UNL     1       0.235  -1.337  -0.117  0.00  0.00    +0.000 C 
ATOM     13  C   UNL     1      -1.078  -0.722   0.356  0.00  0.00    +0.000 C 
ATOM     14  C   UNL     1      -0.908   0.797   0.220  0.00  0.00    +0.000 C 
ATOM     15  C   UNL     1       0.531   1.016  -0.263  0.00  0.00    +0.000 C 
ENDBRANCH   9  14
ENDBRANCH   1   9
TORSDOF 3
