REMARK  Name = *****
REMARK  4 active torsions:
REMARK  status: ('A' for Active; 'I' for Inactive)
REMARK    1  A    between atoms: C_4  and  O_7
REMARK    2  A    between atoms: O_7  and  C_8
REMARK    3  A    between atoms: C_8  and  C_10
REMARK    4  A    between atoms: C_11  and  C_17
REMARK                            x       y       z     vdW  Elec       q    Type
REMARK                         _______ _______ _______ _____ _____    ______ ____
ROOT
ATOM      1  C   UNL     1      -5.093  -0.575  -0.552  0.00  0.00    +0.000 A 
ATOM      2  C   UNL     1      -5.427   0.521  -1.366  0.00  0.00    +0.000 A 
ATOM      3  C   UNL     1      -6.781   0.898  -1.458  0.00  0.00    +0.000 A 
ATOM      4  C   UNL     1      -7.768   0.207  -0.751  0.00  0.00    +0.000 A 
ATOM      5  C   UNL     1      -7.419  -0.877   0.051  0.00  0.00    +0.000 A 
ATOM      6  C   UNL     1      -6.087  -1.265   0.143  0.00  0.00    +0.000 A 
ATOM      7  F   UNL     1      -5.782  -2.329   0.900  0.00  0.00    +0.000 F 
ENDROOT
BRANCH   2   8
ATOM      8  C   UNL     1      -4.374   1.284  -2.130  0.00  0.00    +0.000 C 
ATOM      9  F   UNL     1      -3.253   1.530  -1.398  0.00  0.00    +0.000 F 
ATOM     10  F   UNL     1      -3.980   0.656  -3.267  0.00  0.00    +0.000 F 
ATOM     11  F   UNL     1      -4.814   2.514  -2.528  0.00  0.00    +0.000 F 
ENDBRANCH   2   8
BRANCH   1  12
ATOM     12  C   UNL     1      -3.705  -1.048  -0.454  0.00  0.00    +0.000 C 
ATOM     13  O   UNL     1      -3.027  -1.300  -1.434  0.00  0.00    +0.000 OA
BRANCH  12  14
ATOM     14  O   UNL     1      -3.351  -1.050   0.879  0.00  0.00    +0.000 OA
BRANCH  14  18
ATOM     15  C   UNL     1       0.528  -2.162   1.958  0.00  0.00    +0.000 A 
ATOM     16  C   UNL     1       0.350  -1.154   1.007  0.00  0.00    +0.000 A 
ATOM     17  C   UNL     1      -0.935  -0.774   0.622  0.00  0.00    +0.000 A 
ATOM     18  C   UNL     1      -2.035  -1.425   1.180  0.00  0.00    +0.000 A 
ATOM     19  C   UNL     1      -1.868  -2.418   2.145  0.00  0.00    +0.000 A 
ATOM     20  C   UNL     1      -0.580  -2.792   2.529  0.00  0.00    +0.000 A 
ENDBRANCH  14  18
ENDBRANCH  12  14
ENDBRANCH   1  12
TORSDOF 4
