REMARK  Name = *****
REMARK  3 active torsions:
REMARK  status: ('A' for Active; 'I' for Inactive)
REMARK    1  A    between atoms: C_1  and  C_2
REMARK    2  A    between atoms: C_5  and  C_7
REMARK    3  A    between atoms: C_8  and  C_9
REMARK                            x       y       z     vdW  Elec       q    Type
REMARK                         _______ _______ _______ _____ _____    ______ ____
ROOT
ATOM      1  C   UNL     1       5.810  -1.454   0.013  0.00  0.00    +0.000 C 
ATOM      2  C   UNL     1       6.724  -2.234  -0.005  0.00  0.00    +0.000 C 
ENDROOT
BRANCH   1   7
ATOM      3  C   UNL     1       1.210  -0.191   0.027  0.00  0.00    +0.000 C 
ATOM      4  C   UNL     1       2.658   0.092   0.034  0.00  0.00    +0.000 A 
ATOM      5  C   UNL     1       3.400   1.255   0.051  0.00  0.00    +0.000 A 
ATOM      6  C   UNL     1       4.761   0.861   0.048  0.00  0.00    +0.000 A 
ATOM      7  C   UNL     1       4.756  -0.512   0.029  0.00  0.00    +0.000 A 
ATOM      8  O   UNL     1       3.486  -0.993   0.021  0.00  0.00    +0.000 OA
ENDBRANCH   1   7
BRANCH   2   9
ATOM      9  C   UNL     1       7.828  -3.142  -0.033  0.00  0.00    +0.000 A 
ATOM     10  C   UNL     1       9.131  -2.650  -0.145  0.00  0.00    +0.000 A 
ATOM     11  C   UNL     1      10.212  -3.533  -0.176  0.00  0.00    +0.000 A 
ATOM     12  C   UNL     1       9.992  -4.907  -0.095  0.00  0.00    +0.000 A 
ATOM     13  C   UNL     1       8.692  -5.401   0.018  0.00  0.00    +0.000 A 
ATOM     14  C   UNL     1       7.610  -4.519   0.049  0.00  0.00    +0.000 A 
ENDBRANCH   2   9
TORSDOF 2
