REMARK  Name = *****
REMARK  4 active torsions:
REMARK  status: ('A' for Active; 'I' for Inactive)
REMARK    1  A    between atoms: C_4  and  C_7
REMARK    2  A    between atoms: C_7  and  C_8
REMARK    3  A    between atoms: C_8  and  C_9
REMARK    4  A    between atoms: C_9  and  C_11
REMARK                            x       y       z     vdW  Elec       q    Type
REMARK                         _______ _______ _______ _____ _____    ______ ____
ROOT
ATOM      1  C   UNL     1      -2.931   1.265  -1.483  0.00  0.00    +0.000 C 
ENDROOT
BRANCH   1   2
ATOM      2  C   UNL     1      -3.051   0.647  -0.093  0.00  0.00    +0.000 C 
ATOM      3  F   UNL     1      -4.112   1.252   0.529  0.00  0.00    +0.000 F 
BRANCH   2   7
ATOM      4  C   UNL     1      -3.599  -3.627  -0.406  0.00  0.00    +0.000 A 
ATOM      5  C   UNL     1      -2.324  -3.077  -0.528  0.00  0.00    +0.000 A 
ATOM      6  C   UNL     1      -2.145  -1.697  -0.420  0.00  0.00    +0.000 A 
ATOM      7  C   UNL     1      -3.242  -0.853  -0.191  0.00  0.00    +0.000 A 
ATOM      8  C   UNL     1      -4.519  -1.419  -0.068  0.00  0.00    +0.000 A 
ATOM      9  C   UNL     1      -4.696  -2.799  -0.175  0.00  0.00    +0.000 A 
ENDBRANCH   2   7
ENDBRANCH   1   2
BRANCH   1  10
ATOM     10  C   UNL     1      -2.407   2.680  -1.387  0.00  0.00    +0.000 C 
ATOM     11  O   UNL     1      -1.631   3.033  -0.500  0.00  0.00    +0.000 OA
BRANCH  10  12
ATOM     12  C   UNL     1      -2.797   3.664  -2.439  0.00  0.00    +0.000 A 
ATOM     13  C   UNL     1      -2.660   5.030  -2.156  0.00  0.00    +0.000 A 
ATOM     14  C   UNL     1      -3.009   5.986  -3.112  0.00  0.00    +0.000 A 
ATOM     15  C   UNL     1      -3.488   5.582  -4.357  0.00  0.00    +0.000 A 
ATOM     16  C   UNL     1      -3.616   4.225  -4.649  0.00  0.00    +0.000 A 
ATOM     17  C   UNL     1      -3.270   3.265  -3.695  0.00  0.00    +0.000 A 
ENDBRANCH  10  12
ENDBRANCH   1  10
TORSDOF 4
