REMARK  Name = *****
REMARK  5 active torsions:
REMARK  status: ('A' for Active; 'I' for Inactive)
REMARK    1  A    between atoms: C_1  and  C_2
REMARK    2  A    between atoms: C_4  and  C_16
REMARK    3  A    between atoms: C_6  and  O_8
REMARK    4  A    between atoms: O_8  and  C_9
REMARK    5  A    between atoms: C_9  and  C_11
REMARK                            x       y       z     vdW  Elec       q    Type
REMARK                         _______ _______ _______ _____ _____    ______ ____
ROOT
ATOM      1  C   UNL     1       2.577   1.133   0.055  0.00  0.00    +0.000 C 
ATOM      2  C   UNL     1       1.305   0.338   0.051  0.00  0.00    +0.000 A 
ATOM      3  C   UNL     1       0.056   0.976  -0.012  0.00  0.00    +0.000 A 
ATOM      4  C   UNL     1      -1.133   0.234  -0.015  0.00  0.00    +0.000 A 
ATOM      5  C   UNL     1      -1.065  -1.163   0.032  0.00  0.00    +0.000 A 
ATOM      6  C   UNL     1       0.176  -1.797   0.071  0.00  0.00    +0.000 A 
ATOM      7  C   UNL     1       1.358  -1.060   0.103  0.00  0.00    +0.000 A 
ATOM      8  C   UNL     1      -2.468   0.915  -0.073  0.00  0.00    +0.000 C 
ENDROOT
BRANCH   6   9
ATOM      9  O   UNL     1       0.158  -3.199   0.172  0.00  0.00    +0.000 OA
BRANCH   9  10
ATOM     10  C   UNL     1       1.016  -3.946  -0.635  0.00  0.00    +0.000 C 
ATOM     11  O   UNL     1       1.774  -3.508  -1.491  0.00  0.00    +0.000 OA
BRANCH  10  12
ATOM     12  C   UNL     1       0.792  -5.422  -0.364  0.00  0.00    +0.000 C 
ATOM     13  C   UNL     1       0.714  -5.769   1.122  0.00  0.00    +0.000 C 
ATOM     14  C   UNL     1       1.138  -7.233   1.227  0.00  0.00    +0.000 C 
ATOM     15  C   UNL     1       1.743  -7.604  -0.123  0.00  0.00    +0.000 C 
ATOM     16  C   UNL     1       1.958  -6.282  -0.843  0.00  0.00    +0.000 C 
ENDBRANCH  10  12
ENDBRANCH   9  10
ENDBRANCH   6   9
TORSDOF 3
