REMARK  Name = *****
REMARK  3 active torsions:
REMARK  status: ('A' for Active; 'I' for Inactive)
REMARK    1  A    between atoms: C_1  and  C_2
REMARK    2  A    between atoms: C_5  and  S_8
REMARK    3  A    between atoms: S_8  and  C_10
REMARK                            x       y       z     vdW  Elec       q    Type
REMARK                         _______ _______ _______ _____ _____    ______ ____
ROOT
ATOM      1  S   UNL     1      -3.891  -0.258   1.603  0.00  0.00    +0.000 S 
ATOM      2  O   UNL     1      -3.790  -0.321   3.100  0.00  0.00    +0.000 OA
ENDROOT
BRANCH   1   3
ATOM      3  C   UNL     1      -4.270   1.437   1.168  0.00  0.00    +0.000 C 
ATOM      4  C   UNL     1      -5.145   1.741   0.184  0.00  0.00    +0.000 C 
ATOM      5  C   UNL     1      -5.914   0.700  -0.621  0.00  0.00    +0.000 C 
ATOM      6  C   UNL     1      -7.342   1.145  -0.936  0.00  0.00    +0.000 C 
ATOM      7  C   UNL     1      -7.355   2.478  -1.678  0.00  0.00    +0.000 C 
ATOM      8  C   UNL     1      -6.397   3.459  -1.078  0.00  0.00    +0.000 C 
ATOM      9  C   UNL     1      -5.421   3.122  -0.221  0.00  0.00    +0.000 C 
ATOM     10 CL   UNL     1      -3.409   2.616   2.103  0.00  0.00    +0.000 Cl
ENDBRANCH   1   3
BRANCH   1  15
ATOM     11  C   UNL     1       1.839  -0.651  -0.524  0.00  0.00    +0.000 C 
ATOM     12  C   UNL     1       0.434  -0.584  -0.004  0.00  0.00    +0.000 A 
ATOM     13  C   UNL     1      -0.643  -0.419  -0.883  0.00  0.00    +0.000 A 
ATOM     14  C   UNL     1      -1.949  -0.322  -0.395  0.00  0.00    +0.000 A 
ATOM     15  C   UNL     1      -2.193  -0.371   0.982  0.00  0.00    +0.000 A 
ATOM     16  C   UNL     1      -1.118  -0.530   1.862  0.00  0.00    +0.000 A 
ATOM     17  C   UNL     1       0.187  -0.626   1.373  0.00  0.00    +0.000 A 
ENDBRANCH   1  15
TORSDOF 2
