REMARK  Name = *****
REMARK  3 active torsions:
REMARK  status: ('A' for Active; 'I' for Inactive)
REMARK    1  A    between atoms: C_1  and  C_2
REMARK    2  A    between atoms: C_2  and  C_7
REMARK    3  A    between atoms: C_7  and  C_8
REMARK                            x       y       z     vdW  Elec       q    Type
REMARK                         _______ _______ _______ _____ _____    ______ ____
ROOT
ATOM      1  C   UNL     1       3.163  -0.661  -1.093  0.00  0.00    +0.000 C 
ENDROOT
BRANCH   1   2
ATOM      2  C   UNL     1       2.943  -2.158  -1.096  0.00  0.00    +0.000 A 
ATOM      3  C   UNL     1       2.147  -2.761  -2.081  0.00  0.00    +0.000 A 
ATOM      4  C   UNL     1       1.942  -4.143  -2.078  0.00  0.00    +0.000 A 
ATOM      5  C   UNL     1       2.531  -4.928  -1.089  0.00  0.00    +0.000 A 
ATOM      6  C   UNL     1       3.323  -4.345  -0.103  0.00  0.00    +0.000 A 
ATOM      7  C   UNL     1       3.528  -2.963  -0.106  0.00  0.00    +0.000 A 
ATOM      8 CL   UNL     1       2.277  -6.630  -1.085  0.00  0.00    +0.000 Cl
ENDBRANCH   1   2
BRANCH   1  10
ATOM      9  C   UNL     1       0.944   0.068  -0.062  0.00  0.00    +0.000 C 
ATOM     10  C   UNL     1       2.448   0.054   0.040  0.00  0.00    +0.000 C 
ATOM     11  C   UNL     1       3.109   0.661   1.047  0.00  0.00    +0.000 C 
ATOM     12  C   UNL     1       4.579   0.807   1.394  0.00  0.00    +0.000 C 
ATOM     13  C   UNL     1       4.101   1.977   2.276  0.00  0.00    +0.000 C 
ATOM     14  C   UNL     1       2.659   1.431   2.275  0.00  0.00    +0.000 C 
ENDBRANCH   1  10
TORSDOF 2
