REMARK  Name = *****
REMARK  4 active torsions:
REMARK  status: ('A' for Active; 'I' for Inactive)
REMARK    1  A    between atoms: C_1  and  C_2
REMARK    2  A    between atoms: N_7  and  C_8
REMARK    3  A    between atoms: C_8  and  C_9
REMARK    4  A    between atoms: C_8  and  C_10
REMARK                            x       y       z     vdW  Elec       q    Type
REMARK                         _______ _______ _______ _____ _____    ______ ____
ROOT
ATOM      1  C   UNL     1       0.948   2.374   1.174  0.00  0.00    +0.000 C 
ATOM      2  C   UNL     1      -0.298   2.079   2.010  0.00  0.00    +0.000 C 
ENDROOT
BRANCH   1   9
ATOM      3  C   UNL     1       1.063  -0.778   0.043  0.00  0.00    +0.000 C 
ATOM      4  C   UNL     1       2.385  -0.027   0.017  0.00  0.00    +0.000 C 
ATOM      5  C   UNL     1       3.558  -1.023  -0.052  0.00  0.00    +0.000 C 
ATOM      6  C   UNL     1       4.672  -0.402   0.779  0.00  0.00    +0.000 C 
ATOM      7  C   UNL     1       3.945   0.203   1.967  0.00  0.00    +0.000 C 
ATOM      8  C   UNL     1       2.699   0.726   1.298  0.00  0.00    +0.000 C 
ATOM      9  N   UNL     1       2.091   1.729   1.821  0.00  0.00    +0.000 NA
ENDBRANCH   1   9
BRANCH   1  10
ATOM     10  C   UNL     1       1.145   3.878   1.052  0.00  0.00    +0.000 A 
ATOM     11  C   UNL     1       0.603   4.572  -0.042  0.00  0.00    +0.000 A 
ATOM     12  C   UNL     1       0.755   5.956  -0.154  0.00  0.00    +0.000 A 
ATOM     13  C   UNL     1       1.445   6.664   0.827  0.00  0.00    +0.000 A 
ATOM     14  C   UNL     1       1.982   5.991   1.921  0.00  0.00    +0.000 A 
ATOM     15  C   UNL     1       1.831   4.608   2.035  0.00  0.00    +0.000 A 
ENDBRANCH   1  10
TORSDOF 2
