REMARK  Name = *****
REMARK  6 active torsions:
REMARK  status: ('A' for Active; 'I' for Inactive)
REMARK    1  A    between atoms: C_1  and  C_2
REMARK    2  A    between atoms: C_5  and  S_8
REMARK    3  A    between atoms: S_8  and  C_9
REMARK    4  A    between atoms: C_9  and  C_10
REMARK    5  A    between atoms: C_12  and  O_16
REMARK    6  A    between atoms: O_16  and  C_17
REMARK                            x       y       z     vdW  Elec       q    Type
REMARK                         _______ _______ _______ _____ _____    ______ ____
ROOT
ATOM      1  C   UNL     1      -3.531   1.418  -0.291  0.00  0.00    +0.000 C 
ENDROOT
BRANCH   1   2
ATOM      2  C   UNL     1      -2.435   2.448  -0.160  0.00  0.00    +0.000 A 
ATOM      3  C   UNL     1      -1.439   2.571  -1.147  0.00  0.00    +0.000 A 
ATOM      4  C   UNL     1      -0.420   3.517  -1.018  0.00  0.00    +0.000 A 
ATOM      5  C   UNL     1      -0.411   4.366   0.090  0.00  0.00    +0.000 A 
ATOM      6  C   UNL     1      -1.395   4.261   1.073  0.00  0.00    +0.000 A 
ATOM      7  C   UNL     1      -2.401   3.304   0.950  0.00  0.00    +0.000 A 
BRANCH   4   8
ATOM      8  O   UNL     1       0.607   3.716  -1.899  0.00  0.00    +0.000 OA
ATOM      9  C   UNL     1       0.761   2.748  -2.929  0.00  0.00    +0.000 C 
ENDBRANCH   4   8
ENDBRANCH   1   2
BRANCH   1  10
ATOM     10  S   UNL     1      -2.932  -0.306  -0.263  0.00  0.00    +0.000 S 
BRANCH  10  15
ATOM     11  C   UNL     1      -0.247  -0.511   5.205  0.00  0.00    +0.000 C 
ATOM     12  C   UNL     1      -0.912  -0.435   3.862  0.00  0.00    +0.000 A 
ATOM     13  C   UNL     1      -2.296  -0.250   3.766  0.00  0.00    +0.000 A 
ATOM     14  C   UNL     1      -2.920  -0.210   2.516  0.00  0.00    +0.000 A 
ATOM     15  C   UNL     1      -2.168  -0.355   1.348  0.00  0.00    +0.000 A 
ATOM     16  C   UNL     1      -0.791  -0.569   1.443  0.00  0.00    +0.000 A 
ATOM     17  C   UNL     1      -0.166  -0.610   2.691  0.00  0.00    +0.000 A 
ENDBRANCH  10  15
ENDBRANCH   1  10
TORSDOF 4
