REMARK  Name = *****
REMARK  4 active torsions:
REMARK  status: ('A' for Active; 'I' for Inactive)
REMARK    1  A    between atoms: C_1  and  C_2
REMARK    2  A    between atoms: C_5  and  C_8
REMARK    3  A    between atoms: C_8  and  N_9
REMARK    4  A    between atoms: N_9  and  C_10
REMARK                            x       y       z     vdW  Elec       q    Type
REMARK                         _______ _______ _______ _____ _____    ______ ____
ROOT
ATOM      1  C   UNL     1      -3.294   0.182  -0.128  0.00  0.00    +0.000 C 
ENDROOT
BRANCH   1   6
ATOM      2  C   UNL     1       2.474  -0.091   0.058  0.00  0.00    +0.000 C 
ATOM      3  C   UNL     1       0.976  -0.017   0.040  0.00  0.00    +0.000 A 
ATOM      4  C   UNL     1       0.326   1.220   0.150  0.00  0.00    +0.000 A 
ATOM      5  C   UNL     1      -1.068   1.293   0.100  0.00  0.00    +0.000 A 
ATOM      6  C   UNL     1      -1.820   0.129  -0.071  0.00  0.00    +0.000 A 
ATOM      7  C   UNL     1      -1.182  -1.107  -0.198  0.00  0.00    +0.000 A 
ATOM      8  C   UNL     1       0.212  -1.177  -0.147  0.00  0.00    +0.000 A 
ENDBRANCH   1   6
BRANCH   1   9
ATOM      9  N   UNL     1      -3.942   1.291  -0.013  0.00  0.00    +0.000 NA
BRANCH   9  10
ATOM     10  C   UNL     1      -5.403   1.163  -0.095  0.00  0.00    +0.000 C 
ATOM     11  C   UNL     1      -5.954   2.459  -0.700  0.00  0.00    +0.000 C 
ATOM     12  C   UNL     1      -7.481   2.474  -0.703  0.00  0.00    +0.000 C 
ATOM     13  C   UNL     1      -8.047   2.231   0.693  0.00  0.00    +0.000 C 
ATOM     14  C   UNL     1      -7.497   0.948   1.309  0.00  0.00    +0.000 C 
ATOM     15  C   UNL     1      -5.970   0.934   1.310  0.00  0.00    +0.000 C 
ENDBRANCH   9  10
ENDBRANCH   1   9
TORSDOF 3
