REMARK  Name = *****
REMARK  2 active torsions:
REMARK  status: ('A' for Active; 'I' for Inactive)
REMARK    1  A    between atoms: C_1  and  C_2
REMARK    2  A    between atoms: C_10  and  C_12
REMARK                            x       y       z     vdW  Elec       q    Type
REMARK                         _______ _______ _______ _____ _____    ______ ____
ROOT
ATOM      1  C   UNL     1       5.073  -1.393  -2.179  0.00  0.00    +0.000 C 
ATOM      2  C   UNL     1       4.112  -2.192  -1.307  0.00  0.00    +0.000 C 
ATOM      3  C   UNL     1       4.796  -2.864  -0.118  0.00  0.00    +0.000 C 
ATOM      4  C   UNL     1       5.836  -3.918  -0.514  0.00  0.00    +0.000 C 
ATOM      5  C   UNL     1       6.389  -4.642   0.713  0.00  0.00    +0.000 C 
ATOM      6  C   UNL     1       5.278  -5.236   1.574  0.00  0.00    +0.000 C 
ATOM      7  C   UNL     1       4.237  -4.187   1.953  0.00  0.00    +0.000 C 
ATOM      8  C   UNL     1       3.677  -3.489   0.712  0.00  0.00    +0.000 C 
ATOM      9  N   UNL     1       2.726  -2.469   1.141  0.00  0.00    +0.000 NA
ATOM     10  C   UNL     1       2.504  -1.481   0.348  0.00  0.00    +0.000 C 
ATOM     11  O   UNL     1       3.105  -1.267  -0.846  0.00  0.00    +0.000 OA
ENDROOT
BRANCH  10  12
ATOM     12  C   UNL     1       1.542  -0.392   0.662  0.00  0.00    +0.000 A 
ATOM     13  C   UNL     1       0.926  -0.376   1.921  0.00  0.00    +0.000 A 
ATOM     14  C   UNL     1       0.016   0.631   2.251  0.00  0.00    +0.000 A 
ATOM     15  C   UNL     1      -0.287   1.627   1.324  0.00  0.00    +0.000 A 
ATOM     16  C   UNL     1       0.318   1.619   0.068  0.00  0.00    +0.000 A 
ATOM     17  C   UNL     1       1.230   0.614  -0.264  0.00  0.00    +0.000 A 
ENDBRANCH  10  12
TORSDOF 1
