REMARK  Name = *****
REMARK  6 active torsions:
REMARK  status: ('A' for Active; 'I' for Inactive)
REMARK    1  A    between atoms: C_1  and  C_2
REMARK    2  A    between atoms: C_5  and  C_8
REMARK    3  A    between atoms: C_8  and  C_9
REMARK    4  A    between atoms: C_8  and  C_10
REMARK    5  A    between atoms: C_10  and  C_11
REMARK    6  A    between atoms: C_14  and  O_17
REMARK                            x       y       z     vdW  Elec       q    Type
REMARK                         _______ _______ _______ _____ _____    ______ ____
ROOT
ATOM      1  C   UNL     1      -3.380  -0.207   0.276  0.00  0.00    +0.000 C 
ATOM      2  C   UNL     1      -3.844  -1.574   0.804  0.00  0.00    +0.000 C 
ENDROOT
BRANCH   1   7
ATOM      3  C   UNL     1       2.265   1.196   1.351  0.00  0.00    +0.000 C 
ATOM      4  C   UNL     1       0.809   0.886   1.150  0.00  0.00    +0.000 C 
ATOM      5  C   UNL     1       0.053   0.344   2.120  0.00  0.00    +0.000 C 
ATOM      6  C   UNL     1      -1.396  -0.018   1.949  0.00  0.00    +0.000 C 
ATOM      7  C   UNL     1      -1.844  -0.040   0.474  0.00  0.00    +0.000 C 
ATOM      8  C   UNL     1      -1.288   1.196  -0.254  0.00  0.00    +0.000 C 
ATOM      9  C   UNL     1       0.244   1.220  -0.209  0.00  0.00    +0.000 C 
ENDBRANCH   1   7
BRANCH   1  10
ATOM     10  C   UNL     1      -4.217   0.935   0.899  0.00  0.00    +0.000 C 
BRANCH  10  11
ATOM     11  C   UNL     1      -5.665   0.933   0.462  0.00  0.00    +0.000 A 
ATOM     12  C   UNL     1      -6.679   0.549   1.352  0.00  0.00    +0.000 A 
ATOM     13  C   UNL     1      -8.016   0.544   0.948  0.00  0.00    +0.000 A 
ATOM     14  C   UNL     1      -8.339   0.926  -0.350  0.00  0.00    +0.000 A 
ATOM     15  C   UNL     1      -7.350   1.311  -1.246  0.00  0.00    +0.000 A 
ATOM     16  C   UNL     1      -6.014   1.316  -0.841  0.00  0.00    +0.000 A 
BRANCH  14  17
ATOM     17  O   UNL     1      -9.631   0.935  -0.787  0.00  0.00    +0.000 OA
ATOM     18  H   UNL     1     -10.323   0.681  -0.209  0.00  0.00    +0.000 HD
ENDBRANCH  14  17
ENDBRANCH  10  11
ENDBRANCH   1  10
TORSDOF 4
