REMARK  Name = *****
REMARK  3 active torsions:
REMARK  status: ('A' for Active; 'I' for Inactive)
REMARK    1  A    between atoms: C_1  and  C_2
REMARK    2  A    between atoms: C_7  and  N_8
REMARK    3  A    between atoms: C_9  and  C_11
REMARK                            x       y       z     vdW  Elec       q    Type
REMARK                         _______ _______ _______ _____ _____    ______ ____
ROOT
ATOM      1  N   UNL     1       1.166  -2.300  -0.066  0.00  0.00    +0.000 N 
ATOM      2  C   UNL     1       2.374  -2.653   0.507  0.00  0.00    +0.000 C 
ATOM      3  O   UNL     1       3.101  -1.951   1.200  0.00  0.00    +0.000 OA
ATOM      4  H   UNL     1       0.683  -3.019  -0.535  0.00  0.00    +0.000 HD
ENDROOT
BRANCH   1  11
ATOM      5  C   UNL     1      -1.471  -2.063  -1.261  0.00  0.00    +0.000 C 
ATOM      6  C   UNL     1      -0.743  -0.900  -0.640  0.00  0.00    +0.000 A 
ATOM      7  C   UNL     1      -1.376   0.356  -0.645  0.00  0.00    +0.000 A 
ATOM      8  C   UNL     1      -0.755   1.472  -0.088  0.00  0.00    +0.000 A 
ATOM      9  C   UNL     1       0.506   1.345   0.479  0.00  0.00    +0.000 A 
ATOM     10  C   UNL     1       1.148   0.103   0.491  0.00  0.00    +0.000 A 
ATOM     11  C   UNL     1       0.539  -1.030  -0.059  0.00  0.00    +0.000 A 
ENDBRANCH   1  11
BRANCH   2  12
ATOM     12  C   UNL     1       2.790  -4.065   0.272  0.00  0.00    +0.000 A 
ATOM     13  C   UNL     1       2.540  -4.712  -0.944  0.00  0.00    +0.000 A 
ATOM     14  C   UNL     1       2.951  -6.033  -1.114  0.00  0.00    +0.000 A 
ATOM     15  C   UNL     1       3.616  -6.711  -0.092  0.00  0.00    +0.000 A 
ATOM     16  C   UNL     1       3.883  -6.061   1.112  0.00  0.00    +0.000 A 
ATOM     17  C   UNL     1       3.475  -4.738   1.293  0.00  0.00    +0.000 A 
ATOM     18 CL   UNL     1       2.638  -6.835  -2.605  0.00  0.00    +0.000 Cl
ENDBRANCH   2  12
TORSDOF 2
