REMARK  Name = *****
REMARK  1 active torsions:
REMARK  status: ('A' for Active; 'I' for Inactive)
REMARK    1  A    between atoms: C_16  and  C_17
REMARK                            x       y       z     vdW  Elec       q    Type
REMARK                         _______ _______ _______ _____ _____    ______ ____
ROOT
ATOM      1  C   UNL     1      -0.765  -1.657   1.195  0.00  0.00    +0.000 C 
ATOM      2  C   UNL     1       0.678  -1.347   1.627  0.00  0.00    +0.000 C 
ATOM      3  C   UNL     1       1.524  -0.707   0.557  0.00  0.00    +0.000 A 
ATOM      4  C   UNL     1       2.281  -1.544  -0.283  0.00  0.00    +0.000 A 
ATOM      5  C   UNL     1       3.082  -1.014  -1.293  0.00  0.00    +0.000 A 
ATOM      6  C   UNL     1       3.137   0.361  -1.477  0.00  0.00    +0.000 A 
ATOM      7  C   UNL     1       2.385   1.203  -0.657  0.00  0.00    +0.000 A 
ATOM      8  C   UNL     1       1.556   0.689   0.358  0.00  0.00    +0.000 A 
ATOM      9  C   UNL     1       0.780   1.687   1.199  0.00  0.00    +0.000 C 
ATOM     10  C   UNL     1      -0.665   1.351   1.606  0.00  0.00    +0.000 C 
ATOM     11  C   UNL     1      -1.498   0.746   0.500  0.00  0.00    +0.000 A 
ATOM     12  C   UNL     1      -1.533  -0.662   0.334  0.00  0.00    +0.000 A 
ATOM     13  C   UNL     1      -2.356  -1.211  -0.672  0.00  0.00    +0.000 A 
ATOM     14  C   UNL     1      -3.100  -0.403  -1.526  0.00  0.00    +0.000 A 
ATOM     15  C   UNL     1      -3.034   0.977  -1.395  0.00  0.00    +0.000 A 
ATOM     16  C   UNL     1      -2.237   1.556  -0.398  0.00  0.00    +0.000 A 
ENDROOT
BRANCH  16  17
ATOM     17  C   UNL     1      -2.205   3.041  -0.351  0.00  0.00    +0.000 C 
ATOM     18  O   UNL     1      -2.927   3.737  -1.057  0.00  0.00    +0.000 OA
ENDBRANCH  16  17
TORSDOF 1
