REMARK  Name = *****
REMARK  5 active torsions:
REMARK  status: ('A' for Active; 'I' for Inactive)
REMARK    1  A    between atoms: C_1  and  C_2
REMARK    2  A    between atoms: C_5  and  C_8
REMARK    3  A    between atoms: C_9  and  C_10
REMARK    4  A    between atoms: C_13  and  C_16
REMARK    5  A    between atoms: C_16  and  C_18
REMARK                            x       y       z     vdW  Elec       q    Type
REMARK                         _______ _______ _______ _____ _____    ______ ____
ROOT
ATOM      1  C   UNL     1      -3.269   0.060  -0.053  0.00  0.00    +0.000 C 
ATOM      2  C   UNL     1      -4.054   1.151  -0.036  0.00  0.00    +0.000 C 
ENDROOT
BRANCH   1   7
ATOM      3  C   UNL     1       2.526   0.017  -0.046  0.00  0.00    +0.000 C 
ATOM      4  C   UNL     1       1.026   0.052  -0.041  0.00  0.00    +0.000 A 
ATOM      5  C   UNL     1       0.330   1.061   0.632  0.00  0.00    +0.000 A 
ATOM      6  C   UNL     1      -1.069   1.080   0.634  0.00  0.00    +0.000 A 
ATOM      7  C   UNL     1      -1.798   0.096  -0.044  0.00  0.00    +0.000 A 
ATOM      8  C   UNL     1      -1.097  -0.925  -0.697  0.00  0.00    +0.000 A 
ATOM      9  C   UNL     1       0.301  -0.946  -0.699  0.00  0.00    +0.000 A 
ENDBRANCH   1   7
BRANCH   2  10
ATOM     10  C   UNL     1      -5.523   1.111  -0.087  0.00  0.00    +0.000 A 
ATOM     11  C   UNL     1      -6.273   0.094   0.518  0.00  0.00    +0.000 A 
ATOM     12  C   UNL     1      -7.672   0.097   0.453  0.00  0.00    +0.000 A 
ATOM     13  C   UNL     1      -8.342   1.130  -0.210  0.00  0.00    +0.000 A 
ATOM     14  C   UNL     1      -7.600   2.168  -0.786  0.00  0.00    +0.000 A 
ATOM     15  C   UNL     1      -6.203   2.158  -0.722  0.00  0.00    +0.000 A 
BRANCH  13  16
ATOM     16  C   UNL     1      -9.829   1.172  -0.320  0.00  0.00    +0.000 C 
ATOM     17  O   UNL     1     -10.388   2.207  -0.676  0.00  0.00    +0.000 OA
ATOM     18  C   UNL     1     -10.618  -0.067   0.014  0.00  0.00    +0.000 C 
ENDBRANCH  13  16
ENDBRANCH   2  10
TORSDOF 3
