REMARK  Name = *****
REMARK  3 active torsions:
REMARK  status: ('A' for Active; 'I' for Inactive)
REMARK    1  A    between atoms: C_1  and  C_2
REMARK    2  A    between atoms: C_7  and  C_18
REMARK    3  A    between atoms: C_10  and  C_12
REMARK                            x       y       z     vdW  Elec       q    Type
REMARK                         _______ _______ _______ _____ _____    ______ ____
ROOT
ATOM      1  C   UNL     1       1.111   0.259   0.112  0.00  0.00    +0.000 C 
ATOM      2  C   UNL     1       2.598   0.015  -0.132  0.00  0.00    +0.000 C 
ATOM      3  C   UNL     1       3.067  -1.256   0.513  0.00  0.00    +0.000 A 
ATOM      4  C   UNL     1       2.774  -2.511  -0.039  0.00  0.00    +0.000 A 
ATOM      5  C   UNL     1       3.200  -3.671   0.602  0.00  0.00    +0.000 A 
ATOM      6  C   UNL     1       3.915  -3.583   1.795  0.00  0.00    +0.000 A 
ATOM      7  C   UNL     1       4.211  -2.332   2.356  0.00  0.00    +0.000 A 
ATOM      8  C   UNL     1       3.785  -1.161   1.705  0.00  0.00    +0.000 A 
ATOM      9  N   UNL     1       4.090   0.089   2.252  0.00  0.00    +0.000 NA
ATOM     10  C   UNL     1       3.876   1.151   1.547  0.00  0.00    +0.000 C 
ATOM     11  O   UNL     1       3.317   1.179   0.315  0.00  0.00    +0.000 OA
ATOM     12  C   UNL     1       4.989  -2.250   3.640  0.00  0.00    +0.000 C 
ENDROOT
BRANCH  10  13
ATOM     13  C   UNL     1       4.235   2.516   2.009  0.00  0.00    +0.000 A 
ATOM     14  C   UNL     1       4.085   3.642   1.186  0.00  0.00    +0.000 A 
ATOM     15  C   UNL     1       4.433   4.910   1.658  0.00  0.00    +0.000 A 
ATOM     16  C   UNL     1       4.931   5.063   2.951  0.00  0.00    +0.000 A 
ATOM     17  C   UNL     1       5.084   3.950   3.776  0.00  0.00    +0.000 A 
ATOM     18  C   UNL     1       4.739   2.680   3.307  0.00  0.00    +0.000 A 
ENDBRANCH  10  13
TORSDOF 1
