REMARK  Name = *****
REMARK  3 active torsions:
REMARK  status: ('A' for Active; 'I' for Inactive)
REMARK    1  A    between atoms: C_4  and  C_7
REMARK    2  A    between atoms: C_7  and  S_9
REMARK    3  A    between atoms: S_9  and  C_10
REMARK                            x       y       z     vdW  Elec       q    Type
REMARK                         _______ _______ _______ _____ _____    ______ ____
ROOT
ATOM      1  C   UNL     1      -2.663  -0.264   0.482  0.00  0.00    +0.000 C 
ATOM      2  O   UNL     1      -3.290   0.759   0.733  0.00  0.00    +0.000 OA
ENDROOT
BRANCH   1   6
ATOM      3  C   UNL     1       1.493   0.124  -0.580  0.00  0.00    +0.000 A 
ATOM      4  C   UNL     1       0.938  -1.151  -0.482  0.00  0.00    +0.000 A 
ATOM      5  C   UNL     1      -0.410  -1.308  -0.140  0.00  0.00    +0.000 A 
ATOM      6  C   UNL     1      -1.216  -0.187   0.106  0.00  0.00    +0.000 A 
ATOM      7  C   UNL     1      -0.641   1.091   0.005  0.00  0.00    +0.000 A 
ATOM      8  C   UNL     1       0.705   1.245  -0.337  0.00  0.00    +0.000 A 
ENDBRANCH   1   6
BRANCH   1   9
ATOM      9  S   UNL     1      -3.428  -1.853   0.534  0.00  0.00    +0.000 S 
BRANCH   9  10
ATOM     10  C   UNL     1      -4.991  -1.489   1.305  0.00  0.00    +0.000 A 
ATOM     11  C   UNL     1      -6.170  -1.569   0.555  0.00  0.00    +0.000 A 
ATOM     12  C   UNL     1      -7.406  -1.312   1.154  0.00  0.00    +0.000 A 
ATOM     13  C   UNL     1      -7.464  -0.980   2.507  0.00  0.00    +0.000 A 
ATOM     14  C   UNL     1      -6.298  -0.907   3.265  0.00  0.00    +0.000 A 
ATOM     15  C   UNL     1      -5.062  -1.165   2.665  0.00  0.00    +0.000 A 
ATOM     16 CL   UNL     1      -8.986  -0.666   3.245  0.00  0.00    +0.000 Cl
ENDBRANCH   9  10
ENDBRANCH   1   9
TORSDOF 3
