REMARK  Name = *****
REMARK  4 active torsions:
REMARK  status: ('A' for Active; 'I' for Inactive)
REMARK    1  A    between atoms: C_3  and  C_5
REMARK    2  A    between atoms: C_5  and  C_6
REMARK    3  A    between atoms: C_6  and  C_7
REMARK    4  A    between atoms: C_6  and  C_9
REMARK                            x       y       z     vdW  Elec       q    Type
REMARK                         _______ _______ _______ _____ _____    ______ ____
ROOT
ATOM      1  C   UNL     1      -1.915  -1.901  -1.828  0.00  0.00    +0.000 C 
ENDROOT
BRANCH   1   2
ATOM      2  C   UNL     1      -2.002  -2.455  -3.245  0.00  0.00    +0.000 A 
ATOM      3  C   UNL     1      -2.138  -3.837  -3.451  0.00  0.00    +0.000 A 
ATOM      4  C   UNL     1      -2.213  -4.361  -4.743  0.00  0.00    +0.000 A 
ATOM      5  C   UNL     1      -2.153  -3.512  -5.846  0.00  0.00    +0.000 A 
ATOM      6  C   UNL     1      -2.019  -2.138  -5.658  0.00  0.00    +0.000 A 
ATOM      7  C   UNL     1      -1.943  -1.611  -4.368  0.00  0.00    +0.000 A 
ENDBRANCH   1   2
BRANCH   1   8
ATOM      8  C   UNL     1      -3.037  -0.980  -1.538  0.00  0.00    +0.000 C 
ATOM      9  N   UNL     1      -3.905  -0.249  -1.291  0.00  0.00    +0.000 NA
ENDBRANCH   1   8
BRANCH   1  10
ATOM     10  C   UNL     1      -0.553  -1.214  -1.594  0.00  0.00    +0.000 C 
BRANCH  10  13
ATOM     11  C   UNL     1       1.587  -1.842   0.512  0.00  0.00    +0.000 C 
ATOM     12  C   UNL     1       1.116  -0.404   0.229  0.00  0.00    +0.000 C 
ATOM     13  C   UNL     1      -0.287  -0.979  -0.101  0.00  0.00    +0.000 C 
ATOM     14  C   UNL     1       0.112  -2.214   0.753  0.00  0.00    +0.000 C 
ENDBRANCH  10  13
ENDBRANCH   1  10
TORSDOF 4
