REMARK  Name = *****
REMARK  3 active torsions:
REMARK  status: ('A' for Active; 'I' for Inactive)
REMARK    1  A    between atoms: C_4  and  C_7
REMARK    2  A    between atoms: C_8  and  C_9
REMARK    3  A    between atoms: C_10  and  C_14
REMARK                            x       y       z     vdW  Elec       q    Type
REMARK                         _______ _______ _______ _____ _____    ______ ____
ROOT
ATOM      1  C   UNL     1      -2.818   0.495  -0.318  0.00  0.00    +0.000 C 
ATOM      2  C   UNL     1      -3.757  -0.463  -0.384  0.00  0.00    +0.000 C 
ENDROOT
BRANCH   1   6
ATOM      3  C   UNL     1       1.360  -0.224   0.261  0.00  0.00    +0.000 A 
ATOM      4  C   UNL     1       0.626  -1.074  -0.564  0.00  0.00    +0.000 A 
ATOM      5  C   UNL     1      -0.740  -0.854  -0.758  0.00  0.00    +0.000 A 
ATOM      6  C   UNL     1      -1.388   0.211  -0.118  0.00  0.00    +0.000 A 
ATOM      7  C   UNL     1      -0.636   1.068   0.695  0.00  0.00    +0.000 A 
ATOM      8  C   UNL     1       0.731   0.848   0.889  0.00  0.00    +0.000 A 
ENDBRANCH   1   6
BRANCH   2   9
ATOM      9  C   UNL     1      -5.147  -0.179  -0.551  0.00  0.00    +0.000 A 
ATOM     10  C   UNL     1      -5.833   0.809  -1.249  0.00  0.00    +0.000 A 
ATOM     11  C   UNL     1      -7.253   0.697  -1.125  0.00  0.00    +0.000 A 
ATOM     12  C   UNL     1      -7.626  -0.378  -0.356  0.00  0.00    +0.000 A 
ATOM     13  S   UNL     1      -6.277  -1.255   0.206  0.00  0.00    +0.000 S 
BRANCH  10  14
ATOM     14  C   UNL     1      -5.208   1.833  -2.037  0.00  0.00    +0.000 C 
ATOM     15  N   UNL     1      -4.722   2.674  -2.671  0.00  0.00    +0.000 NA
ENDBRANCH  10  14
ENDBRANCH   2   9
TORSDOF 3
