REMARK  Name = *****
REMARK  3 active torsions:
REMARK  status: ('A' for Active; 'I' for Inactive)
REMARK    1  A    between atoms: C_3  and  C_8
REMARK    2  A    between atoms: C_9  and  O_10
REMARK    3  A    between atoms: O_10  and  C_11
REMARK                            x       y       z     vdW  Elec       q    Type
REMARK                         _______ _______ _______ _____ _____    ______ ____
ROOT
ATOM      1  C   UNL     1      -1.925   2.503  -0.182  0.00  0.00    +0.000 C 
ATOM      2  C   UNL     1      -1.345   3.703  -0.304  0.00  0.00    +0.000 C 
ENDROOT
BRANCH   1   5
ATOM      3  C   UNL     1      -1.120  -1.166  -0.458  0.00  0.00    +0.000 A 
ATOM      4  C   UNL     1      -1.765   0.069  -0.581  0.00  0.00    +0.000 A 
ATOM      5  C   UNL     1      -1.196   1.236  -0.047  0.00  0.00    +0.000 A 
ATOM      6  C   UNL     1       0.020   1.137   0.640  0.00  0.00    +0.000 A 
ATOM      7  C   UNL     1       0.653  -0.097   0.758  0.00  0.00    +0.000 A 
ATOM      8  C   UNL     1       0.097  -1.248   0.214  0.00  0.00    +0.000 A 
ATOM      9  F   UNL     1       1.818  -0.177   1.414  0.00  0.00    +0.000 F 
ENDBRANCH   1   5
BRANCH   2  10
ATOM     10  O   UNL     1      -2.091   4.853  -0.432  0.00  0.00    +0.000 OA
BRANCH  10  11
ATOM     11  C   UNL     1      -1.417   6.003  -0.763  0.00  0.00    +0.000 A 
ATOM     12  C   UNL     1      -0.635   6.094  -1.919  0.00  0.00    +0.000 A 
ATOM     13  C   UNL     1      -0.004   7.298  -2.232  0.00  0.00    +0.000 A 
ATOM     14  C   UNL     1      -0.174   8.398  -1.397  0.00  0.00    +0.000 A 
ATOM     15  C   UNL     1      -0.968   8.320  -0.257  0.00  0.00    +0.000 A 
ATOM     16  C   UNL     1      -1.600   7.117   0.059  0.00  0.00    +0.000 A 
ATOM     17  F   UNL     1       0.430   9.554  -1.701  0.00  0.00    +0.000 F 
ENDBRANCH  10  11
ENDBRANCH   2  10
TORSDOF 3
