REMARK  Name = *****
REMARK  3 active torsions:
REMARK  status: ('A' for Active; 'I' for Inactive)
REMARK    1  A    between atoms: C_5  and  C_7
REMARK    2  A    between atoms: C_7  and  C_8
REMARK    3  A    between atoms: C_8  and  C_10
REMARK                            x       y       z     vdW  Elec       q    Type
REMARK                         _______ _______ _______ _____ _____    ______ ____
ROOT
ATOM      1  C   UNL     1      -3.506  -1.693  -0.565  0.00  0.00    +0.000 C 
ATOM      2  O   UNL     1      -3.987  -0.974   0.308  0.00  0.00    +0.000 OA
ENDROOT
BRANCH   1   3
ATOM      3  C   UNL     1      -4.427  -2.519  -1.408  0.00  0.00    +0.000 A 
ATOM      4  C   UNL     1      -3.959  -3.496  -2.296  0.00  0.00    +0.000 A 
ATOM      5  C   UNL     1      -4.864  -4.262  -3.041  0.00  0.00    +0.000 A 
ATOM      6  C   UNL     1      -6.234  -4.050  -2.904  0.00  0.00    +0.000 A 
ATOM      7  C   UNL     1      -6.712  -3.077  -2.030  0.00  0.00    +0.000 A 
ATOM      8  C   UNL     1      -5.810  -2.314  -1.282  0.00  0.00    +0.000 A 
ATOM      9 CL   UNL     1      -7.341  -5.000  -3.815  0.00  0.00    +0.000 Cl
ENDBRANCH   1   3
BRANCH   1  10
ATOM     10  C   UNL     1      -2.009  -1.794  -0.814  0.00  0.00    +0.000 C 
BRANCH  10  15
ATOM     11  C   UNL     1      -0.300   1.510   0.332  0.00  0.00    +0.000 C 
ATOM     12  C   UNL     1       1.092   1.109  -0.154  0.00  0.00    +0.000 C 
ATOM     13  C   UNL     1       1.301  -0.376  -0.142  0.00  0.00    +0.000 C 
ATOM     14  C   UNL     1       0.298  -1.259  -0.017  0.00  0.00    +0.000 C 
ATOM     15  C   UNL     1      -1.163  -0.865   0.079  0.00  0.00    +0.000 C 
ATOM     16  C   UNL     1      -1.376   0.620  -0.287  0.00  0.00    +0.000 C 
ENDBRANCH  10  15
ENDBRANCH   1  10
TORSDOF 3
