REMARK  Name = *****
REMARK  5 active torsions:
REMARK  status: ('A' for Active; 'I' for Inactive)
REMARK    1  A    between atoms: C_1  and  C_2
REMARK    2  A    between atoms: C_7  and  O_8
REMARK    3  A    between atoms: O_8  and  C_9
REMARK    4  A    between atoms: C_9  and  O_11
REMARK    5  A    between atoms: O_11  and  C_12
REMARK                            x       y       z     vdW  Elec       q    Type
REMARK                         _______ _______ _______ _____ _____    ______ ____
ROOT
ATOM      1  C   UNL     1       2.200  -2.581   0.578  0.00  0.00    +0.000 C 
ATOM      2  O   UNL     1       2.001  -2.820  -0.606  0.00  0.00    +0.000 OA
ENDROOT
BRANCH   1   3
ATOM      3  O   UNL     1       1.635  -1.552   1.319  0.00  0.00    +0.000 OA
BRANCH   3  10
ATOM      4  C   UNL     1       2.650   0.758  -0.098  0.00  0.00    +0.000 C 
ATOM      5  C   UNL     1       1.199   0.382  -0.081  0.00  0.00    +0.000 A 
ATOM      6  C   UNL     1       0.261   1.154  -0.778  0.00  0.00    +0.000 A 
ATOM      7  C   UNL     1      -1.093   0.805  -0.776  0.00  0.00    +0.000 A 
ATOM      8  C   UNL     1      -1.528  -0.323  -0.080  0.00  0.00    +0.000 A 
ATOM      9  C   UNL     1      -0.608  -1.110   0.609  0.00  0.00    +0.000 A 
ATOM     10  C   UNL     1       0.744  -0.764   0.584  0.00  0.00    +0.000 A 
ENDBRANCH   3  10
ENDBRANCH   1   3
BRANCH   1  11
ATOM     11  O   UNL     1       3.040  -3.286   1.431  0.00  0.00    +0.000 OA
BRANCH  11  12
ATOM     12  C   UNL     1       3.710  -4.385   0.878  0.00  0.00    +0.000 A 
ATOM     13  C   UNL     1       5.101  -4.396   0.972  0.00  0.00    +0.000 A 
ATOM     14  C   UNL     1       5.811  -5.495   0.488  0.00  0.00    +0.000 A 
ATOM     15  C   UNL     1       5.126  -6.577  -0.070  0.00  0.00    +0.000 A 
ATOM     16  C   UNL     1       3.732  -6.566  -0.139  0.00  0.00    +0.000 A 
ATOM     17  C   UNL     1       3.016  -5.471   0.346  0.00  0.00    +0.000 A 
ENDBRANCH  11  12
ENDBRANCH   1  11
TORSDOF 4
