REMARK  Name = *****
REMARK  5 active torsions:
REMARK  status: ('A' for Active; 'I' for Inactive)
REMARK    1  A    between atoms: C_1  and  C_2
REMARK    2  A    between atoms: C_4  and  C_17
REMARK    3  A    between atoms: C_5  and  O_8
REMARK    4  A    between atoms: O_8  and  C_9
REMARK    5  A    between atoms: C_9  and  C_11
REMARK                            x       y       z     vdW  Elec       q    Type
REMARK                         _______ _______ _______ _____ _____    ______ ____
ROOT
ATOM      1  O   UNL     1      -2.339  -1.881  -0.462  0.00  0.00    +0.000 OA
ENDROOT
BRANCH   1   6
ATOM      2  C   UNL     1       2.449   1.147   0.039  0.00  0.00    +0.000 C 
ATOM      3  C   UNL     1       1.182   0.357  -0.115  0.00  0.00    +0.000 A 
ATOM      4  C   UNL     1      -0.029   0.859   0.389  0.00  0.00    +0.000 A 
ATOM      5  C   UNL     1      -1.216   0.119   0.285  0.00  0.00    +0.000 A 
ATOM      6  C   UNL     1      -1.156  -1.148  -0.305  0.00  0.00    +0.000 A 
ATOM      7  C   UNL     1       0.036  -1.661  -0.817  0.00  0.00    +0.000 A 
ATOM      8  C   UNL     1       1.206  -0.911  -0.709  0.00  0.00    +0.000 A 
ATOM      9  C   UNL     1      -2.505   0.667   0.821  0.00  0.00    +0.000 C 
ENDBRANCH   1   6
BRANCH   1  10
ATOM     10  C   UNL     1      -2.455  -2.964   0.389  0.00  0.00    +0.000 C 
ATOM     11  O   UNL     1      -1.649  -3.336   1.229  0.00  0.00    +0.000 OA
BRANCH  10  12
ATOM     12  C   UNL     1      -3.750  -3.658   0.141  0.00  0.00    +0.000 A 
ATOM     13  C   UNL     1      -4.695  -3.192  -0.785  0.00  0.00    +0.000 A 
ATOM     14  C   UNL     1      -5.894  -3.885  -0.972  0.00  0.00    +0.000 A 
ATOM     15  C   UNL     1      -6.156  -5.043  -0.240  0.00  0.00    +0.000 A 
ATOM     16  C   UNL     1      -5.222  -5.512   0.682  0.00  0.00    +0.000 A 
ATOM     17  C   UNL     1      -4.023  -4.822   0.873  0.00  0.00    +0.000 A 
ENDBRANCH  10  12
ENDBRANCH   1  10
TORSDOF 3
