REMARK  Name = *****
REMARK  3 active torsions:
REMARK  status: ('A' for Active; 'I' for Inactive)
REMARK    1  A    between atoms: C_1  and  C_2
REMARK    2  A    between atoms: C_2  and  C_3
REMARK    3  A    between atoms: C_2  and  N_9
REMARK                            x       y       z     vdW  Elec       q    Type
REMARK                         _______ _______ _______ _____ _____    ______ ____
ROOT
ATOM      1  C   UNL     1       3.116  -0.755  -1.230  0.00  0.00    +0.000 C 
ATOM      2  C   UNL     1       2.558  -0.158   0.064  0.00  0.00    +0.000 C 
ENDROOT
BRANCH   2   3
ATOM      3  N   UNL     1       3.091   1.197   0.233  0.00  0.00    +0.000 NA
ATOM      4  C   UNL     1       4.220   1.427   0.803  0.00  0.00    +0.000 C 
ATOM      5  C   UNL     1       5.182   0.404   1.375  0.00  0.00    +0.000 C 
ATOM      6  C   UNL     1       6.580   0.647   0.811  0.00  0.00    +0.000 C 
ATOM      7  C   UNL     1       7.034   2.093   1.008  0.00  0.00    +0.000 C 
ATOM      8  C   UNL     1       6.037   3.076   0.395  0.00  0.00    +0.000 C 
ATOM      9  C   UNL     1       4.639   2.878   0.963  0.00  0.00    +0.000 C 
ENDBRANCH   2   3
BRANCH   2  10
ATOM     10  C   UNL     1       1.036  -0.155   0.008  0.00  0.00    +0.000 A 
ATOM     11  C   UNL     1       0.328   0.899  -0.589  0.00  0.00    +0.000 A 
ATOM     12  C   UNL     1      -1.067   0.875  -0.655  0.00  0.00    +0.000 A 
ATOM     13  C   UNL     1      -1.772  -0.206  -0.131  0.00  0.00    +0.000 A 
ATOM     14  C   UNL     1      -1.083  -1.265   0.458  0.00  0.00    +0.000 A 
ATOM     15  C   UNL     1       0.312  -1.241   0.525  0.00  0.00    +0.000 A 
ENDBRANCH   2  10
TORSDOF 2
