REMARK  Name = *****
REMARK  3 active torsions:
REMARK  status: ('A' for Active; 'I' for Inactive)
REMARK    1  A    between atoms: C_3  and  S_8
REMARK    2  A    between atoms: S_8  and  S_9
REMARK    3  A    between atoms: S_9  and  C_11
REMARK                            x       y       z     vdW  Elec       q    Type
REMARK                         _______ _______ _______ _____ _____    ______ ____
ROOT
ATOM      1  S   UNL     1      -4.318   1.972   0.181  0.00  0.00    +0.000 S 
ATOM      2  O   UNL     1      -3.837   2.844  -0.943  0.00  0.00    +0.000 OA
ENDROOT
BRANCH   1   3
ATOM      3  C   UNL     1      -6.125   1.956   0.053  0.00  0.00    +0.000 A 
ATOM      4  C   UNL     1      -6.879   1.193   0.958  0.00  0.00    +0.000 A 
ATOM      5  C   UNL     1      -8.274   1.184   0.876  0.00  0.00    +0.000 A 
ATOM      6  C   UNL     1      -8.909   1.941  -0.102  0.00  0.00    +0.000 A 
ATOM      7  C   UNL     1      -8.178   2.708  -1.001  0.00  0.00    +0.000 A 
ATOM      8  C   UNL     1      -6.784   2.718  -0.922  0.00  0.00    +0.000 A 
ATOM      9  F   UNL     1     -10.246   1.931  -0.178  0.00  0.00    +0.000 F 
ENDBRANCH   1   3
BRANCH   1  10
ATOM     10  S   UNL     1      -3.881   0.145  -0.589  0.00  0.00    +0.000 S 
BRANCH  10  13
ATOM     11  C   UNL     1      -0.003  -0.568   0.394  0.00  0.00    +0.000 A 
ATOM     12  C   UNL     1      -1.399  -0.560   0.394  0.00  0.00    +0.000 A 
ATOM     13  C   UNL     1      -2.099   0.161  -0.583  0.00  0.00    +0.000 A 
ATOM     14  C   UNL     1      -1.387   0.858  -1.567  0.00  0.00    +0.000 A 
ATOM     15  C   UNL     1       0.010   0.849  -1.566  0.00  0.00    +0.000 A 
ATOM     16  C   UNL     1       0.688   0.137  -0.585  0.00  0.00    +0.000 A 
ATOM     17  F   UNL     1       2.028   0.127  -0.583  0.00  0.00    +0.000 F 
ENDBRANCH  10  13
ENDBRANCH   1  10
TORSDOF 3
