REMARK  Name = *****
REMARK  4 active torsions:
REMARK  status: ('A' for Active; 'I' for Inactive)
REMARK    1  A    between atoms: C_4  and  C_7
REMARK    2  A    between atoms: C_7  and  C_8
REMARK    3  A    between atoms: C_7  and  C_10
REMARK    4  A    between atoms: C_10  and  C_12
REMARK                            x       y       z     vdW  Elec       q    Type
REMARK                         _______ _______ _______ _____ _____    ______ ____
ROOT
ATOM      1  C   UNL     1      -2.878   0.819  -1.020  0.00  0.00    +0.000 C 
ENDROOT
BRANCH   1   5
ATOM      2  C   UNL     1       0.407  -0.979   1.158  0.00  0.00    +0.000 A 
ATOM      3  C   UNL     1      -0.329   0.059   1.727  0.00  0.00    +0.000 A 
ATOM      4  C   UNL     1      -1.389   0.634   1.023  0.00  0.00    +0.000 A 
ATOM      5  C   UNL     1      -1.726   0.178  -0.260  0.00  0.00    +0.000 A 
ATOM      6  C   UNL     1      -0.977  -0.872  -0.818  0.00  0.00    +0.000 A 
ATOM      7  C   UNL     1       0.083  -1.444  -0.113  0.00  0.00    +0.000 A 
ENDBRANCH   1   5
BRANCH   1   8
ATOM      8  C   UNL     1      -2.427   1.530  -2.304  0.00  0.00    +0.000 C 
ATOM      9 CL   UNL     1      -1.516   3.025  -1.941  0.00  0.00    +0.000 Cl
ENDBRANCH   1   8
BRANCH   1  10
ATOM     10  C   UNL     1      -3.931  -0.226  -1.388  0.00  0.00    +0.000 C 
ATOM     11  O   UNL     1      -3.915  -0.823  -2.465  0.00  0.00    +0.000 OA
BRANCH  10  12
ATOM     12  C   UNL     1      -4.971  -0.592  -0.387  0.00  0.00    +0.000 A 
ATOM     13  C   UNL     1      -5.580   0.360   0.437  0.00  0.00    +0.000 A 
ATOM     14  C   UNL     1      -6.569  -0.033   1.343  0.00  0.00    +0.000 A 
ATOM     15  C   UNL     1      -6.953  -1.371   1.425  0.00  0.00    +0.000 A 
ATOM     16  C   UNL     1      -6.356  -2.321   0.597  0.00  0.00    +0.000 A 
ATOM     17  C   UNL     1      -5.371  -1.932  -0.312  0.00  0.00    +0.000 A 
ENDBRANCH  10  12
ENDBRANCH   1  10
TORSDOF 4
