REMARK  Name = *****
REMARK  3 active torsions:
REMARK  status: ('A' for Active; 'I' for Inactive)
REMARK    1  A    between atoms: C_4  and  C_7
REMARK    2  A    between atoms: C_7  and  O_9
REMARK    3  A    between atoms: O_9  and  C_10
REMARK                            x       y       z     vdW  Elec       q    Type
REMARK                         _______ _______ _______ _____ _____    ______ ____
ROOT
ATOM      1  C   UNL     1       4.587  -1.550   1.220  0.00  0.00    +0.000 A 
ATOM      2  C   UNL     1       5.479  -0.745   1.924  0.00  0.00    +0.000 A 
ATOM      3  C   UNL     1       6.845  -0.984   1.831  0.00  0.00    +0.000 A 
ATOM      4  C   UNL     1       7.316  -2.030   1.044  0.00  0.00    +0.000 A 
ATOM      5  C   UNL     1       6.422  -2.842   0.353  0.00  0.00    +0.000 A 
ATOM      6  C   UNL     1       5.056  -2.606   0.444  0.00  0.00    +0.000 A 
ATOM      7  F   UNL     1       4.191  -3.393  -0.211  0.00  0.00    +0.000 F 
ATOM      8  F   UNL     1       6.879  -3.859  -0.392  0.00  0.00    +0.000 F 
ATOM      9  F   UNL     1       8.633  -2.264   0.962  0.00  0.00    +0.000 F 
ATOM     10  F   UNL     1       7.708  -0.213   2.507  0.00  0.00    +0.000 F 
ATOM     11  F   UNL     1       5.021   0.254   2.691  0.00  0.00    +0.000 F 
ENDROOT
BRANCH   1  12
ATOM     12  O   UNL     1       3.217  -1.319   1.320  0.00  0.00    +0.000 OA
BRANCH  12  13
ATOM     13  C   UNL     1       2.792  -0.429   0.338  0.00  0.00    +0.000 C 
ATOM     14  O   UNL     1       3.507   0.096  -0.505  0.00  0.00    +0.000 OA
BRANCH  13  18
ATOM     15  C   UNL     1      -1.395   0.061  -0.727  0.00  0.00    +0.000 C 
ATOM     16  C   UNL     1      -0.963  -1.242  -0.062  0.00  0.00    +0.000 C 
ATOM     17  C   UNL     1       0.551  -1.430  -0.115  0.00  0.00    +0.000 C 
ATOM     18  C   UNL     1       1.292  -0.225   0.473  0.00  0.00    +0.000 C 
ATOM     19  C   UNL     1       0.854   1.078  -0.207  0.00  0.00    +0.000 C 
ATOM     20  C   UNL     1      -0.660   1.263  -0.142  0.00  0.00    +0.000 C 
ENDBRANCH  13  18
ENDBRANCH  12  13
ENDBRANCH   1  12
TORSDOF 3
