REMARK  Name = *****
REMARK  2 active torsions:
REMARK  status: ('A' for Active; 'I' for Inactive)
REMARK    1  A    between atoms: C_7  and  C_9
REMARK    2  A    between atoms: C_10  and  C_11
REMARK                            x       y       z     vdW  Elec       q    Type
REMARK                         _______ _______ _______ _____ _____    ______ ____
ROOT
ATOM      1  C   UNL     1       0.920  -1.159   0.620  0.00  0.00    +0.000 C 
ATOM      2  C   UNL     1       1.773  -0.015   0.076  0.00  0.00    +0.000 C 
ATOM      3  C   UNL     1       0.986   1.128  -0.534  0.00  0.00    +0.000 C 
ATOM      4  C   UNL     1      -0.202   1.515   0.310  0.00  0.00    +0.000 C 
ATOM      5  O   UNL     1      -0.196   2.506   1.036  0.00  0.00    +0.000 OA
ATOM      6  C   UNL     1      -1.443   0.708   0.187  0.00  0.00    +0.000 C 
ATOM      7  C   UNL     1      -1.500  -0.601  -0.134  0.00  0.00    +0.000 C 
ATOM      8  C   UNL     1      -0.295  -1.526  -0.241  0.00  0.00    +0.000 C 
ENDROOT
BRANCH   7   9
ATOM      9  C   UNL     1      -2.833  -1.182  -0.337  0.00  0.00    +0.000 C 
ATOM     10  C   UNL     1      -3.108  -2.389  -0.860  0.00  0.00    +0.000 C 
BRANCH  10  11
ATOM     11  C   UNL     1      -4.474  -2.901  -1.044  0.00  0.00    +0.000 A 
ATOM     12  C   UNL     1      -5.507  -2.102  -1.555  0.00  0.00    +0.000 A 
ATOM     13  C   UNL     1      -6.785  -2.633  -1.748  0.00  0.00    +0.000 A 
ATOM     14  C   UNL     1      -7.040  -3.968  -1.444  0.00  0.00    +0.000 A 
ATOM     15  C   UNL     1      -6.017  -4.776  -0.951  0.00  0.00    +0.000 A 
ATOM     16  C   UNL     1      -4.739  -4.246  -0.757  0.00  0.00    +0.000 A 
ENDBRANCH  10  11
ENDBRANCH   7   9
TORSDOF 2
