REMARK  Name = *****
REMARK  4 active torsions:
REMARK  status: ('A' for Active; 'I' for Inactive)
REMARK    1  A    between atoms: C_1  and  C_2
REMARK    2  A    between atoms: C_3  and  C_17
REMARK    3  A    between atoms: C_4  and  C_8
REMARK    4  A    between atoms: C_9  and  C_10
REMARK                            x       y       z     vdW  Elec       q    Type
REMARK                         _______ _______ _______ _____ _____    ______ ____
ROOT
ATOM      1  C   UNL     1      -0.759  -2.828   0.232  0.00  0.00    +0.000 C 
ATOM      2  C   UNL     1      -1.538  -3.614  -0.529  0.00  0.00    +0.000 C 
ATOM      3  F   UNL     1      -2.280  -3.050  -1.512  0.00  0.00    +0.000 F 
ENDROOT
BRANCH   1   7
ATOM      4  C   UNL     1       1.888   1.486  -0.158  0.00  0.00    +0.000 C 
ATOM      5  C   UNL     1       0.597   0.717  -0.062  0.00  0.00    +0.000 A 
ATOM      6  C   UNL     1       0.568  -0.699  -0.029  0.00  0.00    +0.000 A 
ATOM      7  C   UNL     1      -0.677  -1.363   0.089  0.00  0.00    +0.000 A 
ATOM      8  C   UNL     1      -1.862  -0.612   0.138  0.00  0.00    +0.000 A 
ATOM      9  C   UNL     1      -1.829   0.777   0.069  0.00  0.00    +0.000 A 
ATOM     10  C   UNL     1      -0.608   1.436  -0.028  0.00  0.00    +0.000 A 
ATOM     11  C   UNL     1       1.856  -1.488  -0.071  0.00  0.00    +0.000 C 
ENDBRANCH   1   7
BRANCH   2  12
ATOM     12  C   UNL     1      -1.617  -5.083  -0.416  0.00  0.00    +0.000 A 
ATOM     13  C   UNL     1      -1.325  -5.777   0.768  0.00  0.00    +0.000 A 
ATOM     14  C   UNL     1      -1.431  -7.170   0.826  0.00  0.00    +0.000 A 
ATOM     15  C   UNL     1      -1.837  -7.888  -0.296  0.00  0.00    +0.000 A 
ATOM     16  C   UNL     1      -2.144  -7.214  -1.475  0.00  0.00    +0.000 A 
ATOM     17  C   UNL     1      -2.038  -5.822  -1.532  0.00  0.00    +0.000 A 
ENDBRANCH   2  12
TORSDOF 2
