REMARK  Name = *****
REMARK  4 active torsions:
REMARK  status: ('A' for Active; 'I' for Inactive)
REMARK    1  A    between atoms: C_1  and  C_2
REMARK    2  A    between atoms: C_2  and  C_12
REMARK    3  A    between atoms: C_3  and  C_4
REMARK    4  A    between atoms: C_3  and  C_6
REMARK                            x       y       z     vdW  Elec       q    Type
REMARK                         _______ _______ _______ _____ _____    ______ ____
ROOT
ATOM      1  C   UNL     1       1.097   0.107   0.105  0.00  0.00    +0.000 C 
ATOM      2  C   UNL     1       2.603   0.087  -0.016  0.00  0.00    +0.000 C 
ATOM      3  C   UNL     1       3.299   0.096  -1.180  0.00  0.00    +0.000 C 
ENDROOT
BRANCH   3   4
ATOM      4  C   UNL     1       2.600   0.134  -2.479  0.00  0.00    +0.000 A 
ATOM      5  C   UNL     1       2.259   1.361  -3.063  0.00  0.00    +0.000 A 
ATOM      6  C   UNL     1       1.582   1.395  -4.283  0.00  0.00    +0.000 A 
ATOM      7  C   UNL     1       1.244   0.205  -4.927  0.00  0.00    +0.000 A 
ATOM      8  C   UNL     1       1.583  -1.020  -4.353  0.00  0.00    +0.000 A 
ATOM      9  C   UNL     1       2.260  -1.057  -3.133  0.00  0.00    +0.000 A 
ENDBRANCH   3   4
BRANCH   2  10
ATOM     10  C   UNL     1       3.270   0.054   1.301  0.00  0.00    +0.000 A 
ATOM     11  C   UNL     1       3.627   1.248   1.940  0.00  0.00    +0.000 A 
ATOM     12  C   UNL     1       4.271   1.215   3.177  0.00  0.00    +0.000 A 
ATOM     13  C   UNL     1       4.561  -0.009   3.781  0.00  0.00    +0.000 A 
ATOM     14  C   UNL     1       4.206  -1.201   3.150  0.00  0.00    +0.000 A 
ATOM     15  C   UNL     1       3.562  -1.171   1.912  0.00  0.00    +0.000 A 
ENDBRANCH   2  10
BRANCH   3  16
ATOM     16  C   UNL     1       4.799   0.069  -1.196  0.00  0.00    +0.000 C 
ATOM     17  O   UNL     1       5.460   0.080  -2.230  0.00  0.00    +0.000 OA
ENDBRANCH   3  16
TORSDOF 3
