REMARK  Name = *****
REMARK  3 active torsions:
REMARK  status: ('A' for Active; 'I' for Inactive)
REMARK    1  A    between atoms: C_4  and  C_7
REMARK    2  A    between atoms: C_7  and  N_9
REMARK    3  A    between atoms: N_9  and  C_10
REMARK                            x       y       z     vdW  Elec       q    Type
REMARK                         _______ _______ _______ _____ _____    ______ ____
ROOT
ATOM      1  N   UNL     1      -3.620  -0.153  -0.633  0.00  0.00    +0.000 N 
ATOM      2  H   UNL     1      -3.307  -0.975  -0.192  0.00  0.00    +0.000 HD
ENDROOT
BRANCH   1   3
ATOM      3  C   UNL     1      -4.984  -0.194  -1.005  0.00  0.00    +0.000 A 
ATOM      4  C   UNL     1      -5.625   0.719  -1.844  0.00  0.00    +0.000 A 
ATOM      5  C   UNL     1      -6.981   0.570  -2.161  0.00  0.00    +0.000 A 
ATOM      6  C   UNL     1      -7.697  -0.500  -1.646  0.00  0.00    +0.000 A 
ATOM      7  C   UNL     1      -7.081  -1.431  -0.823  0.00  0.00    +0.000 A 
ATOM      8  C   UNL     1      -5.728  -1.280  -0.509  0.00  0.00    +0.000 A 
ATOM      9  F   UNL     1      -8.992  -0.642  -1.953  0.00  0.00    +0.000 F 
ENDBRANCH   1   3
BRANCH   1  10
ATOM     10  C   UNL     1      -2.634   0.818  -0.765  0.00  0.00    +0.000 C 
ATOM     11  S   UNL     1      -2.773   2.412  -1.267  0.00  0.00    +0.000 S 
BRANCH  10  15
ATOM     12  C   UNL     1       1.152  -0.746   0.476  0.00  0.00    +0.000 A 
ATOM     13  C   UNL     1       0.573   0.306   1.188  0.00  0.00    +0.000 A 
ATOM     14  C   UNL     1      -0.656   0.830   0.787  0.00  0.00    +0.000 A 
ATOM     15  C   UNL     1      -1.301   0.299  -0.336  0.00  0.00    +0.000 A 
ATOM     16  C   UNL     1      -0.724  -0.760  -1.049  0.00  0.00    +0.000 A 
ATOM     17  C   UNL     1       0.506  -1.278  -0.641  0.00  0.00    +0.000 A 
ENDBRANCH  10  15
ENDBRANCH   1  10
TORSDOF 3
