REMARK  Name = *****
REMARK  1 active torsions:
REMARK  status: ('A' for Active; 'I' for Inactive)
REMARK    1  A    between atoms: C_4  and  C_6
REMARK                            x       y       z     vdW  Elec       q    Type
REMARK                         _______ _______ _______ _____ _____    ______ ____
ROOT
ATOM      1  C   UNL     1      -0.159  -2.708  -0.045  0.00  0.00    +0.000 A 
ATOM      2  N   UNL     1      -0.871  -3.277  -1.008  0.00  0.00    +0.000 NA
ATOM      3  C   UNL     1      -0.927  -4.601  -0.655  0.00  0.00    +0.000 A 
ATOM      4  C   UNL     1      -0.237  -4.797   0.529  0.00  0.00    +0.000 A 
ATOM      5  O   UNL     1       0.257  -3.593   0.928  0.00  0.00    +0.000 OA
ATOM      6  C   UNL     1      -0.093  -6.021   1.172  0.00  0.00    +0.000 A 
ATOM      7  C   UNL     1      -0.707  -7.108   0.539  0.00  0.00    +0.000 A 
ATOM      8  C   UNL     1      -1.410  -6.940  -0.658  0.00  0.00    +0.000 A 
ATOM      9  C   UNL     1      -1.537  -5.694  -1.279  0.00  0.00    +0.000 A 
ATOM     10  F   UNL     1      -1.981  -8.009  -1.228  0.00  0.00    +0.000 F 
ENDROOT
BRANCH   1  14
ATOM     11  C   UNL     1       0.235   0.950  -0.638  0.00  0.00    +0.000 A 
ATOM     12  C   UNL     1       0.965   0.960   0.529  0.00  0.00    +0.000 A 
ATOM     13  S   UNL     1       1.075  -0.596   1.230  0.00  0.00    +0.000 S 
ATOM     14  C   UNL     1       0.146  -1.303  -0.025  0.00  0.00    +0.000 A 
ATOM     15  C   UNL     1      -0.238  -0.356  -0.957  0.00  0.00    +0.000 A 
ENDBRANCH   1  14
TORSDOF 1
