REMARK  Name = *****
REMARK  5 active torsions:
REMARK  status: ('A' for Active; 'I' for Inactive)
REMARK    1  A    between atoms: C_1  and  C_2
REMARK    2  A    between atoms: C_5  and  N_8
REMARK    3  A    between atoms: N_8  and  C_9
REMARK    4  A    between atoms: N_8  and  C_10
REMARK    5  A    between atoms: C_10  and  C_11
REMARK                            x       y       z     vdW  Elec       q    Type
REMARK                         _______ _______ _______ _____ _____    ______ ____
ROOT
ATOM      1  N   UNL     1      -2.629   0.151  -0.669  0.00  0.00    +0.000 N 
ATOM      2  C   UNL     1      -3.808  -0.710  -0.562  0.00  0.00    +0.000 C 
ENDROOT
BRANCH   1   7
ATOM      3  C   UNL     1       2.454  -1.789   1.196  0.00  0.00    +0.000 C 
ATOM      4  C   UNL     1       1.127  -1.305   0.696  0.00  0.00    +0.000 A 
ATOM      5  C   UNL     1       1.043  -0.191  -0.138  0.00  0.00    +0.000 A 
ATOM      6  C   UNL     1      -0.203   0.273  -0.577  0.00  0.00    +0.000 A 
ATOM      7  C   UNL     1      -1.406  -0.341  -0.187  0.00  0.00    +0.000 A 
ATOM      8  C   UNL     1      -1.299  -1.461   0.649  0.00  0.00    +0.000 A 
ATOM      9  C   UNL     1      -0.055  -1.931   1.095  0.00  0.00    +0.000 A 
ENDBRANCH   1   7
BRANCH   1  10
ATOM     10  C   UNL     1      -2.880   1.580  -0.398  0.00  0.00    +0.000 C 
BRANCH  10  11
ATOM     11  C   UNL     1      -3.618   2.244  -1.544  0.00  0.00    +0.000 A 
ATOM     12  C   UNL     1      -3.204   2.057  -2.872  0.00  0.00    +0.000 A 
ATOM     13  C   UNL     1      -3.863   2.699  -3.921  0.00  0.00    +0.000 A 
ATOM     14  C   UNL     1      -4.939   3.543  -3.654  0.00  0.00    +0.000 A 
ATOM     15  C   UNL     1      -5.354   3.748  -2.340  0.00  0.00    +0.000 A 
ATOM     16  C   UNL     1      -4.695   3.106  -1.289  0.00  0.00    +0.000 A 
ENDBRANCH  10  11
ENDBRANCH   1  10
TORSDOF 3
