REMARK  Name = *****
REMARK  4 active torsions:
REMARK  status: ('A' for Active; 'I' for Inactive)
REMARK    1  A    between atoms: C_1  and  O_2
REMARK    2  A    between atoms: O_2  and  C_3
REMARK    3  A    between atoms: C_6  and  C_9
REMARK    4  A    between atoms: C_10  and  C_11
REMARK                            x       y       z     vdW  Elec       q    Type
REMARK                         _______ _______ _______ _____ _____    ______ ____
ROOT
ATOM      1  C   UNL     1       7.311   3.304  -7.419  0.00  0.00    +0.000 C 
ATOM      2  C   UNL     1       6.399   3.944  -6.970  0.00  0.00    +0.000 C 
ENDROOT
BRANCH   2   3
ATOM      3  C   UNL     1       5.277   4.725  -6.422  0.00  0.00    +0.000 C 
ATOM      4  C   UNL     1       5.674   6.211  -6.156  0.00  0.00    +0.000 C 
ATOM      5  C   UNL     1       4.663   6.997  -7.020  0.00  0.00    +0.000 C 
ATOM      6  C   UNL     1       4.564   6.099  -8.255  0.00  0.00    +0.000 C 
ATOM      7  C   UNL     1       4.120   4.872  -7.447  0.00  0.00    +0.000 C 
ATOM      8  C   UNL     1       2.948   5.495  -6.717  0.00  0.00    +0.000 C 
ATOM      9  C   UNL     1       3.280   6.768  -6.453  0.00  0.00    +0.000 C 
ENDBRANCH   2   3
BRANCH   1  13
ATOM     10  C   UNL     1      10.516   1.038  -9.009  0.00  0.00    +0.000 A 
ATOM     11  C   UNL     1      10.207   0.961  -7.650  0.00  0.00    +0.000 A 
ATOM     12  C   UNL     1       9.148   1.712  -7.126  0.00  0.00    +0.000 A 
ATOM     13  C   UNL     1       8.394   2.542  -7.958  0.00  0.00    +0.000 A 
ATOM     14  C   UNL     1       8.701   2.623  -9.315  0.00  0.00    +0.000 A 
ATOM     15  C   UNL     1       9.759   1.872  -9.836  0.00  0.00    +0.000 A 
BRANCH  10  17
ATOM     16  C   UNL     1      12.306  -0.518  -8.852  0.00  0.00    +0.000 C 
ATOM     17  O   UNL     1      11.518   0.360  -9.646  0.00  0.00    +0.000 OA
ENDBRANCH  10  17
ENDBRANCH   1  13
TORSDOF 3
