REMARK  Name = *****
REMARK  4 active torsions:
REMARK  status: ('A' for Active; 'I' for Inactive)
REMARK    1  A    between atoms: C_1  and  C_2
REMARK    2  A    between atoms: C_7  and  S_8
REMARK    3  A    between atoms: S_8  and  C_9
REMARK    4  A    between atoms: C_10  and  C_11
REMARK                            x       y       z     vdW  Elec       q    Type
REMARK                         _______ _______ _______ _____ _____    ______ ____
ROOT
ATOM      1  S   UNL     1       1.247  -2.794  -0.889  0.00  0.00    +0.000 S 
ENDROOT
BRANCH   1   8
ATOM      2  C   UNL     1       1.411   0.076  -2.319  0.00  0.00    +0.000 C 
ATOM      3  C   UNL     1       0.765  -0.011  -0.963  0.00  0.00    +0.000 A 
ATOM      4  C   UNL     1       0.274   1.167  -0.374  0.00  0.00    +0.000 A 
ATOM      5  C   UNL     1      -0.340   1.142   0.879  0.00  0.00    +0.000 A 
ATOM      6  C   UNL     1      -0.471  -0.061   1.564  0.00  0.00    +0.000 A 
ATOM      7  C   UNL     1       0.019  -1.238   0.998  0.00  0.00    +0.000 A 
ATOM      8  C   UNL     1       0.652  -1.224  -0.255  0.00  0.00    +0.000 A 
ENDBRANCH   1   8
BRANCH   1   9
ATOM      9  C   UNL     1       2.948  -2.584  -0.635  0.00  0.00    +0.000 C 
ATOM     10  C   UNL     1       3.497  -2.482   0.584  0.00  0.00    +0.000 C 
BRANCH  10  11
ATOM     11  C   UNL     1       4.939  -2.320   0.818  0.00  0.00    +0.000 A 
ATOM     12  C   UNL     1       5.739  -1.499   0.013  0.00  0.00    +0.000 A 
ATOM     13  C   UNL     1       7.101  -1.347   0.286  0.00  0.00    +0.000 A 
ATOM     14  C   UNL     1       7.674  -2.005   1.372  0.00  0.00    +0.000 A 
ATOM     15  C   UNL     1       6.884  -2.811   2.190  0.00  0.00    +0.000 A 
ATOM     16  C   UNL     1       5.523  -2.963   1.918  0.00  0.00    +0.000 A 
ENDBRANCH  10  11
ENDBRANCH   1   9
TORSDOF 3
