REMARK  Name = *****
REMARK  3 active torsions:
REMARK  status: ('A' for Active; 'I' for Inactive)
REMARK    1  A    between atoms: C_4  and  C_7
REMARK    2  A    between atoms: C_7  and  C_8
REMARK    3  A    between atoms: C_8  and  C_9
REMARK                            x       y       z     vdW  Elec       q    Type
REMARK                         _______ _______ _______ _____ _____    ______ ____
ROOT
ATOM      1  C   UNL     1      -5.093  -0.650  -0.505  0.00  0.00    +0.000 A 
ATOM      2  C   UNL     1      -5.688  -0.385  -1.744  0.00  0.00    +0.000 A 
ATOM      3  C   UNL     1      -7.060  -0.157  -1.840  0.00  0.00    +0.000 A 
ATOM      4  C   UNL     1      -7.874  -0.182  -0.715  0.00  0.00    +0.000 A 
ATOM      5  C   UNL     1      -7.298  -0.443   0.527  0.00  0.00    +0.000 A 
ATOM      6  C   UNL     1      -5.921  -0.672   0.631  0.00  0.00    +0.000 A 
ATOM      7  S   UNL     1      -7.608   0.179  -3.492  0.00  0.00    +0.000 S 
ATOM      8  N   UNL     1      -6.238  -0.316  -4.293  0.00  0.00    +0.000 NA
ATOM      9  S   UNL     1      -4.885  -0.261  -3.327  0.00  0.00    +0.000 S 
ATOM     10  H   UNL     1      -6.091   0.294  -5.098  0.00  0.00    +0.000 HD
ENDROOT
BRANCH   1  11
ATOM     11  C   UNL     1      -3.609  -0.880  -0.346  0.00  0.00    +0.000 C 
BRANCH  11  12
ATOM     12  C   UNL     1      -2.845   0.436  -0.176  0.00  0.00    +0.000 C 
BRANCH  12  16
ATOM     13  C   UNL     1       1.386  -0.283   0.237  0.00  0.00    +0.000 A 
ATOM     14  C   UNL     1       0.825  -0.129  -1.029  0.00  0.00    +0.000 A 
ATOM     15  C   UNL     1      -0.544   0.109  -1.163  0.00  0.00    +0.000 A 
ATOM     16  C   UNL     1      -1.362   0.201  -0.029  0.00  0.00    +0.000 A 
ATOM     17  C   UNL     1      -0.789   0.038   1.239  0.00  0.00    +0.000 A 
ATOM     18  C   UNL     1       0.580  -0.200   1.371  0.00  0.00    +0.000 A 
ENDBRANCH  12  16
ENDBRANCH  11  12
ENDBRANCH   1  11
TORSDOF 3
