REMARK  Name = *****
REMARK  6 active torsions:
REMARK  status: ('A' for Active; 'I' for Inactive)
REMARK    1  A    between atoms: C_1  and  C_2
REMARK    2  A    between atoms: C_2  and  O_3
REMARK    3  A    between atoms: O_3  and  C_4
REMARK    4  A    between atoms: C_4  and  C_13
REMARK    5  A    between atoms: N_5  and  C_6
REMARK    6  A    between atoms: C_6  and  C_7
REMARK                            x       y       z     vdW  Elec       q    Type
REMARK                         _______ _______ _______ _____ _____    ______ ____
ROOT
ATOM      1  C   UNL     1       4.428   1.219   0.779  0.00  0.00    +0.000 C 
ATOM      2  N   UNL     1       5.371   0.398   0.483  0.00  0.00    +0.000 NA
ENDROOT
BRANCH   1   3
ATOM      3  C   UNL     1       4.686   2.550   1.392  0.00  0.00    +0.000 A 
ATOM      4  C   UNL     1       3.683   3.522   1.510  0.00  0.00    +0.000 A 
ATOM      5  C   UNL     1       3.967   4.760   2.093  0.00  0.00    +0.000 A 
ATOM      6  C   UNL     1       5.253   5.037   2.555  0.00  0.00    +0.000 A 
ATOM      7  C   UNL     1       6.259   4.080   2.434  0.00  0.00    +0.000 A 
ATOM      8  C   UNL     1       5.978   2.841   1.854  0.00  0.00    +0.000 A 
ENDBRANCH   1   3
BRANCH   1   9
ATOM      9  O   UNL     1       3.106   1.015   0.564  0.00  0.00    +0.000 OA
BRANCH   9  11
ATOM     10  C   UNL     1       1.226   0.618   2.003  0.00  0.00    +0.000 C 
ATOM     11  C   UNL     1       2.494   0.029   1.414  0.00  0.00    +0.000 C 
ENDBRANCH   9  11
ENDBRANCH   1   9
BRANCH   2  12
ATOM     12  C   UNL     1       5.065  -0.840  -0.232  0.00  0.00    +0.000 C 
BRANCH  12  13
ATOM     13  C   UNL     1       5.040  -2.066   0.653  0.00  0.00    +0.000 A 
ATOM     14  C   UNL     1       4.229  -3.159   0.313  0.00  0.00    +0.000 A 
ATOM     15  C   UNL     1       4.212  -4.307   1.107  0.00  0.00    +0.000 A 
ATOM     16  C   UNL     1       5.016  -4.383   2.242  0.00  0.00    +0.000 A 
ATOM     17  C   UNL     1       5.841  -3.313   2.581  0.00  0.00    +0.000 A 
ATOM     18  C   UNL     1       5.859  -2.165   1.788  0.00  0.00    +0.000 A 
ENDBRANCH  12  13
ENDBRANCH   2  12
TORSDOF 5
