REMARK  Name = *****
REMARK  3 active torsions:
REMARK  status: ('A' for Active; 'I' for Inactive)
REMARK    1  A    between atoms: C_7  and  O_8
REMARK    2  A    between atoms: O_8  and  S_9
REMARK    3  A    between atoms: S_9  and  C_10
REMARK                            x       y       z     vdW  Elec       q    Type
REMARK                         _______ _______ _______ _____ _____    ______ ____
ROOT
ATOM      1  O   UNL     1       1.935   0.971   1.958  0.00  0.00    +0.000 OA
ENDROOT
BRANCH   1   8
ATOM      2  C   UNL     1      -0.851  -0.969   0.958  0.00  0.00    +0.000 C 
ATOM      3  C   UNL     1      -0.905   0.390   1.668  0.00  0.00    +0.000 C 
ATOM      4  C   UNL     1      -0.168   1.323   0.689  0.00  0.00    +0.000 C 
ATOM      5  C   UNL     1      -0.604   0.756  -0.662  0.00  0.00    +0.000 C 
ATOM      6  C   UNL     1      -0.091  -0.648  -0.339  0.00  0.00    +0.000 C 
ATOM      7  C   UNL     1       1.386  -0.385   0.012  0.00  0.00    +0.000 C 
ATOM      8  C   UNL     1       1.345   1.012   0.665  0.00  0.00    +0.000 C 
ENDBRANCH   1   8
BRANCH   1   9
ATOM      9  S   UNL     1       2.611   2.411   2.463  0.00  0.00    +0.000 S 
BRANCH   9  10
ATOM     10  C   UNL     1       1.325   2.937   3.581  0.00  0.00    +0.000 A 
ATOM     11  C   UNL     1       0.894   2.108   4.622  0.00  0.00    +0.000 A 
ATOM     12  C   UNL     1      -0.110   2.534   5.494  0.00  0.00    +0.000 A 
ATOM     13  C   UNL     1      -0.684   3.794   5.333  0.00  0.00    +0.000 A 
ATOM     14  C   UNL     1      -0.254   4.629   4.302  0.00  0.00    +0.000 A 
ATOM     15  C   UNL     1       0.750   4.203   3.430  0.00  0.00    +0.000 A 
ENDBRANCH   9  10
ENDBRANCH   1   9
TORSDOF 3
