REMARK  Name = *****
REMARK  3 active torsions:
REMARK  status: ('A' for Active; 'I' for Inactive)
REMARK    1  A    between atoms: C_1  and  C_2
REMARK    2  A    between atoms: C_2  and  C_10
REMARK    3  A    between atoms: N_3  and  C_4
REMARK                            x       y       z     vdW  Elec       q    Type
REMARK                         _______ _______ _______ _____ _____    ______ ____
ROOT
ATOM      1  C   UNL     1       1.168   0.377   0.573  0.00  0.00    +0.000 C 
ATOM      2  C   UNL     1       2.583   0.079   0.111  0.00  0.00    +0.000 C 
ATOM      3  N   UNL     1       3.196  -1.051   0.322  0.00  0.00    +0.000 NA
ENDROOT
BRANCH   2   4
ATOM      4  C   UNL     1       3.313   1.143  -0.644  0.00  0.00    +0.000 A 
ATOM      5  C   UNL     1       2.631   2.083  -1.424  0.00  0.00    +0.000 A 
ATOM      6  C   UNL     1       3.352   3.054  -2.120  0.00  0.00    +0.000 A 
ATOM      7  C   UNL     1       4.744   3.096  -2.052  0.00  0.00    +0.000 A 
ATOM      8  C   UNL     1       5.427   2.152  -1.287  0.00  0.00    +0.000 A 
ATOM      9  C   UNL     1       4.714   1.176  -0.588  0.00  0.00    +0.000 A 
ATOM     10 CL   UNL     1       2.512   4.212  -3.078  0.00  0.00    +0.000 Cl
ENDBRANCH   2   4
BRANCH   3  11
ATOM     11  C   UNL     1       2.546  -2.090   0.998  0.00  0.00    +0.000 A 
ATOM     12  C   UNL     1       1.719  -2.980   0.306  0.00  0.00    +0.000 A 
ATOM     13  C   UNL     1       1.089  -4.028   0.979  0.00  0.00    +0.000 A 
ATOM     14  C   UNL     1       1.296  -4.201   2.347  0.00  0.00    +0.000 A 
ATOM     15  C   UNL     1       2.137  -3.332   3.040  0.00  0.00    +0.000 A 
ATOM     16  C   UNL     1       2.765  -2.284   2.363  0.00  0.00    +0.000 A 
ENDBRANCH   3  11
TORSDOF 2
