REMARK  Name = *****
REMARK  2 active torsions:
REMARK  status: ('A' for Active; 'I' for Inactive)
REMARK    1  A    between atoms: N_4  and  C_5
REMARK    2  A    between atoms: C_5  and  C_6
REMARK                            x       y       z     vdW  Elec       q    Type
REMARK                         _______ _______ _______ _____ _____    ______ ____
ROOT
ATOM      1  C   UNL     1      -2.253  -3.881  -1.291  0.00  0.00    +0.000 A 
ATOM      2  C   UNL     1      -2.976  -4.202  -2.450  0.00  0.00    +0.000 A 
ATOM      3  C   UNL     1      -3.106  -5.531  -2.858  0.00  0.00    +0.000 A 
ATOM      4  C   UNL     1      -2.524  -6.547  -2.103  0.00  0.00    +0.000 A 
ATOM      5  C   UNL     1      -1.818  -6.246  -0.940  0.00  0.00    +0.000 A 
ATOM      6  C   UNL     1      -1.687  -4.916  -0.533  0.00  0.00    +0.000 A 
ATOM      7 CL   UNL     1      -2.685  -8.185  -2.605  0.00  0.00    +0.000 Cl
ENDROOT
BRANCH   1   8
ATOM      8  C   UNL     1      -2.131  -2.444  -0.840  0.00  0.00    +0.000 C 
BRANCH   8  12
ATOM      9  C   UNL     1      -3.010   0.847   1.932  0.00  0.00    +0.000 C 
ATOM     10  S   UNL     1      -2.239   0.467   0.331  0.00  0.00    +0.000 S 
ATOM     11  C   UNL     1      -3.258  -0.895   0.484  0.00  0.00    +0.000 C 
ATOM     12  N   UNL     1      -3.253  -2.080   0.020  0.00  0.00    +0.000 NA
ATOM     13  S   UNL     1      -4.444  -0.168   1.480  0.00  0.00    +0.000 S 
ENDBRANCH   8  12
ENDBRANCH   1   8
TORSDOF 2
