REMARK  Name = *****
REMARK  2 active torsions:
REMARK  status: ('A' for Active; 'I' for Inactive)
REMARK    1  A    between atoms: C_5  and  N_7
REMARK    2  A    between atoms: C_8  and  C_9
REMARK                            x       y       z     vdW  Elec       q    Type
REMARK                         _______ _______ _______ _____ _____    ______ ____
ROOT
ATOM      1  N   UNL     1       0.396  -2.507  -0.185  0.00  0.00    +0.000 NA
ATOM      2  C   UNL     1       1.687  -2.587  -0.186  0.00  0.00    +0.000 C 
ENDROOT
BRANCH   1   7
ATOM      3  C   UNL     1      -1.659   0.369  -1.250  0.00  0.00    +0.000 A 
ATOM      4  C   UNL     1      -1.400   1.326  -0.275  0.00  0.00    +0.000 A 
ATOM      5  C   UNL     1      -0.528   1.031   0.776  0.00  0.00    +0.000 A 
ATOM      6  C   UNL     1       0.098  -0.221   0.862  0.00  0.00    +0.000 A 
ATOM      7  C   UNL     1      -0.146  -1.199  -0.136  0.00  0.00    +0.000 A 
ATOM      8  C   UNL     1      -1.039  -0.879  -1.173  0.00  0.00    +0.000 A 
ATOM      9  S   UNL     1       1.138  -0.458   2.234  0.00  0.00    +0.000 S 
ENDBRANCH   1   7
BRANCH   2  10
ATOM     10  C   UNL     1       2.386  -3.887  -0.191  0.00  0.00    +0.000 A 
ATOM     11  C   UNL     1       1.669  -5.087  -0.241  0.00  0.00    +0.000 A 
ATOM     12  C   UNL     1       2.352  -6.305  -0.253  0.00  0.00    +0.000 A 
ATOM     13  C   UNL     1       3.747  -6.315  -0.211  0.00  0.00    +0.000 A 
ATOM     14  C   UNL     1       4.465  -5.120  -0.154  0.00  0.00    +0.000 A 
ATOM     15  C   UNL     1       3.783  -3.901  -0.143  0.00  0.00    +0.000 A 
ATOM     16 CL   UNL     1       4.590  -7.817  -0.229  0.00  0.00    +0.000 Cl
ENDBRANCH   2  10
TORSDOF 2
