REMARK  Name = *****
REMARK  2 active torsions:
REMARK  status: ('A' for Active; 'I' for Inactive)
REMARK    1  A    between atoms: C_3  and  C_9
REMARK    2  A    between atoms: C_6  and  C_7
REMARK                            x       y       z     vdW  Elec       q    Type
REMARK                         _______ _______ _______ _____ _____    ______ ____
ROOT
ATOM      1  C   UNL     1      -1.889  -2.409  -0.080  0.00  0.00    +0.000 A 
ATOM      2  N   UNL     1      -1.581  -3.693  -0.004  0.00  0.00    +0.000 NA
ATOM      3  C   UNL     1      -2.798  -4.324   0.013  0.00  0.00    +0.000 A 
ATOM      4  C   UNL     1      -3.813  -3.385  -0.060  0.00  0.00    +0.000 A 
ATOM      5  O   UNL     1      -3.238  -2.151  -0.121  0.00  0.00    +0.000 OA
ATOM      6  C   UNL     1      -5.170  -3.683  -0.066  0.00  0.00    +0.000 A 
ATOM      7  C   UNL     1      -5.489  -5.044   0.009  0.00  0.00    +0.000 A 
ATOM      8  C   UNL     1      -4.487  -6.021   0.085  0.00  0.00    +0.000 A 
ATOM      9  C   UNL     1      -3.128  -5.683   0.087  0.00  0.00    +0.000 A 
ATOM     10 CL   UNL     1      -4.937  -7.682   0.176  0.00  0.00    +0.000 Cl
ENDROOT
BRANCH   1  13
ATOM     11  C   UNL     1       1.270  -0.360  -0.143  0.00  0.00    +0.000 A 
ATOM     12  C   UNL     1       0.391  -1.446  -0.103  0.00  0.00    +0.000 A 
ATOM     13  C   UNL     1      -0.998  -1.252  -0.127  0.00  0.00    +0.000 A 
ATOM     14  C   UNL     1      -1.485   0.061  -0.190  0.00  0.00    +0.000 A 
ATOM     15  C   UNL     1      -0.608   1.150  -0.230  0.00  0.00    +0.000 A 
ATOM     16  C   UNL     1       0.779   0.950  -0.215  0.00  0.00    +0.000 A 
BRANCH  16  17
ATOM     17  C   UNL     1       1.722   2.121  -0.241  0.00  0.00    +0.000 C 
ATOM     18 CL   UNL     1       2.045   2.695   1.407  0.00  0.00    +0.000 Cl
ENDBRANCH  16  17
ENDBRANCH   1  13
TORSDOF 2
