REMARK  Name = *****
REMARK  4 active torsions:
REMARK  status: ('A' for Active; 'I' for Inactive)
REMARK    1  A    between atoms: C_7  and  C_8
REMARK    2  A    between atoms: C_8  and  O_9
REMARK    3  A    between atoms: O_9  and  S_10
REMARK    4  A    between atoms: S_10  and  C_11
REMARK                            x       y       z     vdW  Elec       q    Type
REMARK                         _______ _______ _______ _____ _____    ______ ____
ROOT
ATOM      1  C   UNL     1       0.088   1.823   2.179  0.00  0.00    +0.000 C 
ENDROOT
BRANCH   1   8
ATOM      2  C   UNL     1      -0.430  -1.383   0.402  0.00  0.00    +0.000 C 
ATOM      3  C   UNL     1      -1.446  -0.233   0.451  0.00  0.00    +0.000 C 
ATOM      4  C   UNL     1      -0.668   0.943  -0.163  0.00  0.00    +0.000 C 
ATOM      5  C   UNL     1       0.125   0.227  -1.262  0.00  0.00    +0.000 C 
ATOM      6  C   UNL     1       0.789  -0.738  -0.281  0.00  0.00    +0.000 C 
ATOM      7  C   UNL     1       1.463   0.223   0.717  0.00  0.00    +0.000 C 
ATOM      8  C   UNL     1       0.482   1.411   0.763  0.00  0.00    +0.000 C 
ENDBRANCH   1   8
BRANCH   1   9
ATOM      9  O   UNL     1      -0.893   2.855   2.095  0.00  0.00    +0.000 OA
BRANCH   9  10
ATOM     10  S   UNL     1      -1.414   3.427   3.571  0.00  0.00    +0.000 S 
BRANCH  10  11
ATOM     11  C   UNL     1      -0.353   4.858   3.714  0.00  0.00    +0.000 A 
ATOM     12  C   UNL     1       0.110   5.237   4.979  0.00  0.00    +0.000 A 
ATOM     13  C   UNL     1       0.935   6.355   5.126  0.00  0.00    +0.000 A 
ATOM     14  C   UNL     1       1.299   7.104   4.008  0.00  0.00    +0.000 A 
ATOM     15  C   UNL     1       0.837   6.739   2.745  0.00  0.00    +0.000 A 
ATOM     16  C   UNL     1       0.011   5.622   2.599  0.00  0.00    +0.000 A 
ENDBRANCH  10  11
ENDBRANCH   9  10
ENDBRANCH   1   9
TORSDOF 4
