REMARK  Name = *****
REMARK  4 active torsions:
REMARK  status: ('A' for Active; 'I' for Inactive)
REMARK    1  A    between atoms: C_1  and  C_2
REMARK    2  A    between atoms: C_5  and  C_8
REMARK    3  A    between atoms: C_8  and  O_10
REMARK    4  A    between atoms: O_10  and  C_11
REMARK                            x       y       z     vdW  Elec       q    Type
REMARK                         _______ _______ _______ _____ _____    ______ ____
ROOT
ATOM      1  C   UNL     1      -3.274  -0.331  -0.345  0.00  0.00    +0.000 C 
ATOM      2  S   UNL     1      -4.390   0.875  -0.634  0.00  0.00    +0.000 S 
ENDROOT
BRANCH   1   7
ATOM      3  C   UNL     1       2.479   0.211   0.204  0.00  0.00    +0.000 C 
ATOM      4  C   UNL     1       0.994   0.083   0.037  0.00  0.00    +0.000 A 
ATOM      5  C   UNL     1       0.144   1.118   0.442  0.00  0.00    +0.000 A 
ATOM      6  C   UNL     1      -1.243   0.989   0.317  0.00  0.00    +0.000 A 
ATOM      7  C   UNL     1      -1.802  -0.185  -0.204  0.00  0.00    +0.000 A 
ATOM      8  C   UNL     1      -0.950  -1.227  -0.597  0.00  0.00    +0.000 A 
ATOM      9  C   UNL     1       0.436  -1.095  -0.471  0.00  0.00    +0.000 A 
ENDBRANCH   1   7
BRANCH   1  10
ATOM     10  O   UNL     1      -3.608  -1.675  -0.149  0.00  0.00    +0.000 OA
BRANCH  10  11
ATOM     11  C   UNL     1      -4.922  -2.181  -0.254  0.00  0.00    +0.000 A 
ATOM     12  C   UNL     1      -5.411  -2.554  -1.503  0.00  0.00    +0.000 A 
ATOM     13  C   UNL     1      -6.691  -3.098  -1.589  0.00  0.00    +0.000 A 
ATOM     14  C   UNL     1      -7.455  -3.275  -0.432  0.00  0.00    +0.000 A 
ATOM     15  C   UNL     1      -6.940  -2.914   0.816  0.00  0.00    +0.000 A 
ATOM     16  C   UNL     1      -5.661  -2.369   0.911  0.00  0.00    +0.000 A 
ENDBRANCH  10  11
ENDBRANCH   1  10
TORSDOF 3
