REMARK  Name = *****
REMARK  3 active torsions:
REMARK  status: ('A' for Active; 'I' for Inactive)
REMARK    1  A    between atoms: C_1  and  C_2
REMARK    2  A    between atoms: C_5  and  C_8
REMARK    3  A    between atoms: C_9  and  C_10
REMARK                            x       y       z     vdW  Elec       q    Type
REMARK                         _______ _______ _______ _____ _____    ______ ____
ROOT
ATOM      1  C   UNL     1      -3.287   0.075   0.039  0.00  0.00    +0.000 C 
ATOM      2  C   UNL     1      -4.054   1.005  -0.552  0.00  0.00    +0.000 C 
ENDROOT
BRANCH   1   7
ATOM      3  C   UNL     1       2.501  -0.034  -0.019  0.00  0.00    +0.000 C 
ATOM      4  C   UNL     1       1.002   0.012  -0.037  0.00  0.00    +0.000 A 
ATOM      5  C   UNL     1       0.325   1.224   0.130  0.00  0.00    +0.000 A 
ATOM      6  C   UNL     1      -1.073   1.260   0.146  0.00  0.00    +0.000 A 
ATOM      7  C   UNL     1      -1.818   0.084  -0.004  0.00  0.00    +0.000 A 
ATOM      8  C   UNL     1      -1.137  -1.131  -0.138  0.00  0.00    +0.000 A 
ATOM      9  C   UNL     1       0.260  -1.168  -0.155  0.00  0.00    +0.000 A 
ENDBRANCH   1   7
BRANCH   2  10
ATOM     10  C   UNL     1      -5.473   0.934  -0.486  0.00  0.00    +0.000 A 
ATOM     11  C   UNL     1      -6.407   1.797  -1.048  0.00  0.00    +0.000 A 
ATOM     12  C   UNL     1      -7.697   1.320  -0.714  0.00  0.00    +0.000 A 
ATOM     13  C   UNL     1      -7.501   0.187   0.037  0.00  0.00    +0.000 A 
ATOM     14  O   UNL     1      -6.172  -0.051   0.178  0.00  0.00    +0.000 OA
ATOM     15 CL   UNL     1      -8.717  -0.817   0.721  0.00  0.00    +0.000 Cl
ENDBRANCH   2  10
TORSDOF 2
