REMARK  Name = *****
REMARK  5 active torsions:
REMARK  status: ('A' for Active; 'I' for Inactive)
REMARK    1  A    between atoms: C_1  and  C_2
REMARK    2  A    between atoms: C_7  and  C_8
REMARK    3  A    between atoms: C_9  and  C_10
REMARK    4  A    between atoms: C_13  and  C_16
REMARK    5  A    between atoms: C_16  and  C_18
REMARK                            x       y       z     vdW  Elec       q    Type
REMARK                         _______ _______ _______ _____ _____    ______ ____
ROOT
ATOM      1  C   UNL     1       0.762  -2.320  -0.815  0.00  0.00    +0.000 C 
ATOM      2  C   UNL     1       2.011  -2.804  -0.905  0.00  0.00    +0.000 C 
ENDROOT
BRANCH   1   9
ATOM      3  C   UNL     1      -1.118  -1.652   1.380  0.00  0.00    +0.000 C 
ATOM      4  C   UNL     1      -0.432  -0.592   0.561  0.00  0.00    +0.000 A 
ATOM      5  C   UNL     1      -0.705   0.760   0.830  0.00  0.00    +0.000 A 
ATOM      6  C   UNL     1      -0.092   1.774   0.094  0.00  0.00    +0.000 A 
ATOM      7  C   UNL     1       0.797   1.452  -0.925  0.00  0.00    +0.000 A 
ATOM      8  C   UNL     1       1.074   0.114  -1.209  0.00  0.00    +0.000 A 
ATOM      9  C   UNL     1       0.473  -0.918  -0.470  0.00  0.00    +0.000 A 
ENDBRANCH   1   9
BRANCH   2  10
ATOM     10  C   UNL     1       2.328  -4.206  -1.212  0.00  0.00    +0.000 A 
ATOM     11  C   UNL     1       3.453  -4.790  -0.620  0.00  0.00    +0.000 A 
ATOM     12  C   UNL     1       3.799  -6.116  -0.899  0.00  0.00    +0.000 A 
ATOM     13  C   UNL     1       3.028  -6.878  -1.785  0.00  0.00    +0.000 A 
ATOM     14  C   UNL     1       1.916  -6.294  -2.399  0.00  0.00    +0.000 A 
ATOM     15  C   UNL     1       1.574  -4.965  -2.117  0.00  0.00    +0.000 A 
BRANCH  13  16
ATOM     16  C   UNL     1       3.431  -8.293  -2.044  0.00  0.00    +0.000 C 
ATOM     17  O   UNL     1       4.484  -8.725  -1.580  0.00  0.00    +0.000 OA
ATOM     18  C   UNL     1       2.530  -9.166  -2.877  0.00  0.00    +0.000 C 
ENDBRANCH  13  16
ENDBRANCH   2  10
TORSDOF 3
