REMARK  Name = *****
REMARK  5 active torsions:
REMARK  status: ('A' for Active; 'I' for Inactive)
REMARK    1  A    between atoms: C_1  and  O_2
REMARK    2  A    between atoms: O_2  and  C_3
REMARK    3  A    between atoms: C_3  and  C_13
REMARK    4  A    between atoms: C_4  and  C_5
REMARK    5  A    between atoms: C_4  and  C_7
REMARK                            x       y       z     vdW  Elec       q    Type
REMARK                         _______ _______ _______ _____ _____    ______ ____
ROOT
ATOM      1  C   UNL     1       3.255  -1.072   0.776  0.00  0.00    +0.000 C 
ATOM      2  C   UNL     1       2.583  -2.144   1.255  0.00  0.00    +0.000 C 
ENDROOT
BRANCH   2   3
ATOM      3  C   UNL     1       1.106  -2.128   1.334  0.00  0.00    +0.000 A 
ATOM      4  C   UNL     1       0.325  -2.137   0.168  0.00  0.00    +0.000 A 
ATOM      5  C   UNL     1      -1.069  -2.136   0.250  0.00  0.00    +0.000 A 
ATOM      6  C   UNL     1      -1.695  -2.130   1.495  0.00  0.00    +0.000 A 
ATOM      7  C   UNL     1      -0.930  -2.125   2.660  0.00  0.00    +0.000 A 
ATOM      8  C   UNL     1       0.465  -2.124   2.581  0.00  0.00    +0.000 A 
ENDBRANCH   2   3
BRANCH   1   9
ATOM      9  C   UNL     1       4.732  -0.996   0.735  0.00  0.00    +0.000 A 
ATOM     10  C   UNL     1       5.481  -1.832  -0.105  0.00  0.00    +0.000 A 
ATOM     11  C   UNL     1       6.874  -1.737  -0.135  0.00  0.00    +0.000 A 
ATOM     12  C   UNL     1       7.528  -0.804   0.668  0.00  0.00    +0.000 A 
ATOM     13  C   UNL     1       6.792   0.037   1.501  0.00  0.00    +0.000 A 
ATOM     14  C   UNL     1       5.399  -0.057   1.533  0.00  0.00    +0.000 A 
ENDBRANCH   1   9
BRANCH   1  16
ATOM     15  C   UNL     1       2.889   0.557  -0.883  0.00  0.00    +0.000 C 
ATOM     16  O   UNL     1       2.583   0.096   0.433  0.00  0.00    +0.000 OA
ENDBRANCH   1  16
BRANCH   2  17
ATOM     17  C   UNL     1       3.253  -3.316   1.729  0.00  0.00    +0.000 C 
ATOM     18  N   UNL     1       3.786  -4.276   2.108  0.00  0.00    +0.000 NA
ENDBRANCH   2  17
TORSDOF 4
