REMARK  Name = *****
REMARK  4 active torsions:
REMARK  status: ('A' for Active; 'I' for Inactive)
REMARK    1  A    between atoms: C_4  and  C_7
REMARK    2  A    between atoms: C_7  and  O_8
REMARK    3  A    between atoms: O_8  and  C_9
REMARK    4  A    between atoms: C_11  and  S_15
REMARK                            x       y       z     vdW  Elec       q    Type
REMARK                         _______ _______ _______ _____ _____    ______ ____
ROOT
ATOM      1  O   UNL     1      -3.580  -0.724  -0.110  0.00  0.00    +0.000 OA
ENDROOT
BRANCH   1   2
ATOM      2  C   UNL     1      -4.941  -0.663  -0.231  0.00  0.00    +0.000 A 
ATOM      3  C   UNL     1      -5.700   0.491  -0.433  0.00  0.00    +0.000 A 
ATOM      4  C   UNL     1      -7.095   0.407  -0.540  0.00  0.00    +0.000 A 
ATOM      5  C   UNL     1      -7.729  -0.833  -0.436  0.00  0.00    +0.000 A 
ATOM      6  C   UNL     1      -6.974  -1.988  -0.235  0.00  0.00    +0.000 A 
ATOM      7  C   UNL     1      -5.586  -1.899  -0.134  0.00  0.00    +0.000 A 
BRANCH   4   8
ATOM      8  S   UNL     1      -8.069   1.876  -0.796  0.00  0.00    +0.000 S 
ATOM      9  H   UNL     1      -7.248   2.957  -0.866  0.00  0.00    +0.000 HD
ENDBRANCH   4   8
ENDBRANCH   1   2
BRANCH   1  10
ATOM     10  C   UNL     1      -2.860   0.507  -0.190  0.00  0.00    +0.000 C 
BRANCH  10  14
ATOM     11  C   UNL     1       1.389  -0.215   0.093  0.00  0.00    +0.000 A 
ATOM     12  C   UNL     1       0.598  -1.023  -0.722  0.00  0.00    +0.000 A 
ATOM     13  C   UNL     1      -0.776  -0.797  -0.807  0.00  0.00    +0.000 A 
ATOM     14  C   UNL     1      -1.378   0.234  -0.070  0.00  0.00    +0.000 A 
ATOM     15  C   UNL     1      -0.570   1.047   0.738  0.00  0.00    +0.000 A 
ATOM     16  C   UNL     1       0.806   0.820   0.822  0.00  0.00    +0.000 A 
ENDBRANCH  10  14
ENDBRANCH   1  10
TORSDOF 4
