REMARK  Name = *****
REMARK  2 active torsions:
REMARK  status: ('A' for Active; 'I' for Inactive)
REMARK    1  A    between atoms: C_4  and  C_7
REMARK    2  A    between atoms: C_7  and  C_8
REMARK                            x       y       z     vdW  Elec       q    Type
REMARK                         _______ _______ _______ _____ _____    ______ ____
ROOT
ATOM      1  C   UNL     1      -3.122   0.316  -0.150  0.00  0.00    +0.000 C 
ATOM      2  C   UNL     1      -3.252   1.749  -0.627  0.00  0.00    +0.000 A 
ATOM      3  C   UNL     1      -2.359   2.786  -0.363  0.00  0.00    +0.000 A 
ATOM      4  C   UNL     1      -2.591   4.049  -0.915  0.00  0.00    +0.000 A 
ATOM      5  C   UNL     1      -3.704   4.276  -1.731  0.00  0.00    +0.000 A 
ATOM      6  C   UNL     1      -4.600   3.242  -1.997  0.00  0.00    +0.000 A 
ATOM      7  C   UNL     1      -4.364   1.991  -1.441  0.00  0.00    +0.000 A 
ATOM      8  S   UNL     1      -5.392   0.571  -1.660  0.00  0.00    +0.000 S 
ATOM      9  C   UNL     1      -4.360  -0.438  -0.643  0.00  0.00    +0.000 C 
ATOM     10  O   UNL     1      -4.623  -1.608  -0.404  0.00  0.00    +0.000 OA
ENDROOT
BRANCH   1  11
ATOM     11  C   UNL     1      -3.018   0.149   1.377  0.00  0.00    +0.000 C 
BRANCH  11  15
ATOM     12  C   UNL     1       0.785   0.495   3.427  0.00  0.00    +0.000 A 
ATOM     13  C   UNL     1      -0.416   0.548   4.126  0.00  0.00    +0.000 A 
ATOM     14  C   UNL     1      -1.628   0.455   3.438  0.00  0.00    +0.000 A 
ATOM     15  C   UNL     1      -1.661   0.309   2.040  0.00  0.00    +0.000 A 
ATOM     16  C   UNL     1      -0.441   0.237   1.356  0.00  0.00    +0.000 A 
ATOM     17  C   UNL     1       0.773   0.341   2.043  0.00  0.00    +0.000 A 
ENDBRANCH  11  15
ENDBRANCH   1  11
TORSDOF 2
