REMARK  Name = *****
REMARK  4 active torsions:
REMARK  status: ('A' for Active; 'I' for Inactive)
REMARK    1  A    between atoms: C_1  and  C_2
REMARK    2  A    between atoms: C_4  and  C_16
REMARK    3  A    between atoms: C_5  and  C_8
REMARK    4  A    between atoms: C_9  and  C_10
REMARK                            x       y       z     vdW  Elec       q    Type
REMARK                         _______ _______ _______ _____ _____    ______ ____
ROOT
ATOM      1  C   UNL     1       1.069  -0.079   0.100  0.00  0.00    +0.000 C 
ATOM      2  C   UNL     1       2.560  -0.028  -0.062  0.00  0.00    +0.000 A 
ATOM      3  C   UNL     1       3.228   1.198  -0.184  0.00  0.00    +0.000 A 
ATOM      4  C   UNL     1       4.621   1.251  -0.368  0.00  0.00    +0.000 A 
ATOM      5  C   UNL     1       5.343   0.047  -0.444  0.00  0.00    +0.000 A 
ATOM      6  C   UNL     1       4.679  -1.177  -0.314  0.00  0.00    +0.000 A 
ATOM      7  C   UNL     1       3.296  -1.214  -0.125  0.00  0.00    +0.000 A 
ATOM      8  C   UNL     1       5.299   2.586  -0.500  0.00  0.00    +0.000 C 
ENDROOT
BRANCH   5   9
ATOM      9  C   UNL     1       6.756   0.040  -0.686  0.00  0.00    +0.000 C 
ATOM     10  C   UNL     1       7.932   0.049  -0.932  0.00  0.00    +0.000 C 
BRANCH  10  11
ATOM     11  C   UNL     1       9.321   0.080  -1.266  0.00  0.00    +0.000 A 
ATOM     12  C   UNL     1       9.972   1.299  -1.427  0.00  0.00    +0.000 A 
ATOM     13  C   UNL     1      11.311   1.280  -1.774  0.00  0.00    +0.000 A 
ATOM     14  N   UNL     1      12.021   0.147  -1.963  0.00  0.00    +0.000 NA
ATOM     15  C   UNL     1      11.362  -1.020  -1.798  0.00  0.00    +0.000 A 
ATOM     16  C   UNL     1      10.024  -1.107  -1.452  0.00  0.00    +0.000 A 
ENDBRANCH  10  11
ENDBRANCH   5   9
TORSDOF 2
