REMARK  Name = *****
REMARK  3 active torsions:
REMARK  status: ('A' for Active; 'I' for Inactive)
REMARK    1  A    between atoms: C_2  and  C_3
REMARK    2  A    between atoms: C_8  and  C_9
REMARK    3  A    between atoms: C_10  and  C_11
REMARK                            x       y       z     vdW  Elec       q    Type
REMARK                         _______ _______ _______ _____ _____    ______ ____
ROOT
ATOM      1  C   UNL     1       3.489   0.635  -2.870  0.00  0.00    +0.000 A 
ATOM      2  C   UNL     1       3.191   2.009  -2.874  0.00  0.00    +0.000 A 
ATOM      3  C   UNL     1       3.427   2.799  -1.748  0.00  0.00    +0.000 A 
ATOM      4  C   UNL     1       3.958   2.227  -0.597  0.00  0.00    +0.000 A 
ATOM      5  C   UNL     1       4.247   0.862  -0.570  0.00  0.00    +0.000 A 
ATOM      6  C   UNL     1       4.006   0.051  -1.693  0.00  0.00    +0.000 A 
ENDROOT
BRANCH   1   8
ATOM      7  C   UNL     1       3.501   0.187  -5.314  0.00  0.00    +0.000 C 
ATOM      8  C   UNL     1       3.186  -0.176  -4.064  0.00  0.00    +0.000 C 
ENDBRANCH   1   8
BRANCH   6   9
ATOM      9  C   UNL     1       4.362  -1.378  -1.629  0.00  0.00    +0.000 C 
ATOM     10  C   UNL     1       3.910  -2.199  -0.668  0.00  0.00    +0.000 C 
BRANCH  10  11
ATOM     11  C   UNL     1       4.233  -3.631  -0.601  0.00  0.00    +0.000 A 
ATOM     12  C   UNL     1       5.514  -4.120  -0.888  0.00  0.00    +0.000 A 
ATOM     13  C   UNL     1       5.793  -5.485  -0.783  0.00  0.00    +0.000 A 
ATOM     14  C   UNL     1       4.797  -6.373  -0.380  0.00  0.00    +0.000 A 
ATOM     15  C   UNL     1       3.524  -5.895  -0.076  0.00  0.00    +0.000 A 
ATOM     16  C   UNL     1       3.245  -4.530  -0.180  0.00  0.00    +0.000 A 
ENDBRANCH  10  11
ENDBRANCH   6   9
TORSDOF 3
