REMARK  Name = *****
REMARK  3 active torsions:
REMARK  status: ('A' for Active; 'I' for Inactive)
REMARK    1  A    between atoms: C_4  and  N_7
REMARK    2  A    between atoms: N_7  and  C_8
REMARK    3  A    between atoms: N_7  and  N_18
REMARK                            x       y       z     vdW  Elec       q    Type
REMARK                         _______ _______ _______ _____ _____    ______ ____
ROOT
ATOM      1  C   UNL     1      -3.553   2.000   0.039  0.00  0.00    +0.000 A 
ATOM      2  C   UNL     1      -3.099   2.195  -1.282  0.00  0.00    +0.000 A 
ATOM      3  C   UNL     1      -3.650   3.188  -2.084  0.00  0.00    +0.000 A 
ATOM      4  C   UNL     1      -4.661   4.001  -1.580  0.00  0.00    +0.000 A 
ATOM      5  C   UNL     1      -5.129   3.848  -0.265  0.00  0.00    +0.000 A 
ATOM      6  C   UNL     1      -6.143   4.688   0.223  0.00  0.00    +0.000 A 
ATOM      7  C   UNL     1      -6.611   4.566   1.530  0.00  0.00    +0.000 A 
ATOM      8  C   UNL     1      -6.065   3.607   2.371  0.00  0.00    +0.000 A 
ATOM      9  C   UNL     1      -5.056   2.763   1.900  0.00  0.00    +0.000 A 
ATOM     10  C   UNL     1      -4.572   2.848   0.572  0.00  0.00    +0.000 A 
ENDROOT
BRANCH   1  11
ATOM     11  N   UNL     1      -2.979   0.923   0.817  0.00  0.00    +0.000 N 
BRANCH  11  15
ATOM     12  C   UNL     1      -5.296  -2.516   1.879  0.00  0.00    +0.000 A 
ATOM     13  C   UNL     1      -5.774  -1.621   0.928  0.00  0.00    +0.000 A 
ATOM     14  C   UNL     1      -5.016  -0.499   0.574  0.00  0.00    +0.000 A 
ATOM     15  C   UNL     1      -3.763  -0.243   1.166  0.00  0.00    +0.000 A 
ATOM     16  C   UNL     1      -3.302  -1.172   2.123  0.00  0.00    +0.000 A 
ATOM     17  C   UNL     1      -4.060  -2.293   2.476  0.00  0.00    +0.000 A 
ENDBRANCH  11  15
BRANCH  11  18
ATOM     18  N   UNL     1      -1.637   0.910   1.097  0.00  0.00    +0.000 NA
ATOM     19  O   UNL     1      -1.069   2.003   0.984  0.00  0.00    +0.000 OA
ENDBRANCH  11  18
ENDBRANCH   1  11
TORSDOF 3
