REMARK  Name = *****
REMARK  4 active torsions:
REMARK  status: ('A' for Active; 'I' for Inactive)
REMARK    1  A    between atoms: C_1  and  C_2
REMARK    2  A    between atoms: C_5  and  C_8
REMARK    3  A    between atoms: C_9  and  C_10
REMARK    4  A    between atoms: C_13  and  C_15
REMARK                            x       y       z     vdW  Elec       q    Type
REMARK                         _______ _______ _______ _____ _____    ______ ____
ROOT
ATOM      1  C   UNL     1      -3.312   0.133  -0.055  0.00  0.00    +0.000 C 
ATOM      2  C   UNL     1      -4.060   1.246  -0.113  0.00  0.00    +0.000 C 
ENDROOT
BRANCH   1   7
ATOM      3  C   UNL     1       2.475  -0.034  -0.008  0.00  0.00    +0.000 C 
ATOM      4  C   UNL     1       0.977   0.040  -0.040  0.00  0.00    +0.000 A 
ATOM      5  C   UNL     1       0.297   1.018   0.694  0.00  0.00    +0.000 A 
ATOM      6  C   UNL     1      -1.100   1.066   0.689  0.00  0.00    +0.000 A 
ATOM      7  C   UNL     1      -1.843   0.136  -0.049  0.00  0.00    +0.000 A 
ATOM      8  C   UNL     1      -1.161  -0.861  -0.756  0.00  0.00    +0.000 A 
ATOM      9  C   UNL     1       0.237  -0.909  -0.753  0.00  0.00    +0.000 A 
ENDBRANCH   1   7
BRANCH   2  10
ATOM     10  C   UNL     1      -5.480   1.175  -0.128  0.00  0.00    +0.000 A 
ATOM     11  C   UNL     1      -6.397   2.219  -0.199  0.00  0.00    +0.000 A 
ATOM     12  C   UNL     1      -7.698   1.663  -0.184  0.00  0.00    +0.000 A 
ATOM     13  C   UNL     1      -7.526   0.303  -0.104  0.00  0.00    +0.000 A 
ATOM     14  O   UNL     1      -6.201   0.002  -0.070  0.00  0.00    +0.000 OA
ATOM     15  C   UNL     1      -8.455  -0.842  -0.050  0.00  0.00    +0.000 C 
ENDBRANCH   2  10
TORSDOF 2
