REMARK  Name = *****
REMARK  3 active torsions:
REMARK  status: ('A' for Active; 'I' for Inactive)
REMARK    1  A    between atoms: N_6  and  S_7
REMARK    2  A    between atoms: S_7  and  S_8
REMARK    3  A    between atoms: S_8  and  C_9
REMARK                            x       y       z     vdW  Elec       q    Type
REMARK                         _______ _______ _______ _____ _____    ______ ____
ROOT
ATOM      1  S   UNL     1      -3.355  -2.022  -1.781  0.00  0.00    +0.000 S 
ENDROOT
BRANCH   1   2
ATOM      2  C   UNL     1      -4.630  -1.103  -0.940  0.00  0.00    +0.000 A 
ATOM      3  C   UNL     1      -5.507  -0.284  -1.659  0.00  0.00    +0.000 A 
ATOM      4  C   UNL     1      -6.508   0.431  -0.995  0.00  0.00    +0.000 A 
ATOM      5  C   UNL     1      -6.633   0.321   0.389  0.00  0.00    +0.000 A 
ATOM      6  C   UNL     1      -5.769  -0.497   1.114  0.00  0.00    +0.000 A 
ATOM      7  C   UNL     1      -4.769  -1.211   0.449  0.00  0.00    +0.000 A 
ATOM      8 CL   UNL     1      -7.864   1.202   1.208  0.00  0.00    +0.000 Cl
ENDBRANCH   1   2
BRANCH   1   9
ATOM      9  S   UNL     1      -1.867  -0.616  -1.940  0.00  0.00    +0.000 S 
BRANCH   9  15
ATOM     10  C   UNL     1      -1.086   0.357   0.469  0.00  0.00    +0.000 C 
ATOM     11  C   UNL     1       0.194   1.164   0.209  0.00  0.00    +0.000 C 
ATOM     12  O   UNL     1       1.360   0.344   0.359  0.00  0.00    +0.000 OA
ATOM     13  C   UNL     1       1.302  -0.779  -0.531  0.00  0.00    +0.000 C 
ATOM     14  C   UNL     1       0.040  -1.616  -0.283  0.00  0.00    +0.000 C 
ATOM     15  N   UNL     1      -1.197  -0.817  -0.424  0.00  0.00    +0.000 NA
ENDBRANCH   9  15
ENDBRANCH   1   9
TORSDOF 3
