REMARK  Name = *****
REMARK  2 active torsions:
REMARK  status: ('A' for Active; 'I' for Inactive)
REMARK    1  A    between atoms: C_2  and  C_10
REMARK    2  A    between atoms: N_3  and  C_4
REMARK                            x       y       z     vdW  Elec       q    Type
REMARK                         _______ _______ _______ _____ _____    ______ ____
ROOT
ATOM      1  C   UNL     1      -0.235   0.870   0.043  0.00  0.00    +0.000 C 
ATOM      2  C   UNL     1       0.887  -0.117   0.210  0.00  0.00    +0.000 C 
ATOM      3  N   UNL     1      -0.482  -0.424   0.674  0.00  0.00    +0.000 N 
ENDROOT
BRANCH   2   4
ATOM      4  C   UNL     1       1.535  -0.804  -0.963  0.00  0.00    +0.000 A 
ATOM      5  C   UNL     1       1.804  -2.185  -0.939  0.00  0.00    +0.000 A 
ATOM      6  C   UNL     1       2.420  -2.831  -2.015  0.00  0.00    +0.000 A 
ATOM      7  C   UNL     1       2.795  -2.098  -3.135  0.00  0.00    +0.000 A 
ATOM      8  C   UNL     1       2.562  -0.727  -3.184  0.00  0.00    +0.000 A 
ATOM      9  C   UNL     1       1.942  -0.089  -2.104  0.00  0.00    +0.000 A 
ATOM     10 CL   UNL     1       3.553  -2.885  -4.463  0.00  0.00    +0.000 Cl
ENDBRANCH   2   4
BRANCH   3  11
ATOM     11  C   UNL     1      -1.310  -1.386   0.041  0.00  0.00    +0.000 A 
ATOM     12  C   UNL     1      -1.931  -2.323   0.886  0.00  0.00    +0.000 A 
ATOM     13  C   UNL     1      -2.772  -3.317   0.380  0.00  0.00    +0.000 A 
ATOM     14  C   UNL     1      -3.014  -3.391  -0.988  0.00  0.00    +0.000 A 
ATOM     15  C   UNL     1      -2.416  -2.469  -1.843  0.00  0.00    +0.000 A 
ATOM     16  C   UNL     1      -1.575  -1.474  -1.332  0.00  0.00    +0.000 A 
ENDBRANCH   3  11
TORSDOF 2
