REMARK  Name = *****
REMARK  3 active torsions:
REMARK  status: ('A' for Active; 'I' for Inactive)
REMARK    1  A    between atoms: C_2  and  C_10
REMARK    2  A    between atoms: C_4  and  C_6
REMARK    3  A    between atoms: C_11  and  C_12
REMARK                            x       y       z     vdW  Elec       q    Type
REMARK                         _______ _______ _______ _____ _____    ______ ____
ROOT
ATOM      1  C   UNL     1      -0.205  -0.224   0.247  0.00  0.00    +0.000 C 
ATOM      2  C   UNL     1       0.662   1.018   0.127  0.00  0.00    +0.000 C 
ATOM      3  N   UNL     1       1.877   0.558  -0.557  0.00  0.00    +0.000 NA
ATOM      4  C   UNL     1       1.804  -0.741  -0.525  0.00  0.00    +0.000 C 
ATOM      5  O   UNL     1       0.692  -1.305   0.028  0.00  0.00    +0.000 OA
ENDROOT
BRANCH   4   6
ATOM      6  C   UNL     1       2.848  -1.727  -1.032  0.00  0.00    +0.000 C 
ATOM      7 CL   UNL     1       2.082  -2.811  -2.226  0.00  0.00    +0.000 Cl
ATOM      8 CL   UNL     1       4.212  -0.880  -1.805  0.00  0.00    +0.000 Cl
ATOM      9 CL   UNL     1       3.451  -2.672   0.356  0.00  0.00    +0.000 Cl
ENDBRANCH   4   6
BRANCH   2  10
ATOM     10  C   UNL     1       1.061   1.591   1.459  0.00  0.00    +0.000 C 
ATOM     11  C   UNL     1       0.790   2.850   1.842  0.00  0.00    +0.000 C 
BRANCH  11  12
ATOM     12  C   UNL     1       1.175   3.411   3.145  0.00  0.00    +0.000 A 
ATOM     13  C   UNL     1       2.412   3.132   3.741  0.00  0.00    +0.000 A 
ATOM     14  C   UNL     1       2.755   3.707   4.967  0.00  0.00    +0.000 A 
ATOM     15  C   UNL     1       1.870   4.575   5.604  0.00  0.00    +0.000 A 
ATOM     16  C   UNL     1       0.645   4.873   5.012  0.00  0.00    +0.000 A 
ATOM     17  C   UNL     1       0.301   4.298   3.786  0.00  0.00    +0.000 A 
ENDBRANCH  11  12
ENDBRANCH   2  10
TORSDOF 3
