REMARK  Name = *****
REMARK  3 active torsions:
REMARK  status: ('A' for Active; 'I' for Inactive)
REMARK    1  A    between atoms: C_1  and  C_2
REMARK    2  A    between atoms: C_5  and  C_12
REMARK    3  A    between atoms: C_8  and  C_11
REMARK                            x       y       z     vdW  Elec       q    Type
REMARK                         _______ _______ _______ _____ _____    ______ ____
ROOT
ATOM      1  C   UNL     1       1.010  -0.011   0.083  0.00  0.00    +0.000 C 
ATOM      2  C   UNL     1       2.506  -0.013   0.037  0.00  0.00    +0.000 A 
ATOM      3  C   UNL     1       3.239   1.169  -0.006  0.00  0.00    +0.000 A 
ATOM      4  C   UNL     1       2.745   2.587   0.023  0.00  0.00    +0.000 C 
ATOM      5  C   UNL     1       4.043   3.369  -0.065  0.00  0.00    +0.000 C 
ATOM      6  C   UNL     1       5.109   2.546  -0.111  0.00  0.00    +0.000 C 
ATOM      7  C   UNL     1       4.640   1.167  -0.081  0.00  0.00    +0.000 A 
ATOM      8  C   UNL     1       5.360  -0.022  -0.122  0.00  0.00    +0.000 A 
ATOM      9  C   UNL     1       4.629  -1.219  -0.089  0.00  0.00    +0.000 A 
ATOM     10  C   UNL     1       3.225  -1.214  -0.017  0.00  0.00    +0.000 A 
ATOM     11  C   UNL     1       6.856  -0.038  -0.197  0.00  0.00    +0.000 C 
ENDROOT
BRANCH   5  12
ATOM     12  C   UNL     1       4.071   4.843  -0.079  0.00  0.00    +0.000 A 
ATOM     13  C   UNL     1       5.210   5.548  -0.504  0.00  0.00    +0.000 A 
ATOM     14  C   UNL     1       5.230   6.946  -0.529  0.00  0.00    +0.000 A 
ATOM     15  C   UNL     1       4.109   7.668  -0.132  0.00  0.00    +0.000 A 
ATOM     16  C   UNL     1       2.968   6.991   0.286  0.00  0.00    +0.000 A 
ATOM     17  C   UNL     1       2.949   5.592   0.309  0.00  0.00    +0.000 A 
ENDBRANCH   5  12
TORSDOF 1
