REMARK  Name = *****
REMARK  4 active torsions:
REMARK  status: ('A' for Active; 'I' for Inactive)
REMARK    1  A    between atoms: C_3  and  C_9
REMARK    2  A    between atoms: C_9  and  C_11
REMARK    3  A    between atoms: C_11  and  C_12
REMARK    4  A    between atoms: C_12  and  C_13
REMARK                            x       y       z     vdW  Elec       q    Type
REMARK                         _______ _______ _______ _____ _____    ______ ____
ROOT
ATOM      1  C   UNL     1      -2.469  -1.913  -0.007  0.00  0.00    +0.000 C 
ATOM      2  O   UNL     1      -3.501  -1.242   0.008  0.00  0.00    +0.000 OA
ENDROOT
BRANCH   1   5
ATOM      3  C   UNL     1       0.036   0.918   0.106  0.00  0.00    +0.000 A 
ATOM      4  C   UNL     1      -1.164   0.203   0.068  0.00  0.00    +0.000 A 
ATOM      5  C   UNL     1      -1.157  -1.202   0.034  0.00  0.00    +0.000 A 
ATOM      6  C   UNL     1       0.074  -1.865   0.041  0.00  0.00    +0.000 A 
ATOM      7  C   UNL     1       1.274  -1.157   0.079  0.00  0.00    +0.000 A 
ATOM      8  C   UNL     1       1.243   0.230   0.112  0.00  0.00    +0.000 A 
ATOM      9  F   UNL     1       2.392   0.915   0.149  0.00  0.00    +0.000 F 
ATOM     10  F   UNL     1       0.149  -3.203   0.011  0.00  0.00    +0.000 F 
ENDBRANCH   1   5
BRANCH   1  11
ATOM     11  C   UNL     1      -2.502  -3.428  -0.066  0.00  0.00    +0.000 C 
BRANCH  11  12
ATOM     12  C   UNL     1      -3.935  -3.959  -0.121  0.00  0.00    +0.000 C 
BRANCH  12  13
ATOM     13  C   UNL     1      -3.963  -5.466  -0.188  0.00  0.00    +0.000 A 
ATOM     14  C   UNL     1      -3.991  -6.232   0.985  0.00  0.00    +0.000 A 
ATOM     15  C   UNL     1      -3.994  -7.622   0.909  0.00  0.00    +0.000 A 
ATOM     16  C   UNL     1      -3.965  -8.278  -0.314  0.00  0.00    +0.000 A 
ATOM     17  C   UNL     1      -3.933  -7.522  -1.481  0.00  0.00    +0.000 A 
ATOM     18  C   UNL     1      -3.929  -6.126  -1.426  0.00  0.00    +0.000 A 
ATOM     19 CL   UNL     1      -3.891  -8.314  -3.009  0.00  0.00    +0.000 Cl
ATOM     20  F   UNL     1      -4.021  -8.340   2.039  0.00  0.00    +0.000 F 
ENDBRANCH  12  13
ENDBRANCH  11  12
ENDBRANCH   1  11
TORSDOF 4
