REMARK  Name = *****
REMARK  4 active torsions:
REMARK  status: ('A' for Active; 'I' for Inactive)
REMARK    1  A    between atoms: C_4  and  C_7
REMARK    2  A    between atoms: C_7  and  C_8
REMARK    3  A    between atoms: C_8  and  O_10
REMARK    4  A    between atoms: O_10  and  C_11
REMARK                            x       y       z     vdW  Elec       q    Type
REMARK                         _______ _______ _______ _____ _____    ______ ____
ROOT
ATOM      1  C   UNL     1      -3.424  -1.064  -0.514  0.00  0.00    +0.000 C 
ATOM      2  S   UNL     1      -4.209  -1.057  -1.986  0.00  0.00    +0.000 S 
ENDROOT
BRANCH   1   3
ATOM      3  C   UNL     1      -2.851   0.163   0.150  0.00  0.00    +0.000 C 
BRANCH   3   7
ATOM      4  C   UNL     1       1.462   0.132   0.076  0.00  0.00    +0.000 A 
ATOM      5  C   UNL     1       0.749   0.632  -1.012  0.00  0.00    +0.000 A 
ATOM      6  C   UNL     1      -0.646   0.650  -0.986  0.00  0.00    +0.000 A 
ATOM      7  C   UNL     1      -1.341   0.172   0.134  0.00  0.00    +0.000 A 
ATOM      8  C   UNL     1      -0.614  -0.335   1.220  0.00  0.00    +0.000 A 
ATOM      9  C   UNL     1       0.781  -0.351   1.191  0.00  0.00    +0.000 A 
ENDBRANCH   3   7
ENDBRANCH   1   3
BRANCH   1  10
ATOM     10  O   UNL     1      -3.236  -2.194   0.289  0.00  0.00    +0.000 OA
BRANCH  10  11
ATOM     11  C   UNL     1      -3.533  -3.500  -0.148  0.00  0.00    +0.000 A 
ATOM     12  C   UNL     1      -2.600  -4.188  -0.921  0.00  0.00    +0.000 A 
ATOM     13  C   UNL     1      -2.880  -5.496  -1.309  0.00  0.00    +0.000 A 
ATOM     14  C   UNL     1      -4.074  -6.103  -0.910  0.00  0.00    +0.000 A 
ATOM     15  C   UNL     1      -4.989  -5.407  -0.116  0.00  0.00    +0.000 A 
ATOM     16  C   UNL     1      -4.717  -4.097   0.277  0.00  0.00    +0.000 A 
ENDBRANCH  10  11
ENDBRANCH   1  10
TORSDOF 4
