REMARK  Name = *****
REMARK  2 active torsions:
REMARK  status: ('A' for Active; 'I' for Inactive)
REMARK    1  A    between atoms: C_1  and  C_2
REMARK    2  A    between atoms: C_9  and  C_12
REMARK                            x       y       z     vdW  Elec       q    Type
REMARK                         _______ _______ _______ _____ _____    ______ ____
ROOT
ATOM      1  C   UNL     1       0.831  -0.128  -0.169  0.00  0.00    +0.000 C 
ATOM      2  C   UNL     1       2.319  -0.031  -0.009  0.00  0.00    +0.000 A 
ATOM      3  C   UNL     1       3.129  -1.159  -0.190  0.00  0.00    +0.000 A 
ATOM      4  C   UNL     1       4.515  -1.102  -0.081  0.00  0.00    +0.000 A 
ATOM      5  C   UNL     1       5.139   0.123   0.207  0.00  0.00    +0.000 A 
ATOM      6  C   UNL     1       4.317   1.267   0.375  0.00  0.00    +0.000 A 
ATOM      7  C   UNL     1       2.928   1.191   0.263  0.00  0.00    +0.000 A 
ATOM      8  C   UNL     1       6.553   0.118   0.306  0.00  0.00    +0.000 A 
ATOM      9  C   UNL     1       7.259  -1.070   0.109  0.00  0.00    +0.000 A 
ATOM     10  N   UNL     1       6.597  -2.216  -0.156  0.00  0.00    +0.000 NA
ATOM     11  N   UNL     1       5.228  -2.222  -0.251  0.00  0.00    +0.000 NA
ATOM     12 CL   UNL     1       7.400   1.584   0.715  0.00  0.00    +0.000 Cl
ENDROOT
BRANCH   9  13
ATOM     13  C   UNL     1       8.720  -1.218   0.173  0.00  0.00    +0.000 A 
ATOM     14  C   UNL     1       9.306  -2.091   1.107  0.00  0.00    +0.000 A 
ATOM     15  C   UNL     1      10.692  -2.250   1.175  0.00  0.00    +0.000 A 
ATOM     16  C   UNL     1      11.518  -1.543   0.304  0.00  0.00    +0.000 A 
ATOM     17  C   UNL     1      10.958  -0.684  -0.639  0.00  0.00    +0.000 A 
ATOM     18  C   UNL     1       9.571  -0.527  -0.707  0.00  0.00    +0.000 A 
ENDBRANCH   9  13
TORSDOF 1
