REMARK  Name = *****
REMARK  4 active torsions:
REMARK  status: ('A' for Active; 'I' for Inactive)
REMARK    1  A    between atoms: C_1  and  S_2
REMARK    2  A    between atoms: S_2  and  C_3
REMARK    3  A    between atoms: S_2  and  C_11
REMARK    4  A    between atoms: C_3  and  C_4
REMARK                            x       y       z     vdW  Elec       q    Type
REMARK                         _______ _______ _______ _____ _____    ______ ____
ROOT
ATOM      1  C   UNL     1       1.104  -0.147  -0.321  0.00  0.00    +0.000 C 
ATOM      2  S   UNL     1       2.847  -0.041   0.134  0.00  0.00    +0.000 S 
ENDROOT
BRANCH   2   3
ATOM      3  C   UNL     1       3.451   1.099  -1.121  0.00  0.00    +0.000 A 
ATOM      4  C   UNL     1       4.369   2.069  -0.705  0.00  0.00    +0.000 A 
ATOM      5  C   UNL     1       4.897   2.988  -1.615  0.00  0.00    +0.000 A 
ATOM      6  C   UNL     1       4.510   2.944  -2.951  0.00  0.00    +0.000 A 
ATOM      7  C   UNL     1       3.598   1.980  -3.377  0.00  0.00    +0.000 A 
ATOM      8  C   UNL     1       3.070   1.060  -2.465  0.00  0.00    +0.000 A 
ENDBRANCH   2   3
BRANCH   2   9
ATOM      9  C   UNL     1       3.351  -1.623  -0.608  0.00  0.00    +0.000 C 
BRANCH   9  10
ATOM     10  C   UNL     1       4.821  -1.891  -0.407  0.00  0.00    +0.000 A 
ATOM     11  C   UNL     1       5.290  -2.399   0.815  0.00  0.00    +0.000 A 
ATOM     12  C   UNL     1       6.652  -2.636   1.010  0.00  0.00    +0.000 A 
ATOM     13  C   UNL     1       7.555  -2.360  -0.014  0.00  0.00    +0.000 A 
ATOM     14  C   UNL     1       7.108  -1.847  -1.230  0.00  0.00    +0.000 A 
ATOM     15  C   UNL     1       5.745  -1.612  -1.424  0.00  0.00    +0.000 A 
ATOM     16 BR   UNL     1       9.400  -2.677   0.249  0.00  0.00    +0.000 Br
ENDBRANCH   9  10
ENDBRANCH   2   9
TORSDOF 3
