REMARK  Name = *****
REMARK  4 active torsions:
REMARK  status: ('A' for Active; 'I' for Inactive)
REMARK    1  A    between atoms: C_1  and  O_2
REMARK    2  A    between atoms: O_2  and  C_3
REMARK    3  A    between atoms: C_8  and  C_9
REMARK    4  A    between atoms: C_10  and  C_11
REMARK                            x       y       z     vdW  Elec       q    Type
REMARK                         _______ _______ _______ _____ _____    ______ ____
ROOT
ATOM      1  C   UNL     1       4.961  -0.346   6.921  0.00  0.00    +0.000 A 
ATOM      2  C   UNL     1       4.587   0.165   8.167  0.00  0.00    +0.000 A 
ATOM      3  C   UNL     1       3.443  -0.319   8.803  0.00  0.00    +0.000 A 
ATOM      4  C   UNL     1       2.666  -1.301   8.189  0.00  0.00    +0.000 A 
ATOM      5  C   UNL     1       3.028  -1.796   6.933  0.00  0.00    +0.000 A 
ATOM      6  C   UNL     1       4.173  -1.315   6.289  0.00  0.00    +0.000 A 
ENDROOT
BRANCH   1   8
ATOM      7  C   UNL     1       7.264  -0.260   6.936  0.00  0.00    +0.000 C 
ATOM      8  O   UNL     1       6.067   0.159   6.283  0.00  0.00    +0.000 OA
ENDBRANCH   1   8
BRANCH   6   9
ATOM      9  C   UNL     1       4.519  -1.840   5.002  0.00  0.00    +0.000 C 
ATOM     10  C   UNL     1       4.814  -2.286   3.926  0.00  0.00    +0.000 C 
BRANCH  10  11
ATOM     11  C   UNL     1       5.190  -2.826   2.607  0.00  0.00    +0.000 C 
ATOM     12  C   UNL     1       6.709  -2.720   2.378  0.00  0.00    +0.000 C 
ATOM     13  C   UNL     1       7.476  -3.842   3.079  0.00  0.00    +0.000 C 
ATOM     14  C   UNL     1       6.995  -5.222   2.622  0.00  0.00    +0.000 C 
ATOM     15  C   UNL     1       5.503  -5.318   2.494  0.00  0.00    +0.000 C 
ATOM     16  C   UNL     1       4.695  -4.246   2.506  0.00  0.00    +0.000 C 
ENDBRANCH  10  11
ENDBRANCH   6   9
TORSDOF 3
