REMARK  Name = *****
REMARK  1 active torsions:
REMARK  status: ('A' for Active; 'I' for Inactive)
REMARK    1  A    between atoms: C_10  and  C_11
REMARK                            x       y       z     vdW  Elec       q    Type
REMARK                         _______ _______ _______ _____ _____    ______ ____
ROOT
ATOM      1  C   UNL     1       2.449  -0.701  -0.429  0.00  0.00    +0.000 C 
ATOM      2  C   UNL     1       1.246  -1.518   0.041  0.00  0.00    +0.000 C 
ATOM      3  C   UNL     1      -0.046  -0.739   0.030  0.00  0.00    +0.000 A 
ATOM      4  C   UNL     1      -1.261  -1.437   0.107  0.00  0.00    +0.000 A 
ATOM      5  C   UNL     1      -2.474  -0.751   0.131  0.00  0.00    +0.000 A 
ATOM      6  C   UNL     1      -2.487   0.640   0.085  0.00  0.00    +0.000 A 
ATOM      7  C   UNL     1      -1.286   1.346   0.020  0.00  0.00    +0.000 A 
ATOM      8  C   UNL     1      -0.058   0.667   0.006  0.00  0.00    +0.000 A 
ATOM      9  C   UNL     1       1.219   1.469  -0.099  0.00  0.00    +0.000 C 
ATOM     10  C   UNL     1       2.474   0.661   0.278  0.00  0.00    +0.000 C 
ENDROOT
BRANCH  10  11
ATOM     11  C   UNL     1       3.748   1.438  -0.008  0.00  0.00    +0.000 A 
ATOM     12  C   UNL     1       4.555   1.867   1.056  0.00  0.00    +0.000 A 
ATOM     13  C   UNL     1       5.728   2.586   0.817  0.00  0.00    +0.000 A 
ATOM     14  C   UNL     1       6.109   2.887  -0.488  0.00  0.00    +0.000 A 
ATOM     15  C   UNL     1       5.316   2.471  -1.555  0.00  0.00    +0.000 A 
ATOM     16  C   UNL     1       4.143   1.752  -1.318  0.00  0.00    +0.000 A 
ENDBRANCH  10  11
TORSDOF 1
