REMARK  Name = *****
REMARK  4 active torsions:
REMARK  status: ('A' for Active; 'I' for Inactive)
REMARK    1  A    between atoms: C_5  and  C_7
REMARK    2  A    between atoms: C_7  and  C_8
REMARK    3  A    between atoms: C_7  and  C_16
REMARK    4  A    between atoms: C_8  and  C_9
REMARK                            x       y       z     vdW  Elec       q    Type
REMARK                         _______ _______ _______ _____ _____    ______ ____
ROOT
ATOM      1  C   UNL     1      -0.335  -2.450  -0.153  0.00  0.00    +0.000 C 
ENDROOT
BRANCH   1   6
ATOM      2  C   UNL     1      -0.310   1.058   1.378  0.00  0.00    +0.000 A 
ATOM      3  C   UNL     1       0.691   1.695   0.652  0.00  0.00    +0.000 A 
ATOM      4  C   UNL     1       1.369   1.001  -0.349  0.00  0.00    +0.000 A 
ATOM      5  C   UNL     1       1.049  -0.333  -0.628  0.00  0.00    +0.000 A 
ATOM      6  C   UNL     1       0.039  -0.993   0.095  0.00  0.00    +0.000 A 
ATOM      7  C   UNL     1      -0.632  -0.273   1.104  0.00  0.00    +0.000 A 
ATOM      8 CL   UNL     1       1.946  -1.106  -1.886  0.00  0.00    +0.000 Cl
ENDBRANCH   1   6
BRANCH   1   9
ATOM      9  C   UNL     1      -1.818  -2.560  -0.471  0.00  0.00    +0.000 C 
ATOM     10  O   UNL     1      -2.636  -3.165   0.216  0.00  0.00    +0.000 OA
ENDBRANCH   1   9
BRANCH   1  11
ATOM     11  C   UNL     1       0.043  -3.376   1.021  0.00  0.00    +0.000 C 
BRANCH  11  12
ATOM     12  C   UNL     1       1.538  -3.495   1.225  0.00  0.00    +0.000 A 
ATOM     13  C   UNL     1       2.303  -4.330   0.399  0.00  0.00    +0.000 A 
ATOM     14  C   UNL     1       3.687  -4.415   0.567  0.00  0.00    +0.000 A 
ATOM     15  C   UNL     1       4.311  -3.665   1.561  0.00  0.00    +0.000 A 
ATOM     16  C   UNL     1       3.563  -2.831   2.389  0.00  0.00    +0.000 A 
ATOM     17  C   UNL     1       2.180  -2.746   2.222  0.00  0.00    +0.000 A 
ATOM     18 CL   UNL     1       6.016  -3.767   1.766  0.00  0.00    +0.000 Cl
ENDBRANCH  11  12
ENDBRANCH   1  11
TORSDOF 4
