REMARK  Name = *****
REMARK  8 active torsions:
REMARK  status: ('A' for Active; 'I' for Inactive)
REMARK    1  A    between atoms: C_1  and  C_2
REMARK    2  A    between atoms: C_3  and  C_20
REMARK    3  A    between atoms: C_4  and  C_19
REMARK    4  A    between atoms: C_5  and  C_10
REMARK    5  A    between atoms: C_6  and  C_9
REMARK    6  A    between atoms: C_7  and  C_8
REMARK    7  A    between atoms: C_10  and  C_12
REMARK    8  A    between atoms: C_12  and  C_13
REMARK                            x       y       z     vdW  Elec       q    Type
REMARK                         _______ _______ _______ _____ _____    ______ ____
ROOT
ATOM      1  C   UNL     1      -2.449   1.172  -0.970  0.00  0.00    +0.000 C 
ATOM      2  C   UNL     1      -1.215   0.632  -0.277  0.00  0.00    +0.000 A 
ATOM      3  C   UNL     1      -0.023   1.405  -0.251  0.00  0.00    +0.000 A 
ATOM      4  C   UNL     1       1.157   0.862   0.313  0.00  0.00    +0.000 A 
ATOM      5  C   UNL     1       1.104  -0.424   0.897  0.00  0.00    +0.000 A 
ATOM      6  C   UNL     1      -0.097  -1.162   0.975  0.00  0.00    +0.000 A 
ATOM      7  C   UNL     1      -1.270  -0.619   0.396  0.00  0.00    +0.000 A 
ATOM      8  C   UNL     1      -2.575  -1.386   0.442  0.00  0.00    +0.000 C 
ATOM      9  C   UNL     1      -0.152  -2.501   1.674  0.00  0.00    +0.000 C 
ATOM     10  C   UNL     1       2.431   1.675   0.325  0.00  0.00    +0.000 C 
ATOM     11  C   UNL     1      -0.008   2.786  -0.872  0.00  0.00    +0.000 C 
ENDROOT
BRANCH   5  12
ATOM     12  C   UNL     1       2.354  -1.021   1.427  0.00  0.00    +0.000 C 
ATOM     13  O   UNL     1       2.587  -0.971   2.632  0.00  0.00    +0.000 OA
BRANCH  12  14
ATOM     14  C   UNL     1       3.283  -1.663   0.414  0.00  0.00    +0.000 C 
BRANCH  14  15
ATOM     15  C   UNL     1       3.198  -3.167   0.402  0.00  0.00    +0.000 A 
ATOM     16  C   UNL     1       2.537  -3.836  -0.637  0.00  0.00    +0.000 A 
ATOM     17  C   UNL     1       2.444  -5.229  -0.634  0.00  0.00    +0.000 A 
ATOM     18  C   UNL     1       3.007  -5.965   0.408  0.00  0.00    +0.000 A 
ATOM     19  C   UNL     1       3.661  -5.309   1.448  0.00  0.00    +0.000 A 
ATOM     20  C   UNL     1       3.756  -3.917   1.447  0.00  0.00    +0.000 A 
ENDBRANCH  14  15
ENDBRANCH  12  14
ENDBRANCH   5  12
TORSDOF 3
