REMARK  Name = *****
REMARK  3 active torsions:
REMARK  status: ('A' for Active; 'I' for Inactive)
REMARK    1  A    between atoms: C_1  and  C_2
REMARK    2  A    between atoms: C_2  and  C_11
REMARK    3  A    between atoms: N_3  and  C_4
REMARK                            x       y       z     vdW  Elec       q    Type
REMARK                         _______ _______ _______ _____ _____    ______ ____
ROOT
ATOM      1  C   UNL     1       1.109   0.546  -0.353  0.00  0.00    +0.000 C 
ATOM      2  C   UNL     1       2.441  -0.070   0.037  0.00  0.00    +0.000 C 
ATOM      3  N   UNL     1       2.980   0.042   1.220  0.00  0.00    +0.000 NA
ENDROOT
BRANCH   3   4
ATOM      4  C   UNL     1       2.331   0.771   2.222  0.00  0.00    +0.000 A 
ATOM      5  C   UNL     1       1.356   0.169   3.021  0.00  0.00    +0.000 A 
ATOM      6  C   UNL     1       0.737   0.901   4.032  0.00  0.00    +0.000 A 
ATOM      7  C   UNL     1       1.091   2.230   4.266  0.00  0.00    +0.000 A 
ATOM      8  C   UNL     1       2.080   2.828   3.486  0.00  0.00    +0.000 A 
ATOM      9  C   UNL     1       2.701   2.096   2.472  0.00  0.00    +0.000 A 
ATOM     10 CL   UNL     1      -0.476   0.160   5.002  0.00  0.00    +0.000 Cl
ENDBRANCH   3   4
BRANCH   2  11
ATOM     11  C   UNL     1       3.195  -0.928  -0.991  0.00  0.00    +0.000 C 
ATOM     12  C   UNL     1       3.547  -0.151  -2.231  0.00  0.00    +0.000 C 
ATOM     13  C   UNL     1       2.979  -0.728  -3.303  0.00  0.00    +0.000 C 
ATOM     14  C   UNL     1       2.229  -1.886  -2.882  0.00  0.00    +0.000 C 
ATOM     15  C   UNL     1       2.334  -2.028  -1.552  0.00  0.00    +0.000 C 
ENDBRANCH   2  11
TORSDOF 2
