REMARK  Name = *****
REMARK  4 active torsions:
REMARK  status: ('A' for Active; 'I' for Inactive)
REMARK    1  A    between atoms: C_1  and  C_2
REMARK    2  A    between atoms: C_4  and  C_8
REMARK    3  A    between atoms: C_8  and  O_10
REMARK    4  A    between atoms: O_10  and  C_11
REMARK                            x       y       z     vdW  Elec       q    Type
REMARK                         _______ _______ _______ _____ _____    ______ ____
ROOT
ATOM      1  C   UNL     1      -1.194   4.512   1.653  0.00  0.00    +0.000 A 
ATOM      2  C   UNL     1      -1.692   4.521   2.955  0.00  0.00    +0.000 A 
ATOM      3  C   UNL     1      -2.282   5.672   3.461  0.00  0.00    +0.000 A 
ATOM      4  C   UNL     1      -2.362   6.816   2.673  0.00  0.00    +0.000 A 
ATOM      5  C   UNL     1      -1.849   6.811   1.381  0.00  0.00    +0.000 A 
ATOM      6  C   UNL     1      -1.260   5.661   0.870  0.00  0.00    +0.000 A 
ATOM      7  F   UNL     1      -0.752   5.658  -0.371  0.00  0.00    +0.000 F 
ATOM      8  F   UNL     1      -1.912   7.921   0.631  0.00  0.00    +0.000 F 
ATOM      9  F   UNL     1      -2.923   7.929   3.167  0.00  0.00    +0.000 F 
ATOM     10  F   UNL     1      -2.762   5.685   4.712  0.00  0.00    +0.000 F 
ATOM     11  F   UNL     1      -1.597   3.423   3.717  0.00  0.00    +0.000 F 
ENDROOT
BRANCH   1  12
ATOM     12  O   UNL     1      -0.592   3.363   1.147  0.00  0.00    +0.000 OA
BRANCH  12  13
ATOM     13  C   UNL     1      -1.539   2.500   0.628  0.00  0.00    +0.000 C 
ATOM     14  O   UNL     1      -2.743   2.704   0.557  0.00  0.00    +0.000 OA
BRANCH  13  18
ATOM     15  C   UNL     1       2.556  -0.297  -0.367  0.00  0.00    +0.000 C 
ATOM     16  C   UNL     1       1.065  -0.125  -0.320  0.00  0.00    +0.000 A 
ATOM     17  C   UNL     1       0.502   1.087   0.104  0.00  0.00    +0.000 A 
ATOM     18  C   UNL     1      -0.891   1.237   0.181  0.00  0.00    +0.000 A 
ATOM     19  C   UNL     1      -1.720   0.163  -0.168  0.00  0.00    +0.000 A 
ATOM     20  C   UNL     1      -1.164  -1.050  -0.574  0.00  0.00    +0.000 A 
ATOM     21  C   UNL     1       0.222  -1.195  -0.643  0.00  0.00    +0.000 A 
ENDBRANCH  13  18
ENDBRANCH  12  13
ENDBRANCH   1  12
TORSDOF 3
