REMARK  Name = *****
REMARK  1 active torsions:
REMARK  status: ('A' for Active; 'I' for Inactive)
REMARK    1  A    between atoms: C_4  and  C_7
REMARK                            x       y       z     vdW  Elec       q    Type
REMARK                         _______ _______ _______ _____ _____    ______ ____
ROOT
ATOM      1  C   UNL     1      -3.038   0.143  -0.528  0.00  0.00    +0.000 A 
ATOM      2  N   UNL     1      -3.836   0.923  -1.238  0.00  0.00    +0.000 NA
ATOM      3  C   UNL     1      -5.094   0.472  -0.931  0.00  0.00    +0.000 A 
ATOM      4  C   UNL     1      -5.013  -0.579  -0.032  0.00  0.00    +0.000 A 
ATOM      5  O   UNL     1      -3.691  -0.796   0.231  0.00  0.00    +0.000 OA
ATOM      6  C   UNL     1      -6.119  -1.252   0.473  0.00  0.00    +0.000 A 
ATOM      7  C   UNL     1      -7.374  -0.819   0.030  0.00  0.00    +0.000 A 
ATOM      8  C   UNL     1      -7.492   0.240  -0.879  0.00  0.00    +0.000 A 
ATOM      9  C   UNL     1      -6.355   0.900  -1.371  0.00  0.00    +0.000 A 
ATOM     10 CL   UNL     1      -5.968  -2.547   1.584  0.00  0.00    +0.000 Cl
ENDROOT
BRANCH   1  14
ATOM     11  C   UNL     1       1.232   0.210  -0.336  0.00  0.00    +0.000 A 
ATOM     12  C   UNL     1       0.547   1.120  -1.138  0.00  0.00    +0.000 A 
ATOM     13  C   UNL     1      -0.849   1.090  -1.193  0.00  0.00    +0.000 A 
ATOM     14  C   UNL     1      -1.579   0.150  -0.449  0.00  0.00    +0.000 A 
ATOM     15  C   UNL     1      -0.873  -0.759   0.354  0.00  0.00    +0.000 A 
ATOM     16  C   UNL     1       0.523  -0.729   0.410  0.00  0.00    +0.000 A 
ENDBRANCH   1  14
TORSDOF 1
