REMARK  Name = *****
REMARK  3 active torsions:
REMARK  status: ('A' for Active; 'I' for Inactive)
REMARK    1  A    between atoms: C_5  and  O_8
REMARK    2  A    between atoms: O_8  and  C_9
REMARK    3  A    between atoms: C_9  and  C_11
REMARK                            x       y       z     vdW  Elec       q    Type
REMARK                         _______ _______ _______ _____ _____    ______ ____
ROOT
ATOM      1  C   UNL     1      -2.834  -0.846  -2.222  0.00  0.00    +0.000 C 
ATOM      2  O   UNL     1      -3.886  -0.678  -1.628  0.00  0.00    +0.000 OA
ENDROOT
BRANCH   1   3
ATOM      3  C   UNL     1      -2.744  -1.019  -3.698  0.00  0.00    +0.000 A 
ATOM      4  C   UNL     1      -3.933  -0.975  -4.442  0.00  0.00    +0.000 A 
ATOM      5  C   UNL     1      -3.902  -1.129  -5.831  0.00  0.00    +0.000 A 
ATOM      6  C   UNL     1      -2.684  -1.326  -6.479  0.00  0.00    +0.000 A 
ATOM      7  C   UNL     1      -1.497  -1.371  -5.751  0.00  0.00    +0.000 A 
ATOM      8  C   UNL     1      -1.524  -1.218  -4.361  0.00  0.00    +0.000 A 
ATOM      9 CL   UNL     1      -2.646  -1.514  -8.189  0.00  0.00    +0.000 Cl
ENDBRANCH   1   3
BRANCH   1  10
ATOM     10  O   UNL     1      -1.600  -0.898  -1.665  0.00  0.00    +0.000 OA
BRANCH  10  15
ATOM     11  C   UNL     1       1.762   0.043   0.121  0.00  0.00    +0.000 C 
ATOM     12  C   UNL     1       0.933   1.253   0.539  0.00  0.00    +0.000 C 
ATOM     13  C   UNL     1      -0.283   1.546  -0.333  0.00  0.00    +0.000 C 
ATOM     14  C   UNL     1      -1.523   0.767   0.111  0.00  0.00    +0.000 C 
ATOM     15  C   UNL     1      -1.526  -0.725  -0.233  0.00  0.00    +0.000 C 
ATOM     16  C   UNL     1      -0.302  -1.498   0.281  0.00  0.00    +0.000 C 
ATOM     17  C   UNL     1       1.011  -1.166  -0.428  0.00  0.00    +0.000 C 
ENDBRANCH  10  15
ENDBRANCH   1  10
TORSDOF 3
