REMARK  Name = *****
REMARK  3 active torsions:
REMARK  status: ('A' for Active; 'I' for Inactive)
REMARK    1  A    between atoms: C_4  and  O_7
REMARK    2  A    between atoms: O_7  and  C_8
REMARK    3  A    between atoms: C_9  and  C_10
REMARK                            x       y       z     vdW  Elec       q    Type
REMARK                         _______ _______ _______ _____ _____    ______ ____
ROOT
ATOM      1  C   UNL     1       3.433  -1.576   0.360  0.00  0.00    +0.000 C 
ATOM      2  C   UNL     1       4.388  -2.301  -0.232  0.00  0.00    +0.000 C 
ENDROOT
BRANCH   2   3
ATOM      3  C   UNL     1       5.211  -3.311   0.446  0.00  0.00    +0.000 A 
ATOM      4  C   UNL     1       4.714  -4.116   1.481  0.00  0.00    +0.000 A 
ATOM      5  C   UNL     1       5.523  -5.086   2.079  0.00  0.00    +0.000 A 
ATOM      6  C   UNL     1       6.833  -5.270   1.642  0.00  0.00    +0.000 A 
ATOM      7  C   UNL     1       7.334  -4.488   0.603  0.00  0.00    +0.000 A 
ATOM      8  C   UNL     1       6.525  -3.518   0.006  0.00  0.00    +0.000 A 
ENDBRANCH   2   3
BRANCH   1   9
ATOM      9  O   UNL     1       2.719  -0.636  -0.334  0.00  0.00    +0.000 OA
BRANCH   9  13
ATOM     10  C   UNL     1      -1.404   0.355  -0.208  0.00  0.00    +0.000 C 
ATOM     11  C   UNL     1      -0.992  -1.015   0.323  0.00  0.00    +0.000 C 
ATOM     12  C   UNL     1       0.413  -1.395  -0.133  0.00  0.00    +0.000 C 
ATOM     13  C   UNL     1       1.443  -0.323   0.243  0.00  0.00    +0.000 C 
ATOM     14  C   UNL     1       1.020   1.044  -0.304  0.00  0.00    +0.000 C 
ATOM     15  C   UNL     1      -0.383   1.430   0.154  0.00  0.00    +0.000 C 
ENDBRANCH   9  13
ENDBRANCH   1   9
TORSDOF 3
