REMARK  Name = *****
REMARK  4 active torsions:
REMARK  status: ('A' for Active; 'I' for Inactive)
REMARK    1  A    between atoms: C_4  and  C_7
REMARK    2  A    between atoms: C_7  and  C_8
REMARK    3  A    between atoms: C_8  and  C_9
REMARK    4  A    between atoms: C_8  and  C_15
REMARK                            x       y       z     vdW  Elec       q    Type
REMARK                         _______ _______ _______ _____ _____    ______ ____
ROOT
ATOM      1  C   UNL     1      -3.583  -1.018  -0.251  0.00  0.00    +0.000 C 
ENDROOT
BRANCH   1   2
ATOM      2  C   UNL     1      -3.599  -1.613   1.151  0.00  0.00    +0.000 A 
ATOM      3  C   UNL     1      -4.294  -0.993   2.201  0.00  0.00    +0.000 A 
ATOM      4  C   UNL     1      -4.290  -1.551   3.481  0.00  0.00    +0.000 A 
ATOM      5  C   UNL     1      -3.590  -2.729   3.727  0.00  0.00    +0.000 A 
ATOM      6  C   UNL     1      -2.891  -3.351   2.695  0.00  0.00    +0.000 A 
ATOM      7  C   UNL     1      -2.894  -2.797   1.414  0.00  0.00    +0.000 A 
ENDBRANCH   1   2
BRANCH   1   8
ATOM      8  C   UNL     1      -5.003  -0.791  -0.770  0.00  0.00    +0.000 C 
ATOM      9  O   UNL     1      -5.569   0.298  -0.694  0.00  0.00    +0.000 OA
ATOM     10 CL   UNL     1      -5.707  -2.237  -1.450  0.00  0.00    +0.000 Cl
ENDBRANCH   1   8
BRANCH   1  11
ATOM     11  C   UNL     1      -2.787   0.302  -0.329  0.00  0.00    +0.000 C 
BRANCH  11  15
ATOM     12  C   UNL     1       1.472  -0.339  -0.045  0.00  0.00    +0.000 A 
ATOM     13  C   UNL     1       0.836  -0.415  -1.283  0.00  0.00    +0.000 A 
ATOM     14  C   UNL     1      -0.540  -0.201  -1.377  0.00  0.00    +0.000 A 
ATOM     15  C   UNL     1      -1.292   0.095  -0.231  0.00  0.00    +0.000 A 
ATOM     16  C   UNL     1      -0.643   0.167   1.008  0.00  0.00    +0.000 A 
ATOM     17  C   UNL     1       0.733  -0.049   1.100  0.00  0.00    +0.000 A 
ENDBRANCH  11  15
ENDBRANCH   1  11
TORSDOF 4
