REMARK  Name = *****
REMARK  6 active torsions:
REMARK  status: ('A' for Active; 'I' for Inactive)
REMARK    1  A    between atoms: C_1  and  C_2
REMARK    2  A    between atoms: C_5  and  C_8
REMARK    3  A    between atoms: C_8  and  C_9
REMARK    4  A    between atoms: C_9  and  C_11
REMARK    5  A    between atoms: C_14  and  O_17
REMARK    6  A    between atoms: O_17  and  C_18
REMARK                            x       y       z     vdW  Elec       q    Type
REMARK                         _______ _______ _______ _____ _____    ______ ____
ROOT
ATOM      1  C   UNL     1      -3.802   1.493  -0.221  0.00  0.00    +0.000 C 
ATOM      2  O   UNL     1      -4.375   2.110   0.678  0.00  0.00    +0.000 OA
ENDROOT
BRANCH   1   3
ATOM      3  C   UNL     1      -3.613   2.152  -1.552  0.00  0.00    +0.000 A 
ATOM      4  C   UNL     1      -3.028   1.505  -2.647  0.00  0.00    +0.000 A 
ATOM      5  C   UNL     1      -2.857   2.182  -3.864  0.00  0.00    +0.000 A 
ATOM      6  C   UNL     1      -3.271   3.506  -4.000  0.00  0.00    +0.000 A 
ATOM      7  C   UNL     1      -3.870   4.146  -2.914  0.00  0.00    +0.000 A 
ATOM      8  C   UNL     1      -4.039   3.478  -1.699  0.00  0.00    +0.000 A 
BRANCH   6   9
ATOM      9  O   UNL     1      -3.155   4.274  -5.124  0.00  0.00    +0.000 OA
ATOM     10  C   UNL     1      -2.406   3.727  -6.202  0.00  0.00    +0.000 C 
ENDBRANCH   6   9
ENDBRANCH   1   3
BRANCH   1  11
ATOM     11  C   UNL     1      -3.297   0.080   0.011  0.00  0.00    +0.000 C 
BRANCH  11  16
ATOM     12  C   UNL     1       2.495  -0.591   0.125  0.00  0.00    +0.000 C 
ATOM     13  C   UNL     1       1.008  -0.405   0.077  0.00  0.00    +0.000 A 
ATOM     14  C   UNL     1       0.422   0.749   0.608  0.00  0.00    +0.000 A 
ATOM     15  C   UNL     1      -0.965   0.913   0.594  0.00  0.00    +0.000 A 
ATOM     16  C   UNL     1      -1.794  -0.068   0.034  0.00  0.00    +0.000 A 
ATOM     17  C   UNL     1      -1.206  -1.242  -0.458  0.00  0.00    +0.000 A 
ATOM     18  C   UNL     1       0.181  -1.408  -0.437  0.00  0.00    +0.000 A 
ENDBRANCH  11  16
ENDBRANCH   1  11
TORSDOF 4
