REMARK  Name = *****
REMARK  3 active torsions:
REMARK  status: ('A' for Active; 'I' for Inactive)
REMARK    1  A    between atoms: C_4  and  C_7
REMARK    2  A    between atoms: C_8  and  C_9
REMARK    3  A    between atoms: C_14  and  C_15
REMARK                            x       y       z     vdW  Elec       q    Type
REMARK                         _______ _______ _______ _____ _____    ______ ____
ROOT
ATOM      1  C   UNL     1      -2.821   0.418  -0.022  0.00  0.00    +0.000 C 
ATOM      2  C   UNL     1      -3.748  -0.434  -0.487  0.00  0.00    +0.000 C 
ENDROOT
BRANCH   1   6
ATOM      3  C   UNL     1       1.407  -0.246   0.003  0.00  0.00    +0.000 A 
ATOM      4  C   UNL     1       0.632  -0.806  -1.011  0.00  0.00    +0.000 A 
ATOM      5  C   UNL     1      -0.751  -0.604  -1.029  0.00  0.00    +0.000 A 
ATOM      6  C   UNL     1      -1.375   0.151  -0.026  0.00  0.00    +0.000 A 
ATOM      7  C   UNL     1      -0.581   0.721   0.978  0.00  0.00    +0.000 A 
ATOM      8  C   UNL     1       0.801   0.520   0.996  0.00  0.00    +0.000 A 
ENDBRANCH   1   6
BRANCH   2   9
ATOM      9  C   UNL     1      -5.178  -0.104  -0.460  0.00  0.00    +0.000 A 
ATOM     10  C   UNL     1      -5.854  -0.157   0.769  0.00  0.00    +0.000 A 
ATOM     11  C   UNL     1      -7.216   0.131   0.844  0.00  0.00    +0.000 A 
ATOM     12  C   UNL     1      -7.917   0.472  -0.309  0.00  0.00    +0.000 A 
ATOM     13  C   UNL     1      -7.255   0.530  -1.536  0.00  0.00    +0.000 A 
ATOM     14  C   UNL     1      -5.878   0.254  -1.629  0.00  0.00    +0.000 A 
BRANCH  14  15
ATOM     15  C   UNL     1      -5.209   0.328  -2.976  0.00  0.00    +0.000 C 
ATOM     16 CL   UNL     1      -5.212  -1.262  -3.768  0.00  0.00    +0.000 Cl
ENDBRANCH  14  15
ENDBRANCH   2   9
TORSDOF 3
