REMARK  Name = *****
REMARK  4 active torsions:
REMARK  status: ('A' for Active; 'I' for Inactive)
REMARK    1  A    between atoms: C_1  and  C_2
REMARK    2  A    between atoms: C_3  and  O_9
REMARK    3  A    between atoms: O_9  and  C_10
REMARK    4  A    between atoms: C_10  and  C_12
REMARK                            x       y       z     vdW  Elec       q    Type
REMARK                         _______ _______ _______ _____ _____    ______ ____
ROOT
ATOM      1  C   UNL     1      -4.042  -2.018   0.384  0.00  0.00    +0.000 C 
ATOM      2  O   UNL     1      -3.548  -2.784   1.195  0.00  0.00    +0.000 OA
ENDROOT
BRANCH   1   3
ATOM      3  C   UNL     1      -5.434  -2.138  -0.080  0.00  0.00    +0.000 A 
ATOM      4  C   UNL     1      -6.223  -1.014  -0.329  0.00  0.00    +0.000 A 
ATOM      5  C   UNL     1      -7.537  -1.155  -0.774  0.00  0.00    +0.000 A 
ATOM      6  C   UNL     1      -8.067  -2.431  -0.968  0.00  0.00    +0.000 A 
ATOM      7  C   UNL     1      -7.280  -3.549  -0.703  0.00  0.00    +0.000 A 
ATOM      8  C   UNL     1      -5.971  -3.418  -0.253  0.00  0.00    +0.000 A 
ATOM      9  F   UNL     1      -7.793  -4.771  -0.888  0.00  0.00    +0.000 F 
ATOM     10  F   UNL     1      -5.750   0.224  -0.124  0.00  0.00    +0.000 F 
ENDBRANCH   1   3
BRANCH   1  11
ATOM     11  O   UNL     1      -3.422  -1.007  -0.327  0.00  0.00    +0.000 OA
BRANCH  11  14
ATOM     12  C   UNL     1      -2.616   1.714  -0.253  0.00  0.00    +0.000 C 
ATOM     13  C   UNL     1      -1.629   0.585  -0.174  0.00  0.00    +0.000 A 
ATOM     14  C   UNL     1      -2.043  -0.757  -0.164  0.00  0.00    +0.000 A 
ATOM     15  C   UNL     1      -1.113  -1.798  -0.097  0.00  0.00    +0.000 A 
ATOM     16  C   UNL     1       0.246  -1.504   0.014  0.00  0.00    +0.000 A 
ATOM     17  C   UNL     1       0.667  -0.176   0.040  0.00  0.00    +0.000 A 
ATOM     18  C   UNL     1      -0.260   0.864  -0.051  0.00  0.00    +0.000 A 
ATOM     19 CL   UNL     1       2.344   0.185   0.176  0.00  0.00    +0.000 Cl
ENDBRANCH  11  14
ENDBRANCH   1  11
TORSDOF 3
