REMARK  Name = *****
REMARK  3 active torsions:
REMARK  status: ('A' for Active; 'I' for Inactive)
REMARK    1  A    between atoms: C_4  and  C_7
REMARK    2  A    between atoms: C_7  and  S_8
REMARK    3  A    between atoms: S_8  and  C_9
REMARK                            x       y       z     vdW  Elec       q    Type
REMARK                         _______ _______ _______ _____ _____    ______ ____
ROOT
ATOM      1  C   UNL     1      -5.444  -0.780  -0.548  0.00  0.00    +0.000 A 
ATOM      2  C   UNL     1      -6.090  -1.451  -1.595  0.00  0.00    +0.000 A 
ATOM      3  C   UNL     1      -7.384  -1.107  -1.980  0.00  0.00    +0.000 A 
ATOM      4  C   UNL     1      -8.058  -0.091  -1.320  0.00  0.00    +0.000 A 
ATOM      5  C   UNL     1      -7.442   0.577  -0.274  0.00  0.00    +0.000 A 
ATOM      6  C   UNL     1      -6.148   0.234   0.112  0.00  0.00    +0.000 A 
ATOM      7  F   UNL     1      -5.593   0.892   1.141  0.00  0.00    +0.000 F 
ATOM      8  F   UNL     1      -8.092   1.557   0.369  0.00  0.00    +0.000 F 
ATOM      9  F   UNL     1      -9.302   0.242  -1.692  0.00  0.00    +0.000 F 
ATOM     10  F   UNL     1      -7.976  -1.757  -2.991  0.00  0.00    +0.000 F 
ATOM     11  F   UNL     1      -5.465  -2.437  -2.257  0.00  0.00    +0.000 F 
ENDROOT
BRANCH   1  12
ATOM     12  S   UNL     1      -3.795  -1.284  -0.072  0.00  0.00    +0.000 S 
BRANCH  12  13
ATOM     13  C   UNL     1      -2.942   0.329   0.014  0.00  0.00    +0.000 C 
BRANCH  13  17
ATOM     14  C   UNL     1       1.338  -0.201   0.116  0.00  0.00    +0.000 A 
ATOM     15  C   UNL     1       0.681  -0.069  -1.106  0.00  0.00    +0.000 A 
ATOM     16  C   UNL     1      -0.703   0.104  -1.140  0.00  0.00    +0.000 A 
ATOM     17  C   UNL     1      -1.445   0.152   0.050  0.00  0.00    +0.000 A 
ATOM     18  C   UNL     1      -0.773   0.008   1.273  0.00  0.00    +0.000 A 
ATOM     19  C   UNL     1       0.612  -0.165   1.305  0.00  0.00    +0.000 A 
ENDBRANCH  13  17
ENDBRANCH  12  13
ENDBRANCH   1  12
TORSDOF 3
