REMARK  Name = *****
REMARK  6 active torsions:
REMARK  status: ('A' for Active; 'I' for Inactive)
REMARK    1  A    between atoms: C_1  and  C_2
REMARK    2  A    between atoms: C_2  and  O_3
REMARK    3  A    between atoms: O_3  and  C_4
REMARK    4  A    between atoms: C_4  and  C_12
REMARK    5  A    between atoms: N_5  and  C_6
REMARK    6  A    between atoms: C_15  and  C_18
REMARK                            x       y       z     vdW  Elec       q    Type
REMARK                         _______ _______ _______ _____ _____    ______ ____
ROOT
ATOM      1  C   UNL     1       4.617   1.385   1.107  0.00  0.00    +0.000 C 
ATOM      2  N   UNL     1       5.266   0.295   0.899  0.00  0.00    +0.000 NA
ENDROOT
BRANCH   2   3
ATOM      3  C   UNL     1       4.604  -0.764   0.130  0.00  0.00    +0.000 C 
ATOM      4  C   UNL     1       3.841  -1.683   1.091  0.00  0.00    +0.000 C 
ATOM      5  C   UNL     1       3.258  -2.892   0.365  0.00  0.00    +0.000 C 
ATOM      6  C   UNL     1       4.332  -3.664  -0.397  0.00  0.00    +0.000 C 
ATOM      7  C   UNL     1       5.111  -2.757  -1.345  0.00  0.00    +0.000 C 
ATOM      8  C   UNL     1       5.691  -1.547  -0.616  0.00  0.00    +0.000 C 
ENDBRANCH   2   3
BRANCH   1   9
ATOM      9  C   UNL     1       5.234   2.506   1.854  0.00  0.00    +0.000 A 
ATOM     10  C   UNL     1       5.975   2.227   3.007  0.00  0.00    +0.000 A 
ATOM     11  C   UNL     1       6.586   3.268   3.712  0.00  0.00    +0.000 A 
ATOM     12  C   UNL     1       6.469   4.587   3.257  0.00  0.00    +0.000 A 
ATOM     13  C   UNL     1       5.744   4.860   2.090  0.00  0.00    +0.000 A 
ATOM     14  C   UNL     1       5.132   3.820   1.384  0.00  0.00    +0.000 A 
BRANCH  12  15
ATOM     15  C   UNL     1       7.096   5.655   3.980  0.00  0.00    +0.000 C 
ATOM     16  N   UNL     1       7.598   6.522   4.565  0.00  0.00    +0.000 NA
ENDBRANCH  12  15
ENDBRANCH   1   9
BRANCH   1  17
ATOM     17  O   UNL     1       3.361   1.590   0.642  0.00  0.00    +0.000 OA
BRANCH  17  19
ATOM     18  C   UNL     1       1.034   1.554   1.199  0.00  0.00    +0.000 C 
ATOM     19  C   UNL     1       2.380   2.174   1.522  0.00  0.00    +0.000 C 
ENDBRANCH  17  19
ENDBRANCH   1  17
TORSDOF 5
