REMARK  Name = *****
REMARK  6 active torsions:
REMARK  status: ('A' for Active; 'I' for Inactive)
REMARK    1  A    between atoms: C_1  and  C_2
REMARK    2  A    between atoms: C_3  and  C_9
REMARK    3  A    between atoms: C_4  and  C_8
REMARK    4  A    between atoms: C_9  and  C_10
REMARK    5  A    between atoms: C_10  and  C_11
REMARK    6  A    between atoms: C_11  and  C_13
REMARK                            x       y       z     vdW  Elec       q    Type
REMARK                         _______ _______ _______ _____ _____    ______ ____
ROOT
ATOM      1  C   UNL     1       1.153   2.959   0.446  0.00  0.00    +0.000 C 
ENDROOT
BRANCH   1   2
ATOM      2  C   UNL     1       1.185   4.465   0.560  0.00  0.00    +0.000 C 
ATOM      3  O   UNL     1       1.425   5.216  -0.378  0.00  0.00    +0.000 OA
BRANCH   2   4
ATOM      4  C   UNL     1       0.990   5.032   1.904  0.00  0.00    +0.000 A 
ATOM      5  C   UNL     1       2.122   5.224   2.703  0.00  0.00    +0.000 A 
ATOM      6  C   UNL     1       1.976   5.747   3.988  0.00  0.00    +0.000 A 
ATOM      7  C   UNL     1       0.708   6.082   4.466  0.00  0.00    +0.000 A 
ATOM      8  C   UNL     1      -0.418   5.893   3.661  0.00  0.00    +0.000 A 
ATOM      9  C   UNL     1      -0.282   5.365   2.375  0.00  0.00    +0.000 A 
ATOM     10 CL   UNL     1      -1.706   5.135   1.431  0.00  0.00    +0.000 Cl
ENDBRANCH   2   4
ENDBRANCH   1   2
BRANCH   1  11
ATOM     11  C   UNL     1       0.242   2.524  -0.698  0.00  0.00    +0.000 C 
BRANCH  11  14
ATOM     12  C   UNL     1       2.108   1.042  -2.500  0.00  0.00    +0.000 C 
ATOM     13  C   UNL     1       1.092   0.320  -1.653  0.00  0.00    +0.000 A 
ATOM     14  C   UNL     1       0.180   1.011  -0.815  0.00  0.00    +0.000 A 
ATOM     15  C   UNL     1      -0.765   0.270  -0.062  0.00  0.00    +0.000 A 
ATOM     16  C   UNL     1      -0.790  -1.130  -0.165  0.00  0.00    +0.000 A 
ATOM     17  C   UNL     1       0.105  -1.800  -0.992  0.00  0.00    +0.000 A 
ATOM     18  C   UNL     1       1.036  -1.080  -1.733  0.00  0.00    +0.000 A 
ATOM     19  C   UNL     1      -1.781   0.935   0.830  0.00  0.00    +0.000 C 
ENDBRANCH  11  14
ENDBRANCH   1  11
TORSDOF 4
