REMARK  Name = *****
REMARK  4 active torsions:
REMARK  status: ('A' for Active; 'I' for Inactive)
REMARK    1  A    between atoms: C_1  and  C_2
REMARK    2  A    between atoms: C_7  and  O_8
REMARK    3  A    between atoms: O_8  and  C_9
REMARK    4  A    between atoms: C_9  and  C_11
REMARK                            x       y       z     vdW  Elec       q    Type
REMARK                         _______ _______ _______ _____ _____    ______ ____
ROOT
ATOM      1  O   UNL     1       4.923  -0.806   0.387  0.00  0.00    +0.000 OA
ENDROOT
BRANCH   1   8
ATOM      2  C   UNL     1       2.157  -0.778   1.082  0.00  0.00    +0.000 C 
ATOM      3  C   UNL     1       2.612  -0.692  -0.375  0.00  0.00    +0.000 C 
ATOM      4  C   UNL     1       2.605   0.767  -0.859  0.00  0.00    +0.000 C 
ATOM      5  C   UNL     1       2.964   0.862  -2.346  0.00  0.00    +0.000 C 
ATOM      6  C   UNL     1       4.089  -0.046  -2.745  0.00  0.00    +0.000 C 
ATOM      7  C   UNL     1       4.565  -1.016  -1.949  0.00  0.00    +0.000 C 
ATOM      8  C   UNL     1       4.005  -1.333  -0.587  0.00  0.00    +0.000 C 
ENDBRANCH   1   8
BRANCH   1   9
ATOM      9  C   UNL     1       5.894  -1.646   0.817  0.00  0.00    +0.000 C 
ATOM     10  O   UNL     1       6.060  -2.801   0.457  0.00  0.00    +0.000 OA
BRANCH   9  11
ATOM     11  C   UNL     1       6.761  -0.965   1.816  0.00  0.00    +0.000 A 
ATOM     12  C   UNL     1       7.821  -1.692   2.377  0.00  0.00    +0.000 A 
ATOM     13  C   UNL     1       8.663  -1.098   3.319  0.00  0.00    +0.000 A 
ATOM     14  C   UNL     1       8.452   0.225   3.706  0.00  0.00    +0.000 A 
ATOM     15  C   UNL     1       7.401   0.956   3.153  0.00  0.00    +0.000 A 
ATOM     16  C   UNL     1       6.556   0.365   2.210  0.00  0.00    +0.000 A 
ENDBRANCH   9  11
ENDBRANCH   1   9
TORSDOF 3
