REMARK  Name = *****
REMARK  6 active torsions:
REMARK  status: ('A' for Active; 'I' for Inactive)
REMARK    1  A    between atoms: C_1  and  C_2
REMARK    2  A    between atoms: C_3  and  C_9
REMARK    3  A    between atoms: C_4  and  C_8
REMARK    4  A    between atoms: C_9  and  C_10
REMARK    5  A    between atoms: C_10  and  C_11
REMARK    6  A    between atoms: C_11  and  C_13
REMARK                            x       y       z     vdW  Elec       q    Type
REMARK                         _______ _______ _______ _____ _____    ______ ____
ROOT
ATOM      1  C   UNL     1       0.054   2.509   0.036  0.00  0.00    +0.000 C 
ENDROOT
BRANCH   1   4
ATOM      2  C   UNL     1       0.148   0.782   2.477  0.00  0.00    +0.000 C 
ATOM      3  C   UNL     1       0.183   0.191   1.092  0.00  0.00    +0.000 A 
ATOM      4  C   UNL     1       0.110   0.994  -0.075  0.00  0.00    +0.000 A 
ATOM      5  C   UNL     1       0.120   0.368  -1.347  0.00  0.00    +0.000 A 
ATOM      6  C   UNL     1       0.191  -1.031  -1.431  0.00  0.00    +0.000 A 
ATOM      7  C   UNL     1       0.260  -1.812  -0.282  0.00  0.00    +0.000 A 
ATOM      8  C   UNL     1       0.253  -1.205   0.969  0.00  0.00    +0.000 A 
ATOM      9  C   UNL     1       0.014   1.152  -2.629  0.00  0.00    +0.000 C 
ENDBRANCH   1   4
BRANCH   1  10
ATOM     10  C   UNL     1       1.455   3.125   0.044  0.00  0.00    +0.000 C 
BRANCH  10  11
ATOM     11  C   UNL     1       1.403   4.639   0.132  0.00  0.00    +0.000 C 
ATOM     12  O   UNL     1       0.342   5.255   0.213  0.00  0.00    +0.000 OA
BRANCH  11  13
ATOM     13  C   UNL     1       2.690   5.401   0.120  0.00  0.00    +0.000 A 
ATOM     14  C   UNL     1       3.938   4.766   0.068  0.00  0.00    +0.000 A 
ATOM     15  C   UNL     1       5.112   5.524   0.059  0.00  0.00    +0.000 A 
ATOM     16  C   UNL     1       5.049   6.916   0.101  0.00  0.00    +0.000 A 
ATOM     17  C   UNL     1       3.812   7.556   0.153  0.00  0.00    +0.000 A 
ATOM     18  C   UNL     1       2.637   6.801   0.163  0.00  0.00    +0.000 A 
ENDBRANCH  11  13
ENDBRANCH  10  11
ENDBRANCH   1  10
TORSDOF 4
