REMARK  Name = *****
REMARK  3 active torsions:
REMARK  status: ('A' for Active; 'I' for Inactive)
REMARK    1  A    between atoms: C_1  and  C_2
REMARK    2  A    between atoms: C_5  and  C_8
REMARK    3  A    between atoms: C_9  and  C_10
REMARK                            x       y       z     vdW  Elec       q    Type
REMARK                         _______ _______ _______ _____ _____    ______ ____
ROOT
ATOM      1  C   UNL     1       6.733   0.164  -0.675  0.00  0.00    +0.000 C 
ATOM      2  C   UNL     1       7.911   0.188  -0.908  0.00  0.00    +0.000 C 
ENDROOT
BRANCH   1   7
ATOM      3  C   UNL     1       1.068   0.061   0.217  0.00  0.00    +0.000 C 
ATOM      4  C   UNL     1       2.553   0.098   0.006  0.00  0.00    +0.000 A 
ATOM      5  C   UNL     1       3.232   1.316  -0.113  0.00  0.00    +0.000 A 
ATOM      6  C   UNL     1       4.613   1.337  -0.329  0.00  0.00    +0.000 A 
ATOM      7  C   UNL     1       5.324   0.141  -0.431  0.00  0.00    +0.000 A 
ATOM      8  C   UNL     1       4.654  -1.078  -0.314  0.00  0.00    +0.000 A 
ATOM      9  C   UNL     1       3.274  -1.099  -0.097  0.00  0.00    +0.000 A 
ENDBRANCH   1   7
BRANCH   2  10
ATOM     10  C   UNL     1       9.340   0.229  -1.208  0.00  0.00    +0.000 C 
ATOM     11  C   UNL     1       9.752   1.165  -2.395  0.00  0.00    +0.000 C 
ATOM     12  C   UNL     1       9.018   0.535  -3.629  0.00  0.00    +0.000 C 
ATOM     13  C   UNL     1       9.512  -0.873  -3.398  0.00  0.00    +0.000 C 
ATOM     14  C   UNL     1       9.683  -1.065  -1.922  0.00  0.00    +0.000 C 
ATOM     15  C   UNL     1      10.870  -0.787  -2.791  0.00  0.00    +0.000 C 
ATOM     16  C   UNL     1      11.220   0.678  -2.640  0.00  0.00    +0.000 C 
ENDBRANCH   2  10
TORSDOF 2
