REMARK  Name = *****
REMARK  3 active torsions:
REMARK  status: ('A' for Active; 'I' for Inactive)
REMARK    1  A    between atoms: C_5  and  C_6
REMARK    2  A    between atoms: C_6  and  S_7
REMARK    3  A    between atoms: S_7  and  C_9
REMARK                            x       y       z     vdW  Elec       q    Type
REMARK                         _______ _______ _______ _____ _____    ______ ____
ROOT
ATOM      1  C   UNL     1       2.504  -3.689   0.562  0.00  0.00    +0.000 C 
ENDROOT
BRANCH   1   6
ATOM      2  C   UNL     1       2.027   0.946   1.450  0.00  0.00    +0.000 C 
ATOM      3  C   UNL     1       3.409   0.582   2.004  0.00  0.00    +0.000 C 
ATOM      4  C   UNL     1       3.360  -0.965   1.925  0.00  0.00    +0.000 C 
ATOM      5  C   UNL     1       2.580  -1.160   0.625  0.00  0.00    +0.000 C 
ATOM      6  C   UNL     1       2.201  -2.312   0.051  0.00  0.00    +0.000 C 
ATOM      7  C   UNL     1       2.264   0.239   0.112  0.00  0.00    +0.000 C 
ATOM      8  C   UNL     1       3.571   0.899  -0.269  0.00  0.00    +0.000 C 
ATOM      9  C   UNL     1       4.262   1.108   0.865  0.00  0.00    +0.000 C 
ENDBRANCH   1   6
BRANCH   1  10
ATOM     10  S   UNL     1       0.951  -4.565   0.966  0.00  0.00    +0.000 S 
ATOM     11  O   UNL     1       0.244  -4.859  -0.327  0.00  0.00    +0.000 OA
BRANCH  10  12
ATOM     12  C   UNL     1       1.711  -6.123   1.480  0.00  0.00    +0.000 A 
ATOM     13  C   UNL     1       2.287  -6.224   2.753  0.00  0.00    +0.000 A 
ATOM     14  C   UNL     1       2.878  -7.420   3.163  0.00  0.00    +0.000 A 
ATOM     15  C   UNL     1       2.892  -8.521   2.307  0.00  0.00    +0.000 A 
ATOM     16  C   UNL     1       2.311  -8.430   1.043  0.00  0.00    +0.000 A 
ATOM     17  C   UNL     1       1.720  -7.234   0.631  0.00  0.00    +0.000 A 
ENDBRANCH  10  12
ENDBRANCH   1  10
TORSDOF 3
