REMARK  Name = *****
REMARK  5 active torsions:
REMARK  status: ('A' for Active; 'I' for Inactive)
REMARK    1  A    between atoms: C_1  and  C_2
REMARK    2  A    between atoms: C_2  and  O_3
REMARK    3  A    between atoms: O_3  and  C_4
REMARK    4  A    between atoms: C_7  and  C_10
REMARK    5  A    between atoms: C_11  and  C_12
REMARK                            x       y       z     vdW  Elec       q    Type
REMARK                         _______ _______ _______ _____ _____    ______ ____
ROOT
ATOM      1  C   UNL     1       8.619  -1.147   1.453  0.00  0.00    +0.000 C 
ATOM      2  C   UNL     1       9.804  -1.340   1.421  0.00  0.00    +0.000 C 
ENDROOT
BRANCH   2   3
ATOM      3  C   UNL     1      11.214  -1.565   1.350  0.00  0.00    +0.000 A 
ATOM      4  C   UNL     1      12.104  -0.491   1.260  0.00  0.00    +0.000 A 
ATOM      5  C   UNL     1      13.477  -0.702   1.170  0.00  0.00    +0.000 A 
ATOM      6  C   UNL     1      13.965  -2.005   1.169  0.00  0.00    +0.000 A 
ATOM      7  C   UNL     1      13.092  -3.090   1.260  0.00  0.00    +0.000 A 
ATOM      8  C   UNL     1      11.714  -2.870   1.350  0.00  0.00    +0.000 A 
ATOM      9 CL   UNL     1      15.659  -2.281   1.051  0.00  0.00    +0.000 Cl
ATOM     10  F   UNL     1      11.647   0.770   1.254  0.00  0.00    +0.000 F 
ENDBRANCH   2   3
BRANCH   1  14
ATOM     11  C   UNL     1       4.445  -0.440   1.375  0.00  0.00    +0.000 A 
ATOM     12  C   UNL     1       5.333   0.541   0.931  0.00  0.00    +0.000 A 
ATOM     13  C   UNL     1       6.712   0.307   0.967  0.00  0.00    +0.000 A 
ATOM     14  C   UNL     1       7.210  -0.905   1.450  0.00  0.00    +0.000 A 
ATOM     15  C   UNL     1       6.326  -1.881   1.909  0.00  0.00    +0.000 A 
ATOM     16  C   UNL     1       4.949  -1.645   1.872  0.00  0.00    +0.000 A 
BRANCH  11  17
ATOM     17  O   UNL     1       3.080  -0.346   1.380  0.00  0.00    +0.000 OA
BRANCH  17  19
ATOM     18  C   UNL     1       1.000   0.652   0.785  0.00  0.00    +0.000 C 
ATOM     19  C   UNL     1       2.509   0.811   0.770  0.00  0.00    +0.000 C 
ENDBRANCH  17  19
ENDBRANCH  11  17
ENDBRANCH   1  14
TORSDOF 4
