REMARK  Name = *****
REMARK  5 active torsions:
REMARK  status: ('A' for Active; 'I' for Inactive)
REMARK    1  A    between atoms: C_1  and  C_2
REMARK    2  A    between atoms: C_2  and  C_4
REMARK    3  A    between atoms: C_7  and  C_9
REMARK    4  A    between atoms: C_9  and  C_10
REMARK    5  A    between atoms: C_10  and  C_11
REMARK                            x       y       z     vdW  Elec       q    Type
REMARK                         _______ _______ _______ _____ _____    ______ ____
ROOT
ATOM      1  C   UNL     1       3.094   1.128   1.144  0.00  0.00    +0.000 C 
ATOM      2  C   UNL     1       2.066   1.382   2.248  0.00  0.00    +0.000 C 
ATOM      3  C   UNL     1       1.365   2.649   1.819  0.00  0.00    +0.000 C 
ATOM      4  C   UNL     1       2.402   3.229   0.911  0.00  0.00    +0.000 C 
ATOM      5  N   UNL     1       3.355   2.442   0.517  0.00  0.00    +0.000 NA
ENDROOT
BRANCH   1   7
ATOM      6  C   UNL     1       1.451   0.394  -0.729  0.00  0.00    +0.000 C 
ATOM      7  C   UNL     1       2.680   0.117   0.093  0.00  0.00    +0.000 C 
ATOM      8  C   UNL     1       3.399  -1.001  -0.115  0.00  0.00    +0.000 C 
ENDBRANCH   1   7
BRANCH   4   9
ATOM      9  C   UNL     1       2.323   4.662   0.474  0.00  0.00    +0.000 C 
BRANCH   9  10
ATOM     10  C   UNL     1       3.032   5.551   1.488  0.00  0.00    +0.000 C 
BRANCH  10  11
ATOM     11  C   UNL     1       2.950   7.006   1.103  0.00  0.00    +0.000 A 
ATOM     12  C   UNL     1       1.903   7.810   1.573  0.00  0.00    +0.000 A 
ATOM     13  C   UNL     1       1.819   9.152   1.197  0.00  0.00    +0.000 A 
ATOM     14  C   UNL     1       2.778   9.700   0.347  0.00  0.00    +0.000 A 
ATOM     15  C   UNL     1       3.819   8.907  -0.131  0.00  0.00    +0.000 A 
ATOM     16  C   UNL     1       3.905   7.566   0.243  0.00  0.00    +0.000 A 
ENDBRANCH  10  11
ENDBRANCH   9  10
ENDBRANCH   4   9
TORSDOF 4
