REMARK  Name = *****
REMARK  2 active torsions:
REMARK  status: ('A' for Active; 'I' for Inactive)
REMARK    1  A    between atoms: C_4  and  C_7
REMARK    2  A    between atoms: C_7  and  C_8
REMARK                            x       y       z     vdW  Elec       q    Type
REMARK                         _______ _______ _______ _____ _____    ______ ____
ROOT
ATOM      1  C   UNL     1      -3.396  -0.802   0.146  0.00  0.00    +0.000 A 
ATOM      2  C   UNL     1      -3.587  -1.905   0.919  0.00  0.00    +0.000 A 
ATOM      3  C   UNL     1      -3.049  -2.110   2.241  0.00  0.00    +0.000 A 
ATOM      4  C   UNL     1      -3.220  -3.186   3.020  0.00  0.00    +0.000 A 
ATOM      5  C   UNL     1      -3.962  -4.395   2.756  0.00  0.00    +0.000 A 
ATOM      6  C   UNL     1      -4.675  -4.742   1.677  0.00  0.00    +0.000 A 
ATOM      7  C   UNL     1      -4.907  -4.005   0.458  0.00  0.00    +0.000 A 
ATOM      8  C   UNL     1      -4.444  -2.793   0.126  0.00  0.00    +0.000 A 
ATOM      9  C   UNL     1      -4.734  -2.148  -1.139  0.00  0.00    +0.000 A 
ATOM     10  C   UNL     1      -4.107  -0.966  -1.123  0.00  0.00    +0.000 A 
ENDROOT
BRANCH   1  11
ATOM     11  C   UNL     1      -2.595   0.440   0.403  0.00  0.00    +0.000 C 
BRANCH  11  15
ATOM     12  C   UNL     1      -4.982   4.016   0.828  0.00  0.00    +0.000 A 
ATOM     13  C   UNL     1      -5.113   2.977   1.747  0.00  0.00    +0.000 A 
ATOM     14  C   UNL     1      -4.343   1.821   1.610  0.00  0.00    +0.000 A 
ATOM     15  C   UNL     1      -3.436   1.690   0.548  0.00  0.00    +0.000 A 
ATOM     16  C   UNL     1      -3.312   2.743  -0.370  0.00  0.00    +0.000 A 
ATOM     17  C   UNL     1      -4.082   3.900  -0.230  0.00  0.00    +0.000 A 
ENDBRANCH  11  15
ENDBRANCH   1  11
TORSDOF 2
