REMARK  Name = *****
REMARK  3 active torsions:
REMARK  status: ('A' for Active; 'I' for Inactive)
REMARK    1  A    between atoms: C_4  and  O_7
REMARK    2  A    between atoms: O_7  and  C_8
REMARK    3  A    between atoms: C_8  and  C_10
REMARK                            x       y       z     vdW  Elec       q    Type
REMARK                         _______ _______ _______ _____ _____    ______ ____
ROOT
ATOM      1  C   UNL     1      -3.664  -0.638  -0.019  0.00  0.00    +0.000 C 
ATOM      2  O   UNL     1      -3.436  -1.770   0.375  0.00  0.00    +0.000 OA
ENDROOT
BRANCH   1   3
ATOM      3  C   UNL     1      -5.003  -0.198  -0.443  0.00  0.00    +0.000 A 
ATOM      4  C   UNL     1      -5.619   0.955   0.060  0.00  0.00    +0.000 A 
ATOM      5  C   UNL     1      -6.895   1.307  -0.394  0.00  0.00    +0.000 A 
ATOM      6  C   UNL     1      -7.554   0.509  -1.334  0.00  0.00    +0.000 A 
ATOM      7  C   UNL     1      -6.942  -0.648  -1.812  0.00  0.00    +0.000 A 
ATOM      8  C   UNL     1      -5.673  -1.011  -1.369  0.00  0.00    +0.000 A 
ATOM      9 CL   UNL     1      -7.761  -1.634  -2.958  0.00  0.00    +0.000 Cl
ATOM     10 CL   UNL     1      -4.899   1.952   1.271  0.00  0.00    +0.000 Cl
ENDBRANCH   1   3
BRANCH   1  11
ATOM     11  O   UNL     1      -2.775   0.385  -0.278  0.00  0.00    +0.000 OA
BRANCH  11  15
ATOM     12  C   UNL     1       1.251  -0.218   0.646  0.00  0.00    +0.000 A 
ATOM     13  C   UNL     1       0.625  -1.076  -0.260  0.00  0.00    +0.000 A 
ATOM     14  C   UNL     1      -0.722  -0.900  -0.574  0.00  0.00    +0.000 A 
ATOM     15  C   UNL     1      -1.436   0.128   0.042  0.00  0.00    +0.000 A 
ATOM     16  C   UNL     1      -0.815   1.002   0.933  0.00  0.00    +0.000 A 
ATOM     17  C   UNL     1       0.533   0.822   1.240  0.00  0.00    +0.000 A 
ENDBRANCH  11  15
ENDBRANCH   1  11
TORSDOF 3
