REMARK  Name = *****
REMARK  1 active torsions:
REMARK  status: ('A' for Active; 'I' for Inactive)
REMARK    1  A    between atoms: C_9  and  C_11
REMARK                            x       y       z     vdW  Elec       q    Type
REMARK                         _______ _______ _______ _____ _____    ______ ____
ROOT
ATOM      1  C   UNL     1      -1.092  -1.532  -0.089  0.00  0.00    +0.000 C 
ATOM      2  C   UNL     1       0.180  -0.726  -0.030  0.00  0.00    +0.000 A 
ATOM      3  C   UNL     1       1.389  -1.451  -0.116  0.00  0.00    +0.000 A 
ATOM      4  C   UNL     1       2.627  -0.809  -0.106  0.00  0.00    +0.000 A 
ATOM      5  C   UNL     1       2.681   0.574  -0.022  0.00  0.00    +0.000 A 
ATOM      6  C   UNL     1       1.498   1.308   0.048  0.00  0.00    +0.000 A 
ATOM      7  C   UNL     1       0.240   0.677   0.035  0.00  0.00    +0.000 A 
ATOM      8  S   UNL     1      -1.156   1.789   0.155  0.00  0.00    +0.000 S 
ATOM      9  C   UNL     1      -2.576   0.713  -0.223  0.00  0.00    +0.000 C 
ATOM     10  S   UNL     1      -2.513  -0.817   0.747  0.00  0.00    +0.000 S 
ENDROOT
BRANCH   9  11
ATOM     11  C   UNL     1      -3.893   1.448  -0.023  0.00  0.00    +0.000 A 
ATOM     12  C   UNL     1      -4.749   1.662  -1.118  0.00  0.00    +0.000 A 
ATOM     13  C   UNL     1      -5.962   2.336  -0.957  0.00  0.00    +0.000 A 
ATOM     14  C   UNL     1      -6.339   2.807   0.299  0.00  0.00    +0.000 A 
ATOM     15  C   UNL     1      -5.505   2.606   1.395  0.00  0.00    +0.000 A 
ATOM     16  C   UNL     1      -4.292   1.932   1.237  0.00  0.00    +0.000 A 
ENDBRANCH   9  11
TORSDOF 1
