REMARK  Name = *****
REMARK  3 active torsions:
REMARK  status: ('A' for Active; 'I' for Inactive)
REMARK    1  A    between atoms: C_4  and  S_7
REMARK    2  A    between atoms: S_7  and  C_8
REMARK    3  A    between atoms: C_8  and  C_9
REMARK                            x       y       z     vdW  Elec       q    Type
REMARK                         _______ _______ _______ _____ _____    ______ ____
ROOT
ATOM      1  C   UNL     1      -3.972  -0.958  -0.382  0.00  0.00    +0.000 C 
ENDROOT
BRANCH   1   2
ATOM      2  C   UNL     1      -5.462  -0.766  -0.533  0.00  0.00    +0.000 A 
ATOM      3  C   UNL     1      -6.016  -0.456  -1.787  0.00  0.00    +0.000 A 
ATOM      4  C   UNL     1      -7.392  -0.268  -1.924  0.00  0.00    +0.000 A 
ATOM      5  C   UNL     1      -8.214  -0.383  -0.810  0.00  0.00    +0.000 A 
ATOM      6  C   UNL     1      -7.687  -0.680   0.441  0.00  0.00    +0.000 A 
ATOM      7  C   UNL     1      -6.311  -0.869   0.581  0.00  0.00    +0.000 A 
ATOM      8  F   UNL     1      -9.535  -0.203  -0.943  0.00  0.00    +0.000 F 
ENDBRANCH   1   2
BRANCH   1   9
ATOM      9  S   UNL     1      -3.137   0.621  -0.024  0.00  0.00    +0.000 S 
BRANCH   9  13
ATOM     10  C   UNL     1       1.342  -0.343   0.403  0.00  0.00    +0.000 A 
ATOM     11  C   UNL     1       0.466  -1.379   0.086  0.00  0.00    +0.000 A 
ATOM     12  C   UNL     1      -0.904  -1.127  -0.052  0.00  0.00    +0.000 A 
ATOM     13  C   UNL     1      -1.414   0.163   0.126  0.00  0.00    +0.000 A 
ATOM     14  C   UNL     1      -0.518   1.195   0.444  0.00  0.00    +0.000 A 
ATOM     15  C   UNL     1       0.850   0.946   0.582  0.00  0.00    +0.000 A 
ENDBRANCH   9  13
ENDBRANCH   1   9
TORSDOF 3
