REMARK  Name = *****
REMARK  3 active torsions:
REMARK  status: ('A' for Active; 'I' for Inactive)
REMARK    1  A    between atoms: C_1  and  N_2
REMARK    2  A    between atoms: C_5  and  C_8
REMARK    3  A    between atoms: C_9  and  C_10
REMARK                            x       y       z     vdW  Elec       q    Type
REMARK                         _______ _______ _______ _____ _____    ______ ____
ROOT
ATOM      1  C   UNL     1       3.275   0.150   0.424  0.00  0.00    +0.000 C 
ATOM      2  C   UNL     1       4.044   1.250   0.377  0.00  0.00    +0.000 C 
ENDROOT
BRANCH   2   3
ATOM      3  C   UNL     1       5.502   1.217   0.590  0.00  0.00    +0.000 A 
ATOM      4  C   UNL     1       6.138   2.073   1.510  0.00  0.00    +0.000 A 
ATOM      5  C   UNL     1       7.525   2.043   1.676  0.00  0.00    +0.000 A 
ATOM      6  C   UNL     1       8.290   1.161   0.917  0.00  0.00    +0.000 A 
ATOM      7  C   UNL     1       7.683   0.314  -0.006  0.00  0.00    +0.000 A 
ATOM      8  C   UNL     1       6.295   0.344  -0.173  0.00  0.00    +0.000 A 
ATOM      9 CL   UNL     1       9.997   1.120   1.118  0.00  0.00    +0.000 Cl
ATOM     10 CL   UNL     1       5.240   3.183   2.491  0.00  0.00    +0.000 Cl
ENDBRANCH   2   3
BRANCH   1  15
ATOM     11  C   UNL     1      -2.412   0.093  -0.119  0.00  0.00    +0.000 C 
ATOM     12  N   UNL     1      -0.945   0.124   0.012  0.00  0.00    +0.000 N 
ATOM     13  C   UNL     1      -0.217   0.975  -0.745  0.00  0.00    +0.000 C 
ATOM     14  C   UNL     1       1.169   1.012  -0.634  0.00  0.00    +0.000 C 
ATOM     15  C   UNL     1       1.816   0.170   0.270  0.00  0.00    +0.000 C 
ATOM     16  C   UNL     1       1.043  -0.716   1.020  0.00  0.00    +0.000 C 
ATOM     17  C   UNL     1      -0.340  -0.719   0.877  0.00  0.00    +0.000 C 
ENDBRANCH   1  15
TORSDOF 2
