REMARK  Name = *****
REMARK  2 active torsions:
REMARK  status: ('A' for Active; 'I' for Inactive)
REMARK    1  A    between atoms: C_5  and  C_8
REMARK    2  A    between atoms: C_9  and  C_10
REMARK                            x       y       z     vdW  Elec       q    Type
REMARK                         _______ _______ _______ _____ _____    ______ ____
ROOT
ATOM      1  C   UNL     1      -2.668   1.649  -0.191  0.00  0.00    +0.000 C 
ATOM      2  C   UNL     1      -3.674   2.305  -0.253  0.00  0.00    +0.000 C 
ENDROOT
BRANCH   1   7
ATOM      3  C   UNL     1       1.670  -0.156   0.088  0.00  0.00    +0.000 C 
ATOM      4  C   UNL     1       0.683  -1.194   0.613  0.00  0.00    +0.000 C 
ATOM      5  C   UNL     1      -0.482  -1.488  -0.328  0.00  0.00    +0.000 C 
ATOM      6  C   UNL     1      -1.560  -0.442  -0.384  0.00  0.00    +0.000 C 
ATOM      7  C   UNL     1      -1.466   0.876  -0.120  0.00  0.00    +0.000 C 
ATOM      8  C   UNL     1      -0.182   1.619   0.182  0.00  0.00    +0.000 C 
ATOM      9  C   UNL     1       1.054   1.087  -0.545  0.00  0.00    +0.000 C 
ENDBRANCH   1   7
BRANCH   2  10
ATOM     10  C   UNL     1      -4.869   3.086  -0.330  0.00  0.00    +0.000 A 
ATOM     11  C   UNL     1      -6.105   2.458  -0.503  0.00  0.00    +0.000 A 
ATOM     12  C   UNL     1      -7.272   3.221  -0.580  0.00  0.00    +0.000 A 
ATOM     13  C   UNL     1      -7.204   4.611  -0.485  0.00  0.00    +0.000 A 
ATOM     14  C   UNL     1      -5.971   5.240  -0.312  0.00  0.00    +0.000 A 
ATOM     15  C   UNL     1      -4.803   4.478  -0.235  0.00  0.00    +0.000 A 
ENDBRANCH   2  10
TORSDOF 2
