REMARK  Name = *****
REMARK  4 active torsions:
REMARK  status: ('A' for Active; 'I' for Inactive)
REMARK    1  A    between atoms: C_4  and  C_8
REMARK    2  A    between atoms: C_8  and  O_10
REMARK    3  A    between atoms: O_10  and  C_11
REMARK    4  A    between atoms: C_11  and  C_12
REMARK                            x       y       z     vdW  Elec       q    Type
REMARK                         _______ _______ _______ _____ _____    ______ ____
ROOT
ATOM      1  C   UNL     1      -1.034   1.483   2.079  0.00  0.00    +0.000 C 
ATOM      2  O   UNL     1      -1.755   2.343   2.569  0.00  0.00    +0.000 OA
ENDROOT
BRANCH   1   6
ATOM      3  C   UNL     1      -2.054  -0.889  -0.642  0.00  0.00    +0.000 C 
ATOM      4  C   UNL     1      -3.200   0.104  -0.430  0.00  0.00    +0.000 C 
ATOM      5  C   UNL     1      -2.427   1.402  -0.104  0.00  0.00    +0.000 C 
ATOM      6  C   UNL     1      -1.199   0.873   0.693  0.00  0.00    +0.000 C 
ATOM      7  C   UNL     1      -1.468  -0.654   0.757  0.00  0.00    +0.000 C 
ATOM      8  C   UNL     1      -2.716  -0.922   1.572  0.00  0.00    +0.000 C 
ATOM      9  C   UNL     1      -3.752  -0.449   0.863  0.00  0.00    +0.000 C 
ATOM     10  F   UNL     1      -0.082   1.077  -0.075  0.00  0.00    +0.000 F 
ENDBRANCH   1   6
BRANCH   1  11
ATOM     11  O   UNL     1       0.048   0.927   2.699  0.00  0.00    +0.000 OA
BRANCH  11  12
ATOM     12  C   UNL     1       0.244   1.305   4.065  0.00  0.00    +0.000 C 
BRANCH  12  13
ATOM     13  C   UNL     1      -0.409   0.276   4.951  0.00  0.00    +0.000 A 
ATOM     14  C   UNL     1       0.234  -0.939   5.223  0.00  0.00    +0.000 A 
ATOM     15  C   UNL     1      -0.387  -1.906   6.015  0.00  0.00    +0.000 A 
ATOM     16  C   UNL     1      -1.659  -1.672   6.535  0.00  0.00    +0.000 A 
ATOM     17  C   UNL     1      -2.313  -0.472   6.260  0.00  0.00    +0.000 A 
ATOM     18  C   UNL     1      -1.693   0.497   5.469  0.00  0.00    +0.000 A 
ENDBRANCH  12  13
ENDBRANCH  11  12
ENDBRANCH   1  11
TORSDOF 4
