REMARK  Name = *****
REMARK  6 active torsions:
REMARK  status: ('A' for Active; 'I' for Inactive)
REMARK    1  A    between atoms: C_1  and  O_2
REMARK    2  A    between atoms: O_2  and  C_3
REMARK    3  A    between atoms: C_5  and  C_11
REMARK    4  A    between atoms: C_6  and  O_9
REMARK    5  A    between atoms: O_9  and  C_10
REMARK    6  A    between atoms: C_12  and  C_13
REMARK                            x       y       z     vdW  Elec       q    Type
REMARK                         _______ _______ _______ _____ _____    ______ ____
ROOT
ATOM      1  C   UNL     1       3.056  -1.225   0.701  0.00  0.00    +0.000 A 
ATOM      2  C   UNL     1       2.610  -2.545   0.666  0.00  0.00    +0.000 A 
ATOM      3  C   UNL     1       3.358  -3.561   1.281  0.00  0.00    +0.000 A 
ATOM      4  C   UNL     1       4.564  -3.263   1.940  0.00  0.00    +0.000 A 
ATOM      5  C   UNL     1       5.006  -1.938   1.969  0.00  0.00    +0.000 A 
ATOM      6  C   UNL     1       4.254  -0.931   1.354  0.00  0.00    +0.000 A 
ENDROOT
BRANCH   1   8
ATOM      7  C   UNL     1       1.197  -0.391  -0.523  0.00  0.00    +0.000 C 
ATOM      8  O   UNL     1       2.428  -0.146   0.146  0.00  0.00    +0.000 OA
ENDBRANCH   1   8
BRANCH   4   9
ATOM      9  O   UNL     1       5.228  -4.318   2.511  0.00  0.00    +0.000 OA
ATOM     10  C   UNL     1       6.427  -4.034   3.220  0.00  0.00    +0.000 C 
ENDBRANCH   4   9
BRANCH   3  11
ATOM     11  C   UNL     1       2.860  -4.905   1.219  0.00  0.00    +0.000 C 
ATOM     12  C   UNL     1       2.446  -6.032   1.168  0.00  0.00    +0.000 C 
BRANCH  12  13
ATOM     13  C   UNL     1       1.962  -7.375   1.108  0.00  0.00    +0.000 A 
ATOM     14  C   UNL     1       2.795  -8.470   1.067  0.00  0.00    +0.000 A 
ATOM     15  S   UNL     1       1.921  -9.941   0.999  0.00  0.00    +0.000 S 
ATOM     16  C   UNL     1       0.422  -9.114   1.025  0.00  0.00    +0.000 A 
ATOM     17  C   UNL     1       0.587  -7.746   1.085  0.00  0.00    +0.000 A 
ENDBRANCH  12  13
ENDBRANCH   3  11
TORSDOF 4
