REMARK  Name = *****
REMARK  7 active torsions:
REMARK  status: ('A' for Active; 'I' for Inactive)
REMARK    1  A    between atoms: C_1  and  C_2
REMARK    2  A    between atoms: C_3  and  C_17
REMARK    3  A    between atoms: C_4  and  C_16
REMARK    4  A    between atoms: C_5  and  C_15
REMARK    5  A    between atoms: C_6  and  C_7
REMARK    6  A    between atoms: C_7  and  C_8
REMARK    7  A    between atoms: C_9  and  C_10
REMARK                            x       y       z     vdW  Elec       q    Type
REMARK                         _______ _______ _______ _____ _____    ______ ____
ROOT
ATOM      1  C   UNL     1       0.818   0.226   0.232  0.00  0.00    +0.000 C 
ATOM      2  C   UNL     1       2.342   0.116   0.202  0.00  0.00    +0.000 C 
ATOM      3  C   UNL     1       2.994   1.290  -0.501  0.00  0.00    +0.000 C 
ATOM      4  C   UNL     1       3.706   0.852  -1.559  0.00  0.00    +0.000 C 
ATOM      5  C   UNL     1       3.610  -0.605  -1.635  0.00  0.00    +0.000 C 
ATOM      6  C   UNL     1       2.824  -1.052  -0.637  0.00  0.00    +0.000 C 
ATOM      7  C   UNL     1       4.359  -1.388  -2.661  0.00  0.00    +0.000 C 
ATOM      8  C   UNL     1       4.504   1.644  -2.538  0.00  0.00    +0.000 C 
ATOM      9  C   UNL     1       2.826   2.676   0.015  0.00  0.00    +0.000 C 
ENDROOT
BRANCH   6  10
ATOM     10  C   UNL     1       2.493  -2.407  -0.279  0.00  0.00    +0.000 C 
BRANCH  10  11
ATOM     11  C   UNL     1       1.952  -3.295  -1.127  0.00  0.00    +0.000 C 
ATOM     12  C   UNL     1       1.605  -4.645  -0.734  0.00  0.00    +0.000 C 
BRANCH  12  13
ATOM     13  C   UNL     1       1.046  -5.576  -1.520  0.00  0.00    +0.000 C 
ATOM     14  C   UNL     1       0.718  -6.921  -1.079  0.00  0.00    +0.000 C 
ATOM     15  C   UNL     1       0.177  -7.558  -2.132  0.00  0.00    +0.000 C 
ATOM     16  C   UNL     1       0.141  -6.656  -3.268  0.00  0.00    +0.000 C 
ATOM     17  C   UNL     1       0.658  -5.469  -2.914  0.00  0.00    +0.000 C 
ENDBRANCH  12  13
ENDBRANCH  10  11
ENDBRANCH   6  10
TORSDOF 3
