REMARK  Name = *****
REMARK  3 active torsions:
REMARK  status: ('A' for Active; 'I' for Inactive)
REMARK    1  A    between atoms: C_4  and  C_7
REMARK    2  A    between atoms: C_7  and  S_8
REMARK    3  A    between atoms: S_8  and  C_9
REMARK                            x       y       z     vdW  Elec       q    Type
REMARK                         _______ _______ _______ _____ _____    ______ ____
ROOT
ATOM      1  S   UNL     1      -3.680  -1.242  -0.832  0.00  0.00    +0.000 S 
ENDROOT
BRANCH   1   2
ATOM      2  C   UNL     1      -5.389  -0.708  -0.831  0.00  0.00    +0.000 A 
ATOM      3  C   UNL     1      -6.173  -1.109   0.262  0.00  0.00    +0.000 A 
ATOM      4  C   UNL     1      -7.517  -0.742   0.356  0.00  0.00    +0.000 A 
ATOM      5  C   UNL     1      -8.097   0.029  -0.647  0.00  0.00    +0.000 A 
ATOM      6  C   UNL     1      -7.336   0.428  -1.746  0.00  0.00    +0.000 A 
ATOM      7  C   UNL     1      -5.987   0.061  -1.844  0.00  0.00    +0.000 A 
ATOM      8  I   UNL     1      -4.964   0.716  -3.562  0.00  0.00    +0.000 I 
ENDBRANCH   1   2
BRANCH   1   9
ATOM      9  C   UNL     1      -2.943   0.194   0.013  0.00  0.00    +0.000 C 
BRANCH   9  13
ATOM     10  C   UNL     1       1.343  -0.197   0.299  0.00  0.00    +0.000 A 
ATOM     11  C   UNL     1       0.769   0.376  -0.835  0.00  0.00    +0.000 A 
ATOM     12  C   UNL     1      -0.618   0.504  -0.927  0.00  0.00    +0.000 A 
ATOM     13  C   UNL     1      -1.445   0.064   0.118  0.00  0.00    +0.000 A 
ATOM     14  C   UNL     1      -0.856  -0.520   1.249  0.00  0.00    +0.000 A 
ATOM     15  C   UNL     1       0.531  -0.646   1.339  0.00  0.00    +0.000 A 
ENDBRANCH   9  13
ENDBRANCH   1   9
TORSDOF 3
