REMARK  Name = *****
REMARK  4 active torsions:
REMARK  status: ('A' for Active; 'I' for Inactive)
REMARK    1  A    between atoms: C_1  and  C_2
REMARK    2  A    between atoms: C_2  and  C_9
REMARK    3  A    between atoms: C_9  and  C_10
REMARK    4  A    between atoms: C_11  and  C_12
REMARK                            x       y       z     vdW  Elec       q    Type
REMARK                         _______ _______ _______ _____ _____    ______ ____
ROOT
ATOM      1  C   UNL     1       2.971   0.143   1.441  0.00  0.00    +0.000 C 
ENDROOT
BRANCH   1   3
ATOM      2  C   UNL     1       0.875  -0.187   0.043  0.00  0.00    +0.000 C 
ATOM      3  C   UNL     1       2.413  -0.127   0.014  0.00  0.00    +0.000 C 
ATOM      4  C   UNL     1       2.913   0.960  -0.966  0.00  0.00    +0.000 C 
ATOM      5  C   UNL     1       2.670   0.627  -2.438  0.00  0.00    +0.000 C 
ATOM      6  C   UNL     1       3.311  -0.705  -2.802  0.00  0.00    +0.000 C 
ATOM      7  C   UNL     1       2.789  -1.833  -1.929  0.00  0.00    +0.000 C 
ATOM      8  C   UNL     1       2.928  -1.499  -0.457  0.00  0.00    +0.000 C 
ATOM      9  O   UNL     1       3.338  -2.353   0.331  0.00  0.00    +0.000 OA
ENDBRANCH   1   3
BRANCH   1  10
ATOM     10  C   UNL     1       2.595   1.476   2.038  0.00  0.00    +0.000 C 
ATOM     11  C   UNL     1       3.488   2.437   2.328  0.00  0.00    +0.000 C 
BRANCH  11  12
ATOM     12  C   UNL     1       3.145   3.742   2.913  0.00  0.00    +0.000 A 
ATOM     13  C   UNL     1       2.116   3.898   3.852  0.00  0.00    +0.000 A 
ATOM     14  C   UNL     1       1.842   5.151   4.407  0.00  0.00    +0.000 A 
ATOM     15  C   UNL     1       2.602   6.259   4.040  0.00  0.00    +0.000 A 
ATOM     16  C   UNL     1       3.639   6.114   3.122  0.00  0.00    +0.000 A 
ATOM     17  C   UNL     1       3.912   4.861   2.566  0.00  0.00    +0.000 A 
ENDBRANCH  11  12
ENDBRANCH   1  10
TORSDOF 3
