REMARK  Name = *****
REMARK  4 active torsions:
REMARK  status: ('A' for Active; 'I' for Inactive)
REMARK    1  A    between atoms: C_1  and  C_2
REMARK    2  A    between atoms: C_5  and  C_8
REMARK    3  A    between atoms: C_8  and  N_10
REMARK    4  A    between atoms: N_10  and  C_11
REMARK                            x       y       z     vdW  Elec       q    Type
REMARK                         _______ _______ _______ _____ _____    ______ ____
ROOT
ATOM      1  C   UNL     1      -3.265  -0.422   0.647  0.00  0.00    +0.000 C 
ATOM      2  S   UNL     1      -3.796  -1.952   1.081  0.00  0.00    +0.000 S 
ENDROOT
BRANCH   1   7
ATOM      3  C   UNL     1       2.374   0.631  -0.161  0.00  0.00    +0.000 C 
ATOM      4  C   UNL     1       0.920   0.329   0.062  0.00  0.00    +0.000 A 
ATOM      5  C   UNL     1       0.240  -0.555  -0.787  0.00  0.00    +0.000 A 
ATOM      6  C   UNL     1      -1.118  -0.818  -0.595  0.00  0.00    +0.000 A 
ATOM      7  C   UNL     1      -1.804  -0.187   0.448  0.00  0.00    +0.000 A 
ATOM      8  C   UNL     1      -1.140   0.713   1.288  0.00  0.00    +0.000 A 
ATOM      9  C   UNL     1       0.218   0.970   1.091  0.00  0.00    +0.000 A 
ENDBRANCH   1   7
BRANCH   1  10
ATOM     10  N   UNL     1      -3.999   0.729   0.388  0.00  0.00    +0.000 N 
ATOM     11  H   UNL     1      -3.457   1.469   0.032  0.00  0.00    +0.000 HD
BRANCH  10  12
ATOM     12  C   UNL     1      -5.369   1.050   0.532  0.00  0.00    +0.000 A 
ATOM     13  C   UNL     1      -6.318   0.282   1.205  0.00  0.00    +0.000 A 
ATOM     14  C   UNL     1      -7.649   0.709   1.298  0.00  0.00    +0.000 A 
ATOM     15  C   UNL     1      -8.045   1.914   0.725  0.00  0.00    +0.000 A 
ATOM     16  C   UNL     1      -7.109   2.698   0.063  0.00  0.00    +0.000 A 
ATOM     17  C   UNL     1      -5.781   2.271  -0.028  0.00  0.00    +0.000 A 
ENDBRANCH  10  12
ENDBRANCH   1  10
TORSDOF 3
