REMARK  Name = *****
REMARK  3 active torsions:
REMARK  status: ('A' for Active; 'I' for Inactive)
REMARK    1  A    between atoms: S_4  and  C_6
REMARK    2  A    between atoms: C_6  and  C_7
REMARK    3  A    between atoms: C_7  and  C_8
REMARK                            x       y       z     vdW  Elec       q    Type
REMARK                         _______ _______ _______ _____ _____    ______ ____
ROOT
ATOM      1  C   UNL     1       0.191   2.512   2.277  0.00  0.00    +0.000 C 
ATOM      2 CL   UNL     1      -1.119   1.605   3.099  0.00  0.00    +0.000 Cl
ENDROOT
BRANCH   1   3
ATOM      3  C   UNL     1       0.420   3.823   3.007  0.00  0.00    +0.000 A 
ATOM      4  C   UNL     1      -0.558   4.831   3.043  0.00  0.00    +0.000 A 
ATOM      5  C   UNL     1      -0.319   6.033   3.711  0.00  0.00    +0.000 A 
ATOM      6  C   UNL     1       0.898   6.245   4.354  0.00  0.00    +0.000 A 
ATOM      7  C   UNL     1       1.876   5.254   4.332  0.00  0.00    +0.000 A 
ATOM      8  C   UNL     1       1.640   4.051   3.664  0.00  0.00    +0.000 A 
ENDBRANCH   1   3
BRANCH   1   9
ATOM      9  C   UNL     1      -0.124   2.732   0.794  0.00  0.00    +0.000 C 
BRANCH   9  13
ATOM     10  C   UNL     1      -1.042   0.930  -2.595  0.00  0.00    +0.000 C 
ATOM     11  C   UNL     1      -2.218   0.859  -1.618  0.00  0.00    +0.000 C 
ATOM     12  C   UNL     1      -1.639   0.473  -0.259  0.00  0.00    +0.000 C 
ATOM     13  S   UNL     1      -0.057   1.269  -0.203  0.00  0.00    +0.000 S 
ATOM     14  C   UNL     1       0.041   1.753  -1.904  0.00  0.00    +0.000 C 
ATOM     15 CL   UNL     1       1.437  -0.010   0.273  0.00  0.00    +0.000 Cl
ENDBRANCH   9  13
ENDBRANCH   1   9
TORSDOF 3
