REMARK  Name = *****
REMARK  4 active torsions:
REMARK  status: ('A' for Active; 'I' for Inactive)
REMARK    1  A    between atoms: C_1  and  N_2
REMARK    2  A    between atoms: N_2  and  C_3
REMARK    3  A    between atoms: N_2  and  C_10
REMARK    4  A    between atoms: C_3  and  C_4
REMARK                            x       y       z     vdW  Elec       q    Type
REMARK                         _______ _______ _______ _____ _____    ______ ____
ROOT
ATOM      1  C   UNL     1       2.833  -0.490   0.688  0.00  0.00    +0.000 C 
ATOM      2  N   UNL     1       2.106   0.409  -0.216  0.00  0.00    +0.000 N 
ATOM      3  H   UNL     1       1.469  -0.153  -0.780  0.00  0.00    +0.000 HD
ENDROOT
BRANCH   2   4
ATOM      4  C   UNL     1       2.977   1.058  -1.206  0.00  0.00    +0.000 C 
ATOM      5  C   UNL     1       4.043   2.036  -0.640  0.00  0.00    +0.000 C 
ATOM      6  C   UNL     1       4.333   2.911  -1.862  0.00  0.00    +0.000 C 
ATOM      7  C   UNL     1       4.957   2.049  -2.992  0.00  0.00    +0.000 C 
ATOM      8  C   UNL     1       4.060   0.830  -3.336  0.00  0.00    +0.000 C 
ATOM      9  C   UNL     1       3.764   0.027  -2.069  0.00  0.00    +0.000 C 
ATOM     10  C   UNL     1       2.643   1.299  -3.657  0.00  0.00    +0.000 C 
ATOM     11  C   UNL     1       2.228   1.922  -2.315  0.00  0.00    +0.000 C 
ATOM     12  C   UNL     1       2.901   3.301  -2.236  0.00  0.00    +0.000 C 
ENDBRANCH   2   4
BRANCH   2  13
ATOM     13  C   UNL     1       1.289   1.358   0.566  0.00  0.00    +0.000 C 
BRANCH  13  14
ATOM     14  C   UNL     1       0.062   0.716   1.186  0.00  0.00    +0.000 A 
ATOM     15  C   UNL     1      -0.213   0.874   2.552  0.00  0.00    +0.000 A 
ATOM     16  C   UNL     1      -1.357   0.304   3.115  0.00  0.00    +0.000 A 
ATOM     17  C   UNL     1      -2.240  -0.423   2.320  0.00  0.00    +0.000 A 
ATOM     18  C   UNL     1      -1.982  -0.581   0.959  0.00  0.00    +0.000 A 
ATOM     19  C   UNL     1      -0.840  -0.012   0.395  0.00  0.00    +0.000 A 
ENDBRANCH  13  14
ENDBRANCH   2  13
TORSDOF 3
