REMARK  Name = *****
REMARK  3 active torsions:
REMARK  status: ('A' for Active; 'I' for Inactive)
REMARK    1  A    between atoms: C_4  and  O_7
REMARK    2  A    between atoms: O_7  and  C_8
REMARK    3  A    between atoms: C_8  and  C_10
REMARK                            x       y       z     vdW  Elec       q    Type
REMARK                         _______ _______ _______ _____ _____    ______ ____
ROOT
ATOM      1  C   UNL     1       3.417  -1.776   0.296  0.00  0.00    +0.000 C 
ATOM      2  O   UNL     1       3.046  -2.431   1.257  0.00  0.00    +0.000 OA
ENDROOT
BRANCH   1   3
ATOM      3  C   UNL     1       4.698  -2.024  -0.395  0.00  0.00    +0.000 A 
ATOM      4  C   UNL     1       5.393  -1.015  -1.062  0.00  0.00    +0.000 A 
ATOM      5  C   UNL     1       6.603  -1.304  -1.694  0.00  0.00    +0.000 A 
ATOM      6  C   UNL     1       7.127  -2.598  -1.659  0.00  0.00    +0.000 A 
ATOM      7  C   UNL     1       6.443  -3.607  -0.980  0.00  0.00    +0.000 A 
ATOM      8  C   UNL     1       5.233  -3.321  -0.346  0.00  0.00    +0.000 A 
ATOM      9 CL   UNL     1       7.475  -0.070  -2.522  0.00  0.00    +0.000 Cl
ATOM     10  F   UNL     1       4.928   0.245  -1.077  0.00  0.00    +0.000 F 
ENDBRANCH   1   3
BRANCH   1  11
ATOM     11  O   UNL     1       2.716  -0.808  -0.336  0.00  0.00    +0.000 OA
BRANCH  11  15
ATOM     12  C   UNL     1      -1.359   0.374  -0.260  0.00  0.00    +0.000 C 
ATOM     13  C   UNL     1      -1.030  -1.058   0.152  0.00  0.00    +0.000 C 
ATOM     14  C   UNL     1       0.373  -1.462  -0.289  0.00  0.00    +0.000 C 
ATOM     15  C   UNL     1       1.431  -0.481   0.224  0.00  0.00    +0.000 C 
ATOM     16  C   UNL     1       1.097   0.950  -0.206  0.00  0.00    +0.000 C 
ATOM     17  C   UNL     1      -0.304   1.360   0.234  0.00  0.00    +0.000 C 
ENDBRANCH  11  15
ENDBRANCH   1  11
TORSDOF 3
