REMARK  Name = *****
REMARK  3 active torsions:
REMARK  status: ('A' for Active; 'I' for Inactive)
REMARK    1  A    between atoms: C_4  and  C_7
REMARK    2  A    between atoms: C_8  and  O_9
REMARK    3  A    between atoms: O_9  and  C_10
REMARK                            x       y       z     vdW  Elec       q    Type
REMARK                         _______ _______ _______ _____ _____    ______ ____
ROOT
ATOM      1  C   UNL     1       2.966   0.171  -0.236  0.00  0.00    +0.000 C 
ATOM      2  C   UNL     1       4.163   0.233  -0.313  0.00  0.00    +0.000 C 
ENDROOT
BRANCH   1   6
ATOM      3  C   UNL     1      -1.243  -0.021   0.055  0.00  0.00    +0.000 A 
ATOM      4  C   UNL     1      -0.606   1.217  -0.035  0.00  0.00    +0.000 A 
ATOM      5  C   UNL     1       0.786   1.280  -0.132  0.00  0.00    +0.000 A 
ATOM      6  C   UNL     1       1.541   0.105  -0.139  0.00  0.00    +0.000 A 
ATOM      7  C   UNL     1       0.901  -1.133  -0.050  0.00  0.00    +0.000 A 
ATOM      8  C   UNL     1      -0.491  -1.196   0.047  0.00  0.00    +0.000 A 
ENDBRANCH   1   6
BRANCH   2   9
ATOM      9  O   UNL     1       5.491   0.282  -0.405  0.00  0.00    +0.000 OA
BRANCH   9  10
ATOM     10  C   UNL     1       6.029   1.533  -0.215  0.00  0.00    +0.000 A 
ATOM     11  C   UNL     1       5.556   2.454   0.725  0.00  0.00    +0.000 A 
ATOM     12  C   UNL     1       6.190   3.691   0.869  0.00  0.00    +0.000 A 
ATOM     13  C   UNL     1       7.302   4.002   0.087  0.00  0.00    +0.000 A 
ATOM     14  C   UNL     1       7.788   3.076  -0.836  0.00  0.00    +0.000 A 
ATOM     15  C   UNL     1       7.155   1.841  -0.982  0.00  0.00    +0.000 A 
ENDBRANCH   9  10
ENDBRANCH   2   9
TORSDOF 3
