REMARK  Name = *****
REMARK  3 active torsions:
REMARK  status: ('A' for Active; 'I' for Inactive)
REMARK    1  A    between atoms: C_1  and  C_2
REMARK    2  A    between atoms: C_2  and  C_11
REMARK    3  A    between atoms: N_3  and  C_4
REMARK                            x       y       z     vdW  Elec       q    Type
REMARK                         _______ _______ _______ _____ _____    ______ ____
ROOT
ATOM      1  C   UNL     1       1.133   0.898   0.141  0.00  0.00    +0.000 C 
ATOM      2  C   UNL     1       2.452   0.152   0.134  0.00  0.00    +0.000 C 
ATOM      3  N   UNL     1       2.968  -0.458   1.162  0.00  0.00    +0.000 NA
ENDROOT
BRANCH   3   4
ATOM      4  C   UNL     1       2.305  -0.460   2.392  0.00  0.00    +0.000 A 
ATOM      5  C   UNL     1       1.312  -1.408   2.662  0.00  0.00    +0.000 A 
ATOM      6  C   UNL     1       0.669  -1.423   3.902  0.00  0.00    +0.000 A 
ATOM      7  C   UNL     1       1.032  -0.498   4.879  0.00  0.00    +0.000 A 
ATOM      8  C   UNL     1       2.035   0.437   4.629  0.00  0.00    +0.000 A 
ATOM      9  C   UNL     1       2.675   0.448   3.387  0.00  0.00    +0.000 A 
ATOM     10 CL   UNL     1       0.241  -0.514   6.407  0.00  0.00    +0.000 Cl
ENDBRANCH   3   4
BRANCH   2  11
ATOM     11  C   UNL     1       3.207   0.046  -1.124  0.00  0.00    +0.000 A 
ATOM     12  C   UNL     1       4.472  -0.513  -1.207  0.00  0.00    +0.000 A 
ATOM     13  S   UNL     1       5.115  -0.505  -2.790  0.00  0.00    +0.000 S 
ATOM     14  C   UNL     1       3.710   0.239  -3.411  0.00  0.00    +0.000 A 
ATOM     15  C   UNL     1       2.775   0.477  -2.427  0.00  0.00    +0.000 A 
ENDBRANCH   2  11
TORSDOF 2
