REMARK  Name = *****
REMARK  4 active torsions:
REMARK  status: ('A' for Active; 'I' for Inactive)
REMARK    1  A    between atoms: C_1  and  C_2
REMARK    2  A    between atoms: C_3  and  S_7
REMARK    3  A    between atoms: S_7  and  S_8
REMARK    4  A    between atoms: S_8  and  C_9
REMARK                            x       y       z     vdW  Elec       q    Type
REMARK                         _______ _______ _______ _____ _____    ______ ____
ROOT
ATOM      1  S   UNL     1       1.451  -2.747   0.116  0.00  0.00    +0.000 S 
ENDROOT
BRANCH   1   4
ATOM      2  C   UNL     1       2.101   0.010  -1.688  0.00  0.00    +0.000 C 
ATOM      3  C   UNL     1       1.050  -0.081  -0.632  0.00  0.00    +0.000 A 
ATOM      4  C   UNL     1       0.702  -1.154   0.164  0.00  0.00    +0.000 A 
ATOM      5  C   UNL     1      -0.363  -0.852   1.060  0.00  0.00    +0.000 A 
ATOM      6  C   UNL     1      -0.789   0.450   0.930  0.00  0.00    +0.000 A 
ATOM      7  S   UNL     1       0.089   1.294  -0.269  0.00  0.00    +0.000 S 
ENDBRANCH   1   4
BRANCH   1   8
ATOM      8  S   UNL     1       3.084  -2.506   1.342  0.00  0.00    +0.000 S 
BRANCH   8   9
ATOM      9  C   UNL     1       2.411  -2.671   2.957  0.00  0.00    +0.000 A 
ATOM     10  C   UNL     1       1.713  -3.763   3.421  0.00  0.00    +0.000 A 
ATOM     11  S   UNL     1       1.210  -3.556   5.045  0.00  0.00    +0.000 S 
ATOM     12  C   UNL     1       1.943  -2.012   5.133  0.00  0.00    +0.000 A 
ATOM     13  C   UNL     1       2.555  -1.660   3.949  0.00  0.00    +0.000 A 
ENDBRANCH   8   9
ENDBRANCH   1   8
TORSDOF 3
