REMARK  Name = *****
REMARK  3 active torsions:
REMARK  status: ('A' for Active; 'I' for Inactive)
REMARK    1  A    between atoms: C_1  and  C_2
REMARK    2  A    between atoms: C_3  and  C_11
REMARK    3  A    between atoms: N_4  and  C_5
REMARK                            x       y       z     vdW  Elec       q    Type
REMARK                         _______ _______ _______ _____ _____    ______ ____
ROOT
ATOM      1  C   UNL     1       0.782   0.322  -0.674  0.00  0.00    +0.000 C 
ATOM      2  C   UNL     1       2.169  -0.214  -0.733  0.00  0.00    +0.000 C 
ATOM      3  C   UNL     1       3.296   0.475  -1.502  0.00  0.00    +0.000 C 
ATOM      4  N   UNL     1       2.655  -0.752  -1.992  0.00  0.00    +0.000 N 
ENDROOT
BRANCH   4   5
ATOM      5  C   UNL     1       3.383  -1.966  -1.992  0.00  0.00    +0.000 A 
ATOM      6  C   UNL     1       2.814  -3.134  -1.466  0.00  0.00    +0.000 A 
ATOM      7  C   UNL     1       3.511  -4.344  -1.494  0.00  0.00    +0.000 A 
ATOM      8  C   UNL     1       4.781  -4.404  -2.064  0.00  0.00    +0.000 A 
ATOM      9  C   UNL     1       5.348  -3.258  -2.617  0.00  0.00    +0.000 A 
ATOM     10  C   UNL     1       4.648  -2.049  -2.589  0.00  0.00    +0.000 A 
ENDBRANCH   4   5
BRANCH   3  11
ATOM     11  C   UNL     1       3.060   1.757  -2.259  0.00  0.00    +0.000 A 
ATOM     12  C   UNL     1       2.968   2.985  -1.581  0.00  0.00    +0.000 A 
ATOM     13  C   UNL     1       2.766   4.186  -2.267  0.00  0.00    +0.000 A 
ATOM     14  C   UNL     1       2.655   4.184  -3.654  0.00  0.00    +0.000 A 
ATOM     15  C   UNL     1       2.749   2.984  -4.352  0.00  0.00    +0.000 A 
ATOM     16  C   UNL     1       2.952   1.787  -3.660  0.00  0.00    +0.000 A 
ENDBRANCH   3  11
TORSDOF 2
