REMARK  Name = *****
REMARK  3 active torsions:
REMARK  status: ('A' for Active; 'I' for Inactive)
REMARK    1  A    between atoms: C_4  and  C_7
REMARK    2  A    between atoms: C_7  and  C_8
REMARK    3  A    between atoms: C_8  and  C_10
REMARK                            x       y       z     vdW  Elec       q    Type
REMARK                         _______ _______ _______ _____ _____    ______ ____
ROOT
ATOM      1  C   UNL     1      -2.860   0.648  -0.080  0.00  0.00    +0.000 C 
ATOM      2 BR   UNL     1      -4.165  -0.786   0.219  0.00  0.00    +0.000 Br
ENDROOT
BRANCH   1   6
ATOM      3  C   UNL     1       1.107  -0.897   0.663  0.00  0.00    +0.000 A 
ATOM      4  C   UNL     1       0.499  -0.046   1.582  0.00  0.00    +0.000 A 
ATOM      5  C   UNL     1      -0.783   0.450   1.336  0.00  0.00    +0.000 A 
ATOM      6  C   UNL     1      -1.472   0.106   0.161  0.00  0.00    +0.000 A 
ATOM      7  C   UNL     1      -0.846  -0.758  -0.752  0.00  0.00    +0.000 A 
ATOM      8  C   UNL     1       0.434  -1.255  -0.502  0.00  0.00    +0.000 A 
ENDBRANCH   1   6
BRANCH   1   9
ATOM      9  C   UNL     1      -3.094   1.216  -1.473  0.00  0.00    +0.000 C 
ATOM     10  O   UNL     1      -3.319   0.526  -2.469  0.00  0.00    +0.000 OA
BRANCH   9  11
ATOM     11  C   UNL     1      -3.053   2.697  -1.644  0.00  0.00    +0.000 A 
ATOM     12  C   UNL     1      -2.298   3.528  -0.807  0.00  0.00    +0.000 A 
ATOM     13  C   UNL     1      -2.312   4.912  -1.000  0.00  0.00    +0.000 A 
ATOM     14  C   UNL     1      -3.069   5.470  -2.030  0.00  0.00    +0.000 A 
ATOM     15  C   UNL     1      -3.808   4.647  -2.877  0.00  0.00    +0.000 A 
ATOM     16  C   UNL     1      -3.797   3.264  -2.688  0.00  0.00    +0.000 A 
ENDBRANCH   9  11
ENDBRANCH   1   9
TORSDOF 3
