REMARK  Name = *****
REMARK  2 active torsions:
REMARK  status: ('A' for Active; 'I' for Inactive)
REMARK    1  A    between atoms: C_4  and  C_7
REMARK    2  A    between atoms: C_7  and  C_8
REMARK                            x       y       z     vdW  Elec       q    Type
REMARK                         _______ _______ _______ _____ _____    ______ ____
ROOT
ATOM      1  C   UNL     1      -3.884  -0.907  -0.082  0.00  0.00    +0.000 A 
ATOM      2  N   UNL     1      -4.445  -1.514  -1.114  0.00  0.00    +0.000 NA
ATOM      3  C   UNL     1      -5.132  -2.556  -0.544  0.00  0.00    +0.000 A 
ATOM      4  C   UNL     1      -4.960  -2.535   0.831  0.00  0.00    +0.000 A 
ATOM      5  O   UNL     1      -4.163  -1.472   1.138  0.00  0.00    +0.000 OA
ATOM      6  C   UNL     1      -5.521  -3.451   1.712  0.00  0.00    +0.000 A 
ATOM      7  C   UNL     1      -6.311  -4.448   1.126  0.00  0.00    +0.000 A 
ATOM      8  C   UNL     1      -6.506  -4.497  -0.261  0.00  0.00    +0.000 A 
ATOM      9  C   UNL     1      -5.923  -3.557  -1.120  0.00  0.00    +0.000 A 
ATOM     10 CL   UNL     1      -7.490  -5.744  -0.929  0.00  0.00    +0.000 Cl
ENDROOT
BRANCH   1  11
ATOM     11  C   UNL     1      -3.021   0.308  -0.078  0.00  0.00    +0.000 C 
BRANCH  11  15
ATOM     12  C   UNL     1       1.232  -0.420   0.206  0.00  0.00    +0.000 A 
ATOM     13  C   UNL     1       0.460  -1.162  -0.685  0.00  0.00    +0.000 A 
ATOM     14  C   UNL     1      -0.915  -0.938  -0.776  0.00  0.00    +0.000 A 
ATOM     15  C   UNL     1      -1.539   0.021   0.038  0.00  0.00    +0.000 A 
ATOM     16  C   UNL     1      -0.747   0.769   0.923  0.00  0.00    +0.000 A 
ATOM     17  C   UNL     1       0.629   0.547   1.008  0.00  0.00    +0.000 A 
ENDBRANCH  11  15
ENDBRANCH   1  11
TORSDOF 2
