REMARK  Name = *****
REMARK  6 active torsions:
REMARK  status: ('A' for Active; 'I' for Inactive)
REMARK    1  A    between atoms: C_1  and  C_2
REMARK    2  A    between atoms: C_5  and  C_8
REMARK    3  A    between atoms: C_8  and  O_10
REMARK    4  A    between atoms: O_10  and  C_11
REMARK    5  A    between atoms: C_11  and  C_12
REMARK    6  A    between atoms: C_17  and  C_18
REMARK                            x       y       z     vdW  Elec       q    Type
REMARK                         _______ _______ _______ _____ _____    ______ ____
ROOT
ATOM      1  C   UNL     1      -3.447   0.026   0.200  0.00  0.00    +0.000 C 
ATOM      2  O   UNL     1      -4.092  -0.934   0.590  0.00  0.00    +0.000 OA
ENDROOT
BRANCH   1   7
ATOM      3  C   UNL     1       2.356  -0.020   0.139  0.00  0.00    +0.000 C 
ATOM      4  C   UNL     1       0.856   0.012   0.140  0.00  0.00    +0.000 A 
ATOM      5  C   UNL     1       0.160   1.128  -0.339  0.00  0.00    +0.000 A 
ATOM      6  C   UNL     1      -1.238   1.152  -0.326  0.00  0.00    +0.000 A 
ATOM      7  C   UNL     1      -1.959   0.058   0.171  0.00  0.00    +0.000 A 
ATOM      8  C   UNL     1      -1.263  -1.056   0.657  0.00  0.00    +0.000 A 
ATOM      9  C   UNL     1       0.134  -1.078   0.643  0.00  0.00    +0.000 A 
ENDBRANCH   1   7
BRANCH   1  10
ATOM     10  O   UNL     1      -3.950   1.192  -0.272  0.00  0.00    +0.000 OA
BRANCH  10  11
ATOM     11  C   UNL     1      -5.378   1.298  -0.270  0.00  0.00    +0.000 C 
BRANCH  11  12
ATOM     12  C   UNL     1      -5.855   1.970   0.998  0.00  0.00    +0.000 A 
ATOM     13  C   UNL     1      -6.588   1.210   1.926  0.00  0.00    +0.000 A 
ATOM     14  C   UNL     1      -7.054   1.779   3.111  0.00  0.00    +0.000 A 
ATOM     15  C   UNL     1      -6.786   3.114   3.390  0.00  0.00    +0.000 A 
ATOM     16  C   UNL     1      -6.049   3.880   2.486  0.00  0.00    +0.000 A 
ATOM     17  C   UNL     1      -5.580   3.324   1.284  0.00  0.00    +0.000 A 
ATOM     18  C   UNL     1      -4.763   4.181   0.357  0.00  0.00    +0.000 C 
ENDBRANCH  11  12
ENDBRANCH  10  11
ENDBRANCH   1  10
TORSDOF 4
