REMARK  Name = *****
REMARK  5 active torsions:
REMARK  status: ('A' for Active; 'I' for Inactive)
REMARK    1  A    between atoms: C_4  and  S_16
REMARK    2  A    between atoms: C_5  and  C_7
REMARK    3  A    between atoms: C_7  and  C_8
REMARK    4  A    between atoms: C_8  and  C_9
REMARK    5  A    between atoms: C_14  and  S_15
REMARK                            x       y       z     vdW  Elec       q    Type
REMARK                         _______ _______ _______ _____ _____    ______ ____
ROOT
ATOM      1  C   UNL     1       0.534  -2.403   0.115  0.00  0.00    +0.000 C 
ENDROOT
BRANCH   1   6
ATOM      2  C   UNL     1      -0.784   0.787  -1.479  0.00  0.00    +0.000 A 
ATOM      3  C   UNL     1      -1.173   1.541  -0.378  0.00  0.00    +0.000 A 
ATOM      4  C   UNL     1      -1.018   1.023   0.909  0.00  0.00    +0.000 A 
ATOM      5  C   UNL     1      -0.479  -0.257   1.109  0.00  0.00    +0.000 A 
ATOM      6  C   UNL     1      -0.085  -1.026  -0.004  0.00  0.00    +0.000 A 
ATOM      7  C   UNL     1      -0.241  -0.484  -1.294  0.00  0.00    +0.000 A 
BRANCH   5   8
ATOM      8  S   UNL     1      -0.296  -0.829   2.794  0.00  0.00    +0.000 S 
ATOM      9  H   UNL     1      -0.760   0.122   3.648  0.00  0.00    +0.000 HD
ENDBRANCH   5   8
ENDBRANCH   1   6
BRANCH   1  10
ATOM     10  C   UNL     1       2.052  -2.330   0.306  0.00  0.00    +0.000 C 
BRANCH  10  11
ATOM     11  C   UNL     1       2.671  -3.708   0.414  0.00  0.00    +0.000 A 
ATOM     12  C   UNL     1       2.792  -4.274   1.698  0.00  0.00    +0.000 A 
ATOM     13  C   UNL     1       3.339  -5.544   1.876  0.00  0.00    +0.000 A 
ATOM     14  C   UNL     1       3.772  -6.271   0.774  0.00  0.00    +0.000 A 
ATOM     15  C   UNL     1       3.653  -5.729  -0.507  0.00  0.00    +0.000 A 
ATOM     16  C   UNL     1       3.098  -4.455  -0.702  0.00  0.00    +0.000 A 
BRANCH  16  17
ATOM     17  S   UNL     1       2.974  -3.834  -2.377  0.00  0.00    +0.000 S 
ATOM     18  H   UNL     1       2.415  -2.594  -2.360  0.00  0.00    +0.000 HD
ENDBRANCH  16  17
ENDBRANCH  10  11
ENDBRANCH   1  10
TORSDOF 5
