REMARK  Name = *****
REMARK  3 active torsions:
REMARK  status: ('A' for Active; 'I' for Inactive)
REMARK    1  A    between atoms: N_4  and  S_7
REMARK    2  A    between atoms: S_7  and  S_8
REMARK    3  A    between atoms: S_8  and  C_9
REMARK                            x       y       z     vdW  Elec       q    Type
REMARK                         _______ _______ _______ _____ _____    ______ ____
ROOT
ATOM      1  S   UNL     1       3.591   1.764   0.912  0.00  0.00    +0.000 S 
ENDROOT
BRANCH   1   2
ATOM      2  C   UNL     1       3.548   0.924   2.483  0.00  0.00    +0.000 A 
ATOM      3  C   UNL     1       4.630   0.141   2.903  0.00  0.00    +0.000 A 
ATOM      4  C   UNL     1       4.588  -0.512   4.137  0.00  0.00    +0.000 A 
ATOM      5  C   UNL     1       3.466  -0.380   4.954  0.00  0.00    +0.000 A 
ATOM      6  C   UNL     1       2.386   0.402   4.548  0.00  0.00    +0.000 A 
ATOM      7  C   UNL     1       2.429   1.055   3.314  0.00  0.00    +0.000 A 
ATOM      8 CL   UNL     1       3.414  -1.187   6.472  0.00  0.00    +0.000 Cl
ENDBRANCH   1   2
BRANCH   1   9
ATOM      9  S   UNL     1       3.061   0.256  -0.380  0.00  0.00    +0.000 S 
BRANCH   9  13
ATOM     10  C   UNL     1      -1.531   0.191  -0.178  0.00  0.00    +0.000 C 
ATOM     11  C   UNL     1      -0.784   1.412  -0.696  0.00  0.00    +0.000 C 
ATOM     12  C   UNL     1       0.611   1.040  -1.200  0.00  0.00    +0.000 C 
ATOM     13  N   UNL     1       1.405   0.347  -0.170  0.00  0.00    +0.000 NA
ATOM     14  C   UNL     1       0.707  -0.860   0.305  0.00  0.00    +0.000 C 
ATOM     15  C   UNL     1      -0.685  -0.542   0.852  0.00  0.00    +0.000 C 
ENDBRANCH   9  13
ENDBRANCH   1   9
TORSDOF 3
