REMARK  Name = *****
REMARK  3 active torsions:
REMARK  status: ('A' for Active; 'I' for Inactive)
REMARK    1  A    between atoms: C_4  and  C_7
REMARK    2  A    between atoms: C_7  and  C_9
REMARK    3  A    between atoms: C_9  and  C_10
REMARK                            x       y       z     vdW  Elec       q    Type
REMARK                         _______ _______ _______ _____ _____    ______ ____
ROOT
ATOM      1  C   UNL     1      -5.391   0.007  -0.555  0.00  0.00    +0.000 A 
ATOM      2  C   UNL     1      -6.014   0.540  -1.686  0.00  0.00    +0.000 A 
ATOM      3  C   UNL     1      -7.403   0.647  -1.758  0.00  0.00    +0.000 A 
ATOM      4  C   UNL     1      -8.202   0.229  -0.702  0.00  0.00    +0.000 A 
ATOM      5  C   UNL     1      -7.591  -0.301   0.427  0.00  0.00    +0.000 A 
ATOM      6  C   UNL     1      -6.202  -0.410   0.504  0.00  0.00    +0.000 A 
ATOM      7  F   UNL     1      -5.643  -0.935   1.603  0.00  0.00    +0.000 F 
ATOM      8  F   UNL     1      -8.353  -0.717   1.448  0.00  0.00    +0.000 F 
ATOM      9  F   UNL     1      -7.979   1.154  -2.856  0.00  0.00    +0.000 F 
ATOM     10  F   UNL     1      -5.265   0.946  -2.721  0.00  0.00    +0.000 F 
ENDROOT
BRANCH   1  11
ATOM     11  C   UNL     1      -3.891  -0.066  -0.471  0.00  0.00    +0.000 C 
BRANCH  11  12
ATOM     12  C   UNL     1      -3.273   1.296  -0.203  0.00  0.00    +0.000 C 
ATOM     13  O   UNL     1      -3.692   2.031   0.692  0.00  0.00    +0.000 OA
BRANCH  12  17
ATOM     14  C   UNL     1       0.155   2.627  -2.405  0.00  0.00    +0.000 A 
ATOM     15  C   UNL     1      -0.790   1.819  -3.036  0.00  0.00    +0.000 A 
ATOM     16  C   UNL     1      -1.915   1.374  -2.337  0.00  0.00    +0.000 A 
ATOM     17  C   UNL     1      -2.091   1.733  -0.996  0.00  0.00    +0.000 A 
ATOM     18  C   UNL     1      -1.148   2.560  -0.372  0.00  0.00    +0.000 A 
ATOM     19  C   UNL     1      -0.025   3.001  -1.074  0.00  0.00    +0.000 A 
ENDBRANCH  12  17
ENDBRANCH  11  12
ENDBRANCH   1  11
TORSDOF 3
