REMARK  Name = *****
REMARK  3 active torsions:
REMARK  status: ('A' for Active; 'I' for Inactive)
REMARK    1  A    between atoms: C_6  and  O_7
REMARK    2  A    between atoms: O_7  and  C_8
REMARK    3  A    between atoms: C_8  and  C_10
REMARK                            x       y       z     vdW  Elec       q    Type
REMARK                         _______ _______ _______ _____ _____    ______ ____
ROOT
ATOM      1  C   UNL     1      -4.011   1.438   0.280  0.00  0.00    +0.000 C 
ATOM      2  O   UNL     1      -3.463   2.488   0.563  0.00  0.00    +0.000 OA
ENDROOT
BRANCH   1   3
ATOM      3  C   UNL     1      -5.469   1.272   0.166  0.00  0.00    +0.000 A 
ATOM      4  C   UNL     1      -6.213   2.014  -0.758  0.00  0.00    +0.000 A 
ATOM      5  C   UNL     1      -7.600   1.853  -0.821  0.00  0.00    +0.000 A 
ATOM      6  C   UNL     1      -8.234   0.957   0.038  0.00  0.00    +0.000 A 
ATOM      7  C   UNL     1      -7.498   0.214   0.961  0.00  0.00    +0.000 A 
ATOM      8  C   UNL     1      -6.113   0.371   1.028  0.00  0.00    +0.000 A 
ATOM      9 CL   UNL     1      -9.941   0.760  -0.043  0.00  0.00    +0.000 Cl
ATOM     10 CL   UNL     1      -5.479   3.103  -1.879  0.00  0.00    +0.000 Cl
ENDBRANCH   1   3
BRANCH   1  11
ATOM     11  O   UNL     1      -3.443   0.206   0.015  0.00  0.00    +0.000 OA
BRANCH  11  17
ATOM     12  C   UNL     1      -1.362   0.423   1.264  0.00  0.00    +0.000 A 
ATOM     13  C   UNL     1       0.029   0.323   1.285  0.00  0.00    +0.000 A 
ATOM     14  C   UNL     1       0.709  -0.041   0.126  0.00  0.00    +0.000 A 
ATOM     15  C   UNL     1       0.026  -0.310  -1.057  0.00  0.00    +0.000 A 
ATOM     16  C   UNL     1      -1.365  -0.209  -1.085  0.00  0.00    +0.000 A 
ATOM     17  C   UNL     1      -2.044   0.174   0.072  0.00  0.00    +0.000 A 
ATOM     18  F   UNL     1       2.045  -0.141   0.151  0.00  0.00    +0.000 F 
ENDBRANCH  11  17
ENDBRANCH   1  11
TORSDOF 3
