REMARK  Name = *****
REMARK  4 active torsions:
REMARK  status: ('A' for Active; 'I' for Inactive)
REMARK    1  A    between atoms: C_1  and  C_2
REMARK    2  A    between atoms: C_6  and  O_8
REMARK    3  A    between atoms: O_8  and  C_9
REMARK    4  A    between atoms: C_9  and  C_11
REMARK                            x       y       z     vdW  Elec       q    Type
REMARK                         _______ _______ _______ _____ _____    ______ ____
ROOT
ATOM      1  O   UNL     1      -1.897  -2.336  -0.435  0.00  0.00    +0.000 OA
ENDROOT
BRANCH   1   7
ATOM      2  C   UNL     1       2.461  -0.099  -0.110  0.00  0.00    +0.000 C 
ATOM      3  C   UNL     1       0.999  -0.044   0.327  0.00  0.00    +0.000 C 
ATOM      4  C   UNL     1       0.340   1.258  -0.148  0.00  0.00    +0.000 C 
ATOM      5  C   UNL     1      -1.139   1.312   0.226  0.00  0.00    +0.000 C 
ATOM      6  C   UNL     1      -1.893   0.090  -0.287  0.00  0.00    +0.000 C 
ATOM      7  C   UNL     1      -1.250  -1.213   0.194  0.00  0.00    +0.000 C 
ATOM      8  C   UNL     1       0.231  -1.263  -0.195  0.00  0.00    +0.000 C 
ENDBRANCH   1   7
BRANCH   1   9
ATOM      9  C   UNL     1      -3.043  -2.767   0.148  0.00  0.00    +0.000 C 
ATOM     10  O   UNL     1      -3.561  -2.296   1.148  0.00  0.00    +0.000 OA
BRANCH   9  11
ATOM     11  C   UNL     1      -3.613  -3.916  -0.608  0.00  0.00    +0.000 A 
ATOM     12  C   UNL     1      -4.814  -4.476  -0.153  0.00  0.00    +0.000 A 
ATOM     13  C   UNL     1      -5.390  -5.554  -0.829  0.00  0.00    +0.000 A 
ATOM     14  C   UNL     1      -4.770  -6.077  -1.962  0.00  0.00    +0.000 A 
ATOM     15  C   UNL     1      -3.574  -5.526  -2.422  0.00  0.00    +0.000 A 
ATOM     16  C   UNL     1      -2.995  -4.448  -1.748  0.00  0.00    +0.000 A 
ENDBRANCH   9  11
ENDBRANCH   1   9
TORSDOF 3
