REMARK  Name = *****
REMARK  3 active torsions:
REMARK  status: ('A' for Active; 'I' for Inactive)
REMARK    1  A    between atoms: C_5  and  O_7
REMARK    2  A    between atoms: O_7  and  C_8
REMARK    3  A    between atoms: C_8  and  C_10
REMARK                            x       y       z     vdW  Elec       q    Type
REMARK                         _______ _______ _______ _____ _____    ______ ____
ROOT
ATOM      1  O   UNL     1      -1.293  -1.060  -1.232  0.00  0.00    +0.000 OA
ENDROOT
BRANCH   1   6
ATOM      2  C   UNL     1       0.735   1.107  -0.680  0.00  0.00    +0.000 C 
ATOM      3  C   UNL     1       1.589   0.379   0.352  0.00  0.00    +0.000 C 
ATOM      4  C   UNL     1       1.066  -1.031   0.622  0.00  0.00    +0.000 C 
ATOM      5  C   UNL     1      -0.419  -1.053   1.006  0.00  0.00    +0.000 C 
ATOM      6  C   UNL     1      -1.287  -0.285  -0.008  0.00  0.00    +0.000 C 
ATOM      7  C   UNL     1      -0.742   1.123  -0.287  0.00  0.00    +0.000 C 
ATOM      8 CL   UNL     1      -0.643  -0.398   2.660  0.00  0.00    +0.000 Cl
ENDBRANCH   1   6
BRANCH   1   9
ATOM      9  C   UNL     1      -2.367  -0.894  -2.043  0.00  0.00    +0.000 C 
ATOM     10  O   UNL     1      -3.291  -0.120  -1.855  0.00  0.00    +0.000 OA
BRANCH   9  11
ATOM     11  C   UNL     1      -2.292  -1.820  -3.206  0.00  0.00    +0.000 A 
ATOM     12  C   UNL     1      -3.349  -1.810  -4.128  0.00  0.00    +0.000 A 
ATOM     13  C   UNL     1      -3.337  -2.676  -5.223  0.00  0.00    +0.000 A 
ATOM     14  C   UNL     1      -2.271  -3.556  -5.404  0.00  0.00    +0.000 A 
ATOM     15  C   UNL     1      -1.214  -3.570  -4.495  0.00  0.00    +0.000 A 
ATOM     16  C   UNL     1      -1.221  -2.704  -3.398  0.00  0.00    +0.000 A 
ENDBRANCH   9  11
ENDBRANCH   1   9
TORSDOF 3
