REMARK  Name = *****
REMARK  4 active torsions:
REMARK  status: ('A' for Active; 'I' for Inactive)
REMARK    1  A    between atoms: C_1  and  C_2
REMARK    2  A    between atoms: C_4  and  C_8
REMARK    3  A    between atoms: C_8  and  C_9
REMARK    4  A    between atoms: C_16  and  C_18
REMARK                            x       y       z     vdW  Elec       q    Type
REMARK                         _______ _______ _______ _____ _____    ______ ____
ROOT
ATOM      1  C   UNL     1      -1.339   4.163   0.512  0.00  0.00    +0.000 A 
ATOM      2  N   UNL     1      -1.101   5.078  -0.412  0.00  0.00    +0.000 NA
ATOM      3  C   UNL     1      -0.435   6.062   0.274  0.00  0.00    +0.000 A 
ATOM      4  C   UNL     1      -0.302   5.702   1.605  0.00  0.00    +0.000 A 
ATOM      5  O   UNL     1      -0.889   4.482   1.769  0.00  0.00    +0.000 OA
ATOM      6  C   UNL     1       0.326   6.473   2.573  0.00  0.00    +0.000 A 
ATOM      7  C   UNL     1       0.847   7.697   2.132  0.00  0.00    +0.000 A 
ATOM      8  C   UNL     1       0.726   8.117   0.794  0.00  0.00    +0.000 A 
ATOM      9  C   UNL     1       0.091   7.289  -0.153  0.00  0.00    +0.000 A 
ATOM     10  C   UNL     1       1.329   9.421   0.356  0.00  0.00    +0.000 C 
ENDROOT
BRANCH   1  11
ATOM     11  C   UNL     1      -2.044   2.860   0.368  0.00  0.00    +0.000 C 
BRANCH  11  15
ATOM     12  C   UNL     1       0.008  -1.429   2.078  0.00  0.00    +0.000 C 
ATOM     13  C   UNL     1      -0.102  -0.372   1.019  0.00  0.00    +0.000 A 
ATOM     14  C   UNL     1      -0.971   0.716   1.185  0.00  0.00    +0.000 A 
ATOM     15  C   UNL     1      -1.106   1.689   0.183  0.00  0.00    +0.000 A 
ATOM     16  C   UNL     1      -0.360   1.557  -0.997  0.00  0.00    +0.000 A 
ATOM     17  C   UNL     1       0.497   0.472  -1.173  0.00  0.00    +0.000 A 
ATOM     18  C   UNL     1       0.621  -0.492  -0.173  0.00  0.00    +0.000 A 
ENDBRANCH  11  15
ENDBRANCH   1  11
TORSDOF 2
