REMARK  Name = *****
REMARK  2 active torsions:
REMARK  status: ('A' for Active; 'I' for Inactive)
REMARK    1  A    between atoms: C_6  and  C_7
REMARK    2  A    between atoms: C_8  and  C_9
REMARK                            x       y       z     vdW  Elec       q    Type
REMARK                         _______ _______ _______ _____ _____    ______ ____
ROOT
ATOM      1  C   UNL     1       1.671   0.984   0.748  0.00  0.00    +0.000 A 
ATOM      2  C   UNL     1       0.274   0.976   0.686  0.00  0.00    +0.000 A 
ATOM      3  C   UNL     1      -0.379   0.020  -0.089  0.00  0.00    +0.000 A 
ATOM      4  C   UNL     1       0.352  -0.930  -0.798  0.00  0.00    +0.000 A 
ATOM      5  C   UNL     1       1.749  -0.920  -0.735  0.00  0.00    +0.000 A 
ATOM      6  C   UNL     1       2.422   0.045   0.026  0.00  0.00    +0.000 A 
ATOM      7 CL   UNL     1      -2.097   0.008  -0.163  0.00  0.00    +0.000 Cl
ENDROOT
BRANCH   6   8
ATOM      8  C   UNL     1       3.889   0.003   0.090  0.00  0.00    +0.000 C 
ATOM      9  C   UNL     1       4.668   1.098   0.047  0.00  0.00    +0.000 C 
BRANCH   9  10
ATOM     10  C   UNL     1       6.102   1.130   0.097  0.00  0.00    +0.000 A 
ATOM     11  C   UNL     1       6.925   0.031   0.233  0.00  0.00    +0.000 A 
ATOM     12  S   UNL     1       8.586   0.452   0.256  0.00  0.00    +0.000 S 
ATOM     13  C   UNL     1       8.221   2.113   0.085  0.00  0.00    +0.000 A 
ATOM     14  C   UNL     1       6.864   2.338   0.013  0.00  0.00    +0.000 A 
ENDBRANCH   9  10
ENDBRANCH   6   8
TORSDOF 2
