REMARK  Name = *****
REMARK  1 active torsions:
REMARK  status: ('A' for Active; 'I' for Inactive)
REMARK    1  A    between atoms: C_4  and  C_7
REMARK                            x       y       z     vdW  Elec       q    Type
REMARK                         _______ _______ _______ _____ _____    ______ ____
ROOT
ATOM      1  C   UNL     1      -2.720   0.692   0.046  0.00  0.00    +0.000 C 
ATOM      2  C   UNL     1      -3.533   0.056   0.903  0.00  0.00    +0.000 C 
ATOM      3  S   UNL     1      -5.228   0.345   1.080  0.00  0.00    +0.000 S 
ATOM      4  C   UNL     1      -5.621   0.760  -0.560  0.00  0.00    +0.000 A 
ATOM      5  C   UNL     1      -4.804   1.398  -1.417  0.00  0.00    +0.000 A 
ATOM      6  S   UNL     1      -3.194   1.936  -1.057  0.00  0.00    +0.000 S 
ATOM      7  S   UNL     1      -5.444   1.744  -3.005  0.00  0.00    +0.000 S 
ATOM      8  C   UNL     1      -7.019   1.031  -2.744  0.00  0.00    +0.000 A 
ATOM      9  O   UNL     1      -7.892   1.003  -3.596  0.00  0.00    +0.000 OA
ATOM     10  S   UNL     1      -7.217   0.357  -1.143  0.00  0.00    +0.000 S 
ENDROOT
BRANCH   1  14
ATOM     11  C   UNL     1       1.439  -0.290   0.069  0.00  0.00    +0.000 A 
ATOM     12  C   UNL     1       0.538  -1.085  -0.639  0.00  0.00    +0.000 A 
ATOM     13  C   UNL     1      -0.820  -0.761  -0.653  0.00  0.00    +0.000 A 
ATOM     14  C   UNL     1      -1.285   0.365   0.041  0.00  0.00    +0.000 A 
ATOM     15  C   UNL     1      -0.373   1.155   0.754  0.00  0.00    +0.000 A 
ATOM     16  C   UNL     1       0.984   0.829   0.766  0.00  0.00    +0.000 A 
ENDBRANCH   1  14
TORSDOF 1
