REMARK  Name = *****
REMARK  2 active torsions:
REMARK  status: ('A' for Active; 'I' for Inactive)
REMARK    1  A    between atoms: C_3  and  C_7
REMARK    2  A    between atoms: C_8  and  C_9
REMARK                            x       y       z     vdW  Elec       q    Type
REMARK                         _______ _______ _______ _____ _____    ______ ____
ROOT
ATOM      1  C   UNL     1       2.248   0.618   0.996  0.00  0.00    +0.000 C 
ATOM      2  C   UNL     1       2.837   0.806   2.026  0.00  0.00    +0.000 C 
ENDROOT
BRANCH   1   5
ATOM      3  C   UNL     1      -0.775   1.117   0.566  0.00  0.00    +0.000 C 
ATOM      4  C   UNL     1       0.362   1.377  -0.429  0.00  0.00    +0.000 C 
ATOM      5  C   UNL     1       1.524   0.388  -0.273  0.00  0.00    +0.000 C 
ATOM      6  C   UNL     1       1.027  -1.067  -0.380  0.00  0.00    +0.000 C 
ATOM      7  C   UNL     1      -0.290  -1.321   0.301  0.00  0.00    +0.000 C 
ATOM      8  C   UNL     1      -1.091  -0.339   0.737  0.00  0.00    +0.000 C 
ENDBRANCH   1   5
BRANCH   2   9
ATOM      9  C   UNL     1       3.536   1.030   3.253  0.00  0.00    +0.000 A 
ATOM     10  C   UNL     1       3.680   2.328   3.750  0.00  0.00    +0.000 A 
ATOM     11  C   UNL     1       4.363   2.546   4.948  0.00  0.00    +0.000 A 
ATOM     12  C   UNL     1       4.904   1.468   5.649  0.00  0.00    +0.000 A 
ATOM     13  C   UNL     1       4.761   0.171   5.155  0.00  0.00    +0.000 A 
ATOM     14  C   UNL     1       4.077  -0.048   3.957  0.00  0.00    +0.000 A 
ENDBRANCH   2   9
TORSDOF 2
