REMARK  Name = *****
REMARK  4 active torsions:
REMARK  status: ('A' for Active; 'I' for Inactive)
REMARK    1  A    between atoms: C_4  and  C_8
REMARK    2  A    between atoms: C_8  and  O_9
REMARK    3  A    between atoms: O_9  and  C_10
REMARK    4  A    between atoms: C_10  and  C_11
REMARK                            x       y       z     vdW  Elec       q    Type
REMARK                         _______ _______ _______ _____ _____    ______ ____
ROOT
ATOM      1  C   UNL     1       1.343  -2.140   0.345  0.00  0.00    +0.000 C 
ENDROOT
BRANCH   1   5
ATOM      2  C   UNL     1       2.932  -1.417  -2.318  0.00  0.00    +0.000 C 
ATOM      3  C   UNL     1       3.122   0.036  -1.875  0.00  0.00    +0.000 C 
ATOM      4  C   UNL     1       2.309   0.056  -0.561  0.00  0.00    +0.000 C 
ATOM      5  C   UNL     1       2.615  -1.343   0.059  0.00  0.00    +0.000 C 
ATOM      6  C   UNL     1       3.519  -1.993  -1.023  0.00  0.00    +0.000 C 
ATOM      7  C   UNL     1       4.832  -1.236  -1.019  0.00  0.00    +0.000 C 
ATOM      8  C   UNL     1       4.590  -0.016  -1.522  0.00  0.00    +0.000 C 
ENDBRANCH   1   5
BRANCH   1   9
ATOM      9  O   UNL     1       1.708  -3.402   0.899  0.00  0.00    +0.000 OA
BRANCH   9  10
ATOM     10  C   UNL     1       0.562  -4.197   1.204  0.00  0.00    +0.000 C 
BRANCH  10  11
ATOM     11  C   UNL     1       0.985  -5.519   1.796  0.00  0.00    +0.000 A 
ATOM     12  C   UNL     1       2.061  -5.601   2.692  0.00  0.00    +0.000 A 
ATOM     13  C   UNL     1       2.417  -6.822   3.268  0.00  0.00    +0.000 A 
ATOM     14  C   UNL     1       1.696  -7.974   2.963  0.00  0.00    +0.000 A 
ATOM     15  C   UNL     1       0.616  -7.905   2.085  0.00  0.00    +0.000 A 
ATOM     16  C   UNL     1       0.259  -6.684   1.508  0.00  0.00    +0.000 A 
ENDBRANCH  10  11
ENDBRANCH   9  10
ENDBRANCH   1   9
TORSDOF 4
