REMARK  Name = *****
REMARK  2 active torsions:
REMARK  status: ('A' for Active; 'I' for Inactive)
REMARK    1  A    between atoms: C_3  and  C_8
REMARK    2  A    between atoms: C_9  and  C_10
REMARK                            x       y       z     vdW  Elec       q    Type
REMARK                         _______ _______ _______ _____ _____    ______ ____
ROOT
ATOM      1  C   UNL     1      -1.273  -2.655  -0.287  0.00  0.00    +0.000 C 
ATOM      2  C   UNL     1      -1.791  -3.732  -0.408  0.00  0.00    +0.000 C 
ENDROOT
BRANCH   1   5
ATOM      3  C   UNL     1      -0.841   1.034   0.078  0.00  0.00    +0.000 A 
ATOM      4  C   UNL     1      -1.442  -0.221  -0.060  0.00  0.00    +0.000 A 
ATOM      5  C   UNL     1      -0.654  -1.374  -0.145  0.00  0.00    +0.000 A 
ATOM      6  C   UNL     1       0.736  -1.272  -0.092  0.00  0.00    +0.000 A 
ATOM      7  C   UNL     1       1.323  -0.019   0.045  0.00  0.00    +0.000 A 
ATOM      8  C   UNL     1       0.548   1.134   0.130  0.00  0.00    +0.000 A 
ATOM      9  F   UNL     1       2.658   0.081   0.096  0.00  0.00    +0.000 F 
ENDBRANCH   1   5
BRANCH   2  10
ATOM     10  C   UNL     1      -2.405  -5.016  -0.553  0.00  0.00    +0.000 A 
ATOM     11  C   UNL     1      -1.740  -6.161  -0.116  0.00  0.00    +0.000 A 
ATOM     12  C   UNL     1      -2.350  -7.402  -0.266  0.00  0.00    +0.000 A 
ATOM     13  C   UNL     1      -3.610  -7.520  -0.843  0.00  0.00    +0.000 A 
ATOM     14  C   UNL     1      -4.276  -6.376  -1.281  0.00  0.00    +0.000 A 
ATOM     15  C   UNL     1      -3.673  -5.123  -1.135  0.00  0.00    +0.000 A 
ATOM     16  F   UNL     1      -1.714  -8.503   0.153  0.00  0.00    +0.000 F 
ENDBRANCH   2  10
TORSDOF 2
