REMARK  Name = *****
REMARK  2 active torsions:
REMARK  status: ('A' for Active; 'I' for Inactive)
REMARK    1  A    between atoms: C_3  and  N_9
REMARK    2  A    between atoms: C_10  and  C_11
REMARK                            x       y       z     vdW  Elec       q    Type
REMARK                         _______ _______ _______ _____ _____    ______ ____
ROOT
ATOM      1  C   UNL     1      -3.869  -3.810  -0.067  0.00  0.00    +0.000 A 
ATOM      2  C   UNL     1      -4.014  -4.984   0.672  0.00  0.00    +0.000 A 
ATOM      3  C   UNL     1      -5.167  -5.755   0.554  0.00  0.00    +0.000 A 
ATOM      4  C   UNL     1      -6.182  -5.359  -0.304  0.00  0.00    +0.000 A 
ATOM      5  C   UNL     1      -6.046  -4.193  -1.044  0.00  0.00    +0.000 A 
ATOM      6  C   UNL     1      -4.895  -3.417  -0.930  0.00  0.00    +0.000 A 
ATOM      7  F   UNL     1      -4.804  -2.302  -1.667  0.00  0.00    +0.000 F 
ATOM      8  F   UNL     1      -7.027  -3.813  -1.875  0.00  0.00    +0.000 F 
ATOM      9  F   UNL     1      -7.291  -6.103  -0.419  0.00  0.00    +0.000 F 
ATOM     10  F   UNL     1      -5.292  -6.881   1.268  0.00  0.00    +0.000 F 
ATOM     11  F   UNL     1      -3.043  -5.387   1.505  0.00  0.00    +0.000 F 
ENDROOT
BRANCH   1  13
ATOM     12  N   UNL     1      -2.412  -1.932  -0.533  0.00  0.00    +0.000 NA
ATOM     13  C   UNL     1      -2.630  -3.035   0.105  0.00  0.00    +0.000 C 
BRANCH  12  16
ATOM     14  C   UNL     1       0.770  -0.172  -1.188  0.00  0.00    +0.000 A 
ATOM     15  C   UNL     1      -0.423  -0.874  -1.377  0.00  0.00    +0.000 A 
ATOM     16  C   UNL     1      -1.205  -1.254  -0.281  0.00  0.00    +0.000 A 
ATOM     17  C   UNL     1      -0.775  -0.888   1.006  0.00  0.00    +0.000 A 
ATOM     18  C   UNL     1       0.411  -0.188   1.204  0.00  0.00    +0.000 A 
ATOM     19  C   UNL     1       1.175   0.162   0.100  0.00  0.00    +0.000 A 
ATOM     20  F   UNL     1       2.319   0.835   0.277  0.00  0.00    +0.000 F 
ATOM     21  F   UNL     1      -1.509  -1.218   2.080  0.00  0.00    +0.000 F 
ENDBRANCH  12  16
ENDBRANCH   1  13
TORSDOF 2
