REMARK  Name = *****
REMARK  1 active torsions:
REMARK  status: ('A' for Active; 'I' for Inactive)
REMARK    1  A    between atoms: C_8  and  C_10
REMARK                            x       y       z     vdW  Elec       q    Type
REMARK                         _______ _______ _______ _____ _____    ______ ____
ROOT
ATOM      1  C   UNL     1       2.202   1.000   0.067  0.00  0.00    +0.000 A 
ATOM      2  C   UNL     1       2.440  -0.351  -0.201  0.00  0.00    +0.000 A 
ATOM      3  C   UNL     1       1.370  -1.228  -0.390  0.00  0.00    +0.000 A 
ATOM      4  C   UNL     1       0.065  -0.747  -0.305  0.00  0.00    +0.000 A 
ATOM      5  C   UNL     1      -0.172   0.601  -0.037  0.00  0.00    +0.000 A 
ATOM      6  C   UNL     1       0.894   1.479   0.147  0.00  0.00    +0.000 A 
ATOM      7  S   UNL     1      -1.864   1.126   0.030  0.00  0.00    +0.000 S 
ATOM      8  C   UNL     1      -2.603  -0.561   0.030  0.00  0.00    +0.000 C 
ATOM      9  S   UNL     1      -1.352  -1.786  -0.541  0.00  0.00    +0.000 S 
ENDROOT
BRANCH   8  10
ATOM     10  C   UNL     1      -3.224  -1.002   1.382  0.00  0.00    +0.000 C 
ATOM     11  C   UNL     1      -4.378  -0.128   1.837  0.00  0.00    +0.000 C 
ATOM     12  C   UNL     1      -4.144   0.332   3.076  0.00  0.00    +0.000 C 
ATOM     13  C   UNL     1      -2.878  -0.171   3.545  0.00  0.00    +0.000 C 
ATOM     14  C   UNL     1      -2.323  -0.942   2.599  0.00  0.00    +0.000 C 
ENDBRANCH   8  10
TORSDOF 1
