REMARK  Name = *****
REMARK  1 active torsions:
REMARK  status: ('A' for Active; 'I' for Inactive)
REMARK    1  A    between atoms: C_4  and  C_7
REMARK                            x       y       z     vdW  Elec       q    Type
REMARK                         _______ _______ _______ _____ _____    ______ ____
ROOT
ATOM      1  C   UNL     1      -0.926  -2.801   0.031  0.00  0.00    +0.000 A 
ATOM      2  C   UNL     1      -1.705  -3.311  -1.019  0.00  0.00    +0.000 A 
ATOM      3  C   UNL     1      -2.118  -4.655  -1.029  0.00  0.00    +0.000 A 
ATOM      4  C   UNL     1      -2.903  -5.173  -2.072  0.00  0.00    +0.000 A 
ATOM      5  C   UNL     1      -3.305  -6.510  -2.067  0.00  0.00    +0.000 A 
ATOM      6  C   UNL     1      -2.927  -7.346  -1.021  0.00  0.00    +0.000 A 
ATOM      7  C   UNL     1      -2.147  -6.847   0.023  0.00  0.00    +0.000 A 
ATOM      8  C   UNL     1      -1.735  -5.505   0.034  0.00  0.00    +0.000 A 
ATOM      9  C   UNL     1      -0.953  -4.990   1.079  0.00  0.00    +0.000 A 
ATOM     10  C   UNL     1      -0.553  -3.652   1.077  0.00  0.00    +0.000 A 
ENDROOT
BRANCH   1  14
ATOM     11  C   UNL     1       0.226   1.566  -0.281  0.00  0.00    +0.000 C 
ATOM     12  C   UNL     1      -0.749   1.227   0.832  0.00  0.00    +0.000 C 
ATOM     13  S   UNL     1      -1.713  -0.254   0.442  0.00  0.00    +0.000 S 
ATOM     14  C   UNL     1      -0.479  -1.395   0.027  0.00  0.00    +0.000 C 
ATOM     15  C   UNL     1       0.800  -1.138  -0.296  0.00  0.00    +0.000 C 
ATOM     16  S   UNL     1       1.603   0.392  -0.353  0.00  0.00    +0.000 S 
ENDBRANCH   1  14
TORSDOF 1
