REMARK  Name = *****
REMARK  2 active torsions:
REMARK  status: ('A' for Active; 'I' for Inactive)
REMARK    1  A    between atoms: C_1  and  C_2
REMARK    2  A    between atoms: C_9  and  C_11
REMARK                            x       y       z     vdW  Elec       q    Type
REMARK                         _______ _______ _______ _____ _____    ______ ____
ROOT
ATOM      1  C   UNL     1       1.060   0.116   0.099  0.00  0.00    +0.000 C 
ATOM      2  C   UNL     1       2.561   0.055   0.096  0.00  0.00    +0.000 A 
ATOM      3  C   UNL     1       3.222  -1.189   0.074  0.00  0.00    +0.000 A 
ATOM      4  C   UNL     1       4.623  -1.203   0.067  0.00  0.00    +0.000 A 
ATOM      5  C   UNL     1       5.306  -0.001   0.083  0.00  0.00    +0.000 A 
ATOM      6  C   UNL     1       4.706   1.251   0.105  0.00  0.00    +0.000 A 
ATOM      7  C   UNL     1       3.304   1.251   0.110  0.00  0.00    +0.000 A 
ATOM      8  O   UNL     1       6.640  -0.279   0.073  0.00  0.00    +0.000 OA
ATOM      9  C   UNL     1       6.697  -1.655   0.043  0.00  0.00    +0.000 A 
ATOM     10  N   UNL     1       5.515  -2.244   0.049  0.00  0.00    +0.000 NA
ENDROOT
BRANCH   9  11
ATOM     11  C   UNL     1       8.040  -2.235   0.029  0.00  0.00    +0.000 A 
ATOM     12  C   UNL     1       9.104  -1.521   0.619  0.00  0.00    +0.000 A 
ATOM     13  C   UNL     1      10.402  -2.037   0.646  0.00  0.00    +0.000 A 
ATOM     14  C   UNL     1      10.665  -3.280   0.082  0.00  0.00    +0.000 A 
ATOM     15  C   UNL     1       9.631  -4.003  -0.510  0.00  0.00    +0.000 A 
ATOM     16  C   UNL     1       8.326  -3.488  -0.539  0.00  0.00    +0.000 A 
ATOM     17 CL   UNL     1       7.139  -4.459  -1.342  0.00  0.00    +0.000 Cl
ENDBRANCH   9  11
TORSDOF 1
