REMARK  Name = *****
REMARK  5 active torsions:
REMARK  status: ('A' for Active; 'I' for Inactive)
REMARK    1  A    between atoms: C_1  and  C_2
REMARK    2  A    between atoms: C_2  and  O_8
REMARK    3  A    between atoms: O_8  and  O_9
REMARK    4  A    between atoms: O_9  and  C_10
REMARK    5  A    between atoms: C_10  and  C_12
REMARK                            x       y       z     vdW  Elec       q    Type
REMARK                         _______ _______ _______ _____ _____    ______ ____
ROOT
ATOM      1  O   UNL     1       1.824   1.257   2.151  0.00  0.00    +0.000 OA
ENDROOT
BRANCH   1   2
ATOM      2  C   UNL     1       2.798   0.844   3.010  0.00  0.00    +0.000 C 
ATOM      3  O   UNL     1       3.020  -0.300   3.378  0.00  0.00    +0.000 OA
BRANCH   2   4
ATOM      4  C   UNL     1       3.589   2.015   3.475  0.00  0.00    +0.000 A 
ATOM      5  C   UNL     1       3.507   3.274   2.861  0.00  0.00    +0.000 A 
ATOM      6  C   UNL     1       4.281   4.336   3.335  0.00  0.00    +0.000 A 
ATOM      7  C   UNL     1       5.138   4.149   4.420  0.00  0.00    +0.000 A 
ATOM      8  C   UNL     1       5.226   2.900   5.033  0.00  0.00    +0.000 A 
ATOM      9  C   UNL     1       4.457   1.835   4.561  0.00  0.00    +0.000 A 
ENDBRANCH   2   4
ENDBRANCH   1   2
BRANCH   1  10
ATOM     10  O   UNL     1       1.070   0.072   1.742  0.00  0.00    +0.000 OA
BRANCH  10  12
ATOM     11  C   UNL     1       2.523  -0.090  -0.217  0.00  0.00    +0.000 C 
ATOM     12  C   UNL     1       1.083   0.011   0.304  0.00  0.00    +0.000 C 
ATOM     13  C   UNL     1       0.361   1.233  -0.298  0.00  0.00    +0.000 C 
ATOM     14  C   UNL     1      -1.111   1.296   0.114  0.00  0.00    +0.000 C 
ATOM     15  C   UNL     1      -1.849   0.012  -0.251  0.00  0.00    +0.000 C 
ATOM     16  C   UNL     1      -1.156  -1.220   0.322  0.00  0.00    +0.000 C 
ATOM     17  C   UNL     1       0.320  -1.276  -0.077  0.00  0.00    +0.000 C 
ENDBRANCH  10  12
ENDBRANCH   1  10
TORSDOF 4
