REMARK  Name = *****
REMARK  5 active torsions:
REMARK  status: ('A' for Active; 'I' for Inactive)
REMARK    1  A    between atoms: C_1  and  C_2
REMARK    2  A    between atoms: C_2  and  O_3
REMARK    3  A    between atoms: O_3  and  C_4
REMARK    4  A    between atoms: C_4  and  C_12
REMARK    5  A    between atoms: N_5  and  C_6
REMARK                            x       y       z     vdW  Elec       q    Type
REMARK                         _______ _______ _______ _____ _____    ______ ____
ROOT
ATOM      1  C   UNL     1       4.548  -0.139  -1.720  0.00  0.00    +0.000 C 
ATOM      2  N   UNL     1       5.372  -0.134  -0.720  0.00  0.00    +0.000 NA
ENDROOT
BRANCH   2   3
ATOM      3  C   UNL     1       4.900   0.110   0.577  0.00  0.00    +0.000 A 
ATOM      4  C   UNL     1       4.065  -0.800   1.233  0.00  0.00    +0.000 A 
ATOM      5  C   UNL     1       3.632  -0.553   2.538  0.00  0.00    +0.000 A 
ATOM      6  C   UNL     1       4.046   0.601   3.201  0.00  0.00    +0.000 A 
ATOM      7  C   UNL     1       4.897   1.503   2.564  0.00  0.00    +0.000 A 
ATOM      8  C   UNL     1       5.328   1.251   1.259  0.00  0.00    +0.000 A 
ENDBRANCH   2   3
BRANCH   1   9
ATOM      9  C   UNL     1       4.963  -0.482  -3.106  0.00  0.00    +0.000 A 
ATOM     10  C   UNL     1       6.330  -0.576  -3.399  0.00  0.00    +0.000 A 
ATOM     11  C   UNL     1       6.754  -0.894  -4.691  0.00  0.00    +0.000 A 
ATOM     12  C   UNL     1       5.816  -1.123  -5.697  0.00  0.00    +0.000 A 
ATOM     13  C   UNL     1       4.453  -1.037  -5.413  0.00  0.00    +0.000 A 
ATOM     14  C   UNL     1       4.026  -0.719  -4.121  0.00  0.00    +0.000 A 
ENDBRANCH   1   9
BRANCH   1  15
ATOM     15  O   UNL     1       3.223   0.142  -1.643  0.00  0.00    +0.000 OA
BRANCH  15  17
ATOM     16  C   UNL     1       1.715   1.727  -0.657  0.00  0.00    +0.000 C 
ATOM     17  C   UNL     1       2.917   1.543  -1.561  0.00  0.00    +0.000 C 
ENDBRANCH  15  17
ENDBRANCH   1  15
TORSDOF 4
