REMARK  Name = *****
REMARK  5 active torsions:
REMARK  status: ('A' for Active; 'I' for Inactive)
REMARK    1  A    between atoms: C_1  and  C_2
REMARK    2  A    between atoms: C_7  and  N_8
REMARK    3  A    between atoms: N_8  and  S_9
REMARK    4  A    between atoms: S_9  and  C_10
REMARK    5  A    between atoms: C_15  and  C_16
REMARK                            x       y       z     vdW  Elec       q    Type
REMARK                         _______ _______ _______ _____ _____    ______ ____
ROOT
ATOM      1  N   UNL     1       1.523  -1.212   1.376  0.00  0.00    +0.000 N 
ATOM      2  H   UNL     1       1.804  -1.003   2.297  0.00  0.00    +0.000 HD
ENDROOT
BRANCH   1   9
ATOM      3  C   UNL     1       2.628   0.636  -0.642  0.00  0.00    +0.000 C 
ATOM      4  C   UNL     1       1.157   0.518  -0.352  0.00  0.00    +0.000 A 
ATOM      5  C   UNL     1       0.253   1.287  -1.106  0.00  0.00    +0.000 A 
ATOM      6  C   UNL     1      -1.120   1.206  -0.874  0.00  0.00    +0.000 A 
ATOM      7  C   UNL     1      -1.610   0.349   0.105  0.00  0.00    +0.000 A 
ATOM      8  C   UNL     1      -0.725  -0.431   0.852  0.00  0.00    +0.000 A 
ATOM      9  C   UNL     1       0.662  -0.354   0.639  0.00  0.00    +0.000 A 
ENDBRANCH   1   9
BRANCH   1  10
ATOM     10  S   UNL     1       2.036  -2.609   0.583  0.00  0.00    +0.000 S 
BRANCH  10  11
ATOM     11  C   UNL     1       3.185  -3.223   1.817  0.00  0.00    +0.000 A 
ATOM     12  C   UNL     1       4.295  -2.429   2.147  0.00  0.00    +0.000 A 
ATOM     13  C   UNL     1       5.224  -2.860   3.093  0.00  0.00    +0.000 A 
ATOM     14  C   UNL     1       5.055  -4.091   3.718  0.00  0.00    +0.000 A 
ATOM     15  C   UNL     1       3.958  -4.891   3.397  0.00  0.00    +0.000 A 
ATOM     16  C   UNL     1       3.012  -4.472   2.445  0.00  0.00    +0.000 A 
ATOM     17  C   UNL     1       1.848  -5.372   2.131  0.00  0.00    +0.000 C 
ENDBRANCH  10  11
ENDBRANCH   1  10
TORSDOF 3
