REMARK  Name = *****
REMARK  4 active torsions:
REMARK  status: ('A' for Active; 'I' for Inactive)
REMARK    1  A    between atoms: C_1  and  C_2
REMARK    2  A    between atoms: C_2  and  N_3
REMARK    3  A    between atoms: C_4  and  C_18
REMARK    4  A    between atoms: C_9  and  C_12
REMARK                            x       y       z     vdW  Elec       q    Type
REMARK                         _______ _______ _______ _____ _____    ______ ____
ROOT
ATOM      1  N   UNL     1       2.895   0.967  -1.254  0.00  0.00    +0.000 N 
ATOM      2  C   UNL     1       3.560   0.517  -2.309  0.00  0.00    +0.000 C 
ATOM      3  S   UNL     1       4.047   1.800  -3.330  0.00  0.00    +0.000 S 
ATOM      4  C   UNL     1       3.340   2.980  -2.296  0.00  0.00    +0.000 A 
ATOM      5  C   UNL     1       2.753   2.350  -1.203  0.00  0.00    +0.000 A 
ATOM      6  C   UNL     1       2.116   3.129  -0.215  0.00  0.00    +0.000 A 
ATOM      7  C   UNL     1       2.071   4.531  -0.342  0.00  0.00    +0.000 A 
ATOM      8  C   UNL     1       2.669   5.128  -1.460  0.00  0.00    +0.000 A 
ATOM      9  C   UNL     1       3.311   4.372  -2.448  0.00  0.00    +0.000 A 
ATOM     10  C   UNL     1       3.875  -0.900  -2.632  0.00  0.00    +0.000 C 
ENDROOT
BRANCH   7  11
ATOM     11  C   UNL     1       1.400   5.350   0.679  0.00  0.00    +0.000 A 
ATOM     12  C   UNL     1       1.794   5.292   2.027  0.00  0.00    +0.000 A 
ATOM     13  C   UNL     1       1.152   6.066   2.997  0.00  0.00    +0.000 A 
ATOM     14  C   UNL     1       0.105   6.910   2.635  0.00  0.00    +0.000 A 
ATOM     15  C   UNL     1      -0.298   6.984   1.305  0.00  0.00    +0.000 A 
ATOM     16  C   UNL     1       0.345   6.211   0.334  0.00  0.00    +0.000 A 
ENDBRANCH   7  11
BRANCH   1  18
ATOM     17  C   UNL     1       3.304  -0.079   0.950  0.00  0.00    +0.000 C 
ATOM     18  C   UNL     1       2.348   0.078  -0.221  0.00  0.00    +0.000 C 
ENDBRANCH   1  18
TORSDOF 2
