REMARK  Name = *****
REMARK  2 active torsions:
REMARK  status: ('A' for Active; 'I' for Inactive)
REMARK    1  A    between atoms: C_4  and  C_6
REMARK    2  A    between atoms: C_7  and  C_8
REMARK                            x       y       z     vdW  Elec       q    Type
REMARK                         _______ _______ _______ _____ _____    ______ ____
ROOT
ATOM      1  C   UNL     1       2.251   1.589  -0.013  0.00  0.00    +0.000 C 
ATOM      2  C   UNL     1       3.216   2.305  -0.042  0.00  0.00    +0.000 C 
ENDROOT
BRANCH   2   3
ATOM      3  C   UNL     1       4.368   3.150  -0.080  0.00  0.00    +0.000 A 
ATOM      4  C   UNL     1       4.223   4.538  -0.008  0.00  0.00    +0.000 A 
ATOM      5  C   UNL     1       5.349   5.364  -0.047  0.00  0.00    +0.000 A 
ATOM      6  C   UNL     1       6.620   4.797  -0.158  0.00  0.00    +0.000 A 
ATOM      7  C   UNL     1       6.771   3.412  -0.230  0.00  0.00    +0.000 A 
ATOM      8  C   UNL     1       5.643   2.589  -0.191  0.00  0.00    +0.000 A 
ATOM      9  I   UNL     1       8.296   6.024  -0.217  0.00  0.00    +0.000 I 
ENDBRANCH   2   3
BRANCH   1  13
ATOM     10  C   UNL     1      -1.125   0.084   0.061  0.00  0.00    +0.000 A 
ATOM     11  C   UNL     1      -0.487  -1.137   0.079  0.00  0.00    +0.000 A 
ATOM     12  S   UNL     1       1.216  -0.969   0.054  0.00  0.00    +0.000 S 
ATOM     13  C   UNL     1       1.110   0.736   0.020  0.00  0.00    +0.000 A 
ATOM     14  C   UNL     1      -0.199   1.169   0.028  0.00  0.00    +0.000 A 
ENDBRANCH   1  13
TORSDOF 2
