REMARK  Name = *****
REMARK  2 active torsions:
REMARK  status: ('A' for Active; 'I' for Inactive)
REMARK    1  A    between atoms: C_10  and  C_11
REMARK    2  A    between atoms: C_11  and  C_12
REMARK                            x       y       z     vdW  Elec       q    Type
REMARK                         _______ _______ _______ _____ _____    ______ ____
ROOT
ATOM      1  C   UNL     1       2.523   0.526  -0.326  0.00  0.00    +0.000 C 
ATOM      2  C   UNL     1       2.395  -0.949  -0.066  0.00  0.00    +0.000 C 
ATOM      3  C   UNL     1       1.200  -1.539   0.075  0.00  0.00    +0.000 C 
ATOM      4  C   UNL     1      -0.030  -0.749  -0.048  0.00  0.00    +0.000 A 
ATOM      5  C   UNL     1      -1.264  -1.388  -0.211  0.00  0.00    +0.000 A 
ATOM      6  C   UNL     1      -2.435  -0.637  -0.336  0.00  0.00    +0.000 A 
ATOM      7  C   UNL     1      -2.381   0.755  -0.293  0.00  0.00    +0.000 A 
ATOM      8  C   UNL     1      -1.158   1.403  -0.120  0.00  0.00    +0.000 A 
ATOM      9  C   UNL     1       0.024   0.658   0.004  0.00  0.00    +0.000 A 
ATOM     10  C   UNL     1       1.355   1.355   0.259  0.00  0.00    +0.000 C 
ENDROOT
BRANCH  10  11
ATOM     11  C   UNL     1       1.504   1.610   1.779  0.00  0.00    +0.000 C 
BRANCH  11  12
ATOM     12  C   UNL     1       2.707   2.446   2.153  0.00  0.00    +0.000 A 
ATOM     13  C   UNL     1       2.787   3.794   1.779  0.00  0.00    +0.000 A 
ATOM     14  C   UNL     1       3.903   4.559   2.123  0.00  0.00    +0.000 A 
ATOM     15  C   UNL     1       4.947   3.985   2.847  0.00  0.00    +0.000 A 
ATOM     16  C   UNL     1       4.875   2.648   3.230  0.00  0.00    +0.000 A 
ATOM     17  C   UNL     1       3.760   1.881   2.886  0.00  0.00    +0.000 A 
ENDBRANCH  11  12
ENDBRANCH  10  11
TORSDOF 2
