REMARK  Name = *****
REMARK  1 active torsions:
REMARK  status: ('A' for Active; 'I' for Inactive)
REMARK    1  A    between atoms: C_4  and  P_7
REMARK                            x       y       z     vdW  Elec       q    Type
REMARK                         _______ _______ _______ _____ _____    ______ ____
ROOT
ATOM      1  P   UNL     1      -3.528  -0.206   0.984  0.00  0.00    +0.000 P 
ATOM      2  S   UNL     1      -4.466  -1.877   0.108  0.00  0.00    +0.000 S 
ATOM      3  C   UNL     1      -5.889  -1.008  -0.508  0.00  0.00    +0.000 A 
ATOM      4  C   UNL     1      -7.059  -1.703  -0.828  0.00  0.00    +0.000 A 
ATOM      5  C   UNL     1      -8.166  -1.016  -1.328  0.00  0.00    +0.000 A 
ATOM      6  C   UNL     1      -8.105   0.365  -1.514  0.00  0.00    +0.000 A 
ATOM      7  C   UNL     1      -6.937   1.061  -1.201  0.00  0.00    +0.000 A 
ATOM      8  C   UNL     1      -5.828   0.377  -0.694  0.00  0.00    +0.000 A 
ATOM      9  S   UNL     1      -4.329   1.252  -0.311  0.00  0.00    +0.000 S 
ENDROOT
BRANCH   1  13
ATOM     10  C   UNL     1       0.950  -0.546  -0.256  0.00  0.00    +0.000 A 
ATOM     11  C   UNL     1       0.225  -1.690   0.061  0.00  0.00    +0.000 A 
ATOM     12  C   UNL     1      -1.122  -1.590   0.425  0.00  0.00    +0.000 A 
ATOM     13  C   UNL     1      -1.776  -0.346   0.463  0.00  0.00    +0.000 A 
ATOM     14  C   UNL     1      -1.015   0.798   0.164  0.00  0.00    +0.000 A 
ATOM     15  C   UNL     1       0.332   0.699  -0.200  0.00  0.00    +0.000 A 
ENDBRANCH   1  13
TORSDOF 1
