REMARK  Name = *****
REMARK  5 active torsions:
REMARK  status: ('A' for Active; 'I' for Inactive)
REMARK    1  A    between atoms: C_1  and  C_2
REMARK    2  A    between atoms: C_6  and  C_17
REMARK    3  A    between atoms: C_7  and  C_8
REMARK    4  A    between atoms: C_8  and  S_10
REMARK    5  A    between atoms: S_10  and  C_11
REMARK                            x       y       z     vdW  Elec       q    Type
REMARK                         _______ _______ _______ _____ _____    ______ ____
ROOT
ATOM      1  C   UNL     1       3.158   1.435   1.237  0.00  0.00    +0.000 C 
ATOM      2  O   UNL     1       4.378   1.421   1.334  0.00  0.00    +0.000 OA
ENDROOT
BRANCH   1   9
ATOM      3  C   UNL     1       1.097  -1.104  -0.808  0.00  0.00    +0.000 C 
ATOM      4  C   UNL     1       2.203  -0.598   0.129  0.00  0.00    +0.000 C 
ATOM      5  C   UNL     1       3.535  -1.324  -0.148  0.00  0.00    +0.000 C 
ATOM      6  C   UNL     1       4.327  -0.736  -1.278  0.00  0.00    +0.000 C 
ATOM      7  C   UNL     1       4.076   0.467  -1.814  0.00  0.00    +0.000 C 
ATOM      8  C   UNL     1       2.971   1.374  -1.332  0.00  0.00    +0.000 C 
ATOM      9  C   UNL     1       2.364   0.940   0.027  0.00  0.00    +0.000 C 
ATOM     10  C   UNL     1       3.404   2.843  -1.357  0.00  0.00    +0.000 C 
ENDBRANCH   1   9
BRANCH   1  11
ATOM     11  S   UNL     1       2.164   1.989   2.593  0.00  0.00    +0.000 S 
BRANCH  11  12
ATOM     12  C   UNL     1       2.067   3.725   2.203  0.00  0.00    +0.000 A 
ATOM     13  C   UNL     1       0.815   4.315   1.999  0.00  0.00    +0.000 A 
ATOM     14  C   UNL     1       0.718   5.672   1.687  0.00  0.00    +0.000 A 
ATOM     15  C   UNL     1       1.871   6.448   1.583  0.00  0.00    +0.000 A 
ATOM     16  C   UNL     1       3.121   5.870   1.796  0.00  0.00    +0.000 A 
ATOM     17  C   UNL     1       3.219   4.513   2.110  0.00  0.00    +0.000 A 
ENDBRANCH  11  12
ENDBRANCH   1  11
TORSDOF 3
