REMARK  Name = *****
REMARK  2 active torsions:
REMARK  status: ('A' for Active; 'I' for Inactive)
REMARK    1  A    between atoms: C_4  and  C_7
REMARK    2  A    between atoms: C_7  and  N_8
REMARK                            x       y       z     vdW  Elec       q    Type
REMARK                         _______ _______ _______ _____ _____    ______ ____
ROOT
ATOM      1  N   UNL     1       1.875  -2.448   0.735  0.00  0.00    +0.000 NA
ATOM      2  S   UNL     1       1.783  -2.772   2.362  0.00  0.00    +0.000 S 
ATOM      3  C   UNL     1       2.128  -4.496   2.229  0.00  0.00    +0.000 A 
ATOM      4  C   UNL     1       2.512  -5.350   3.254  0.00  0.00    +0.000 A 
ATOM      5  C   UNL     1       2.777  -6.688   2.952  0.00  0.00    +0.000 A 
ATOM      6  C   UNL     1       2.658  -7.154   1.637  0.00  0.00    +0.000 A 
ATOM      7  C   UNL     1       2.266  -6.286   0.615  0.00  0.00    +0.000 A 
ATOM      8  C   UNL     1       2.001  -4.957   0.927  0.00  0.00    +0.000 A 
ATOM      9  S   UNL     1       1.436  -3.730  -0.244  0.00  0.00    +0.000 S 
ATOM     10  O   UNL     1       2.291  -3.897  -1.464  0.00  0.00    +0.000 OA
ENDROOT
BRANCH   1  11
ATOM     11  C   UNL     1       2.036  -1.099   0.199  0.00  0.00    +0.000 C 
BRANCH  11  15
ATOM     12  C   UNL     1      -1.260   1.643  -0.763  0.00  0.00    +0.000 C 
ATOM     13  C   UNL     1      -1.624   0.255  -0.252  0.00  0.00    +0.000 C 
ATOM     14  C   UNL     1      -0.447  -0.715  -0.349  0.00  0.00    +0.000 C 
ATOM     15  C   UNL     1       0.806  -0.176   0.362  0.00  0.00    +0.000 C 
ATOM     16  C   UNL     1       1.153   1.232  -0.158  0.00  0.00    +0.000 C 
ATOM     17  C   UNL     1      -0.029   2.191  -0.051  0.00  0.00    +0.000 C 
ENDBRANCH  11  15
ENDBRANCH   1  11
TORSDOF 2
