REMARK  Name = *****
REMARK  3 active torsions:
REMARK  status: ('A' for Active; 'I' for Inactive)
REMARK    1  A    between atoms: C_4  and  S_7
REMARK    2  A    between atoms: S_7  and  S_10
REMARK    3  A    between atoms: S_10  and  C_11
REMARK                            x       y       z     vdW  Elec       q    Type
REMARK                         _______ _______ _______ _____ _____    ______ ____
ROOT
ATOM      1  S   UNL     1      -3.191   0.497  -0.415  0.00  0.00    +0.000 S 
ATOM      2  O   UNL     1      -3.593   1.323   0.708  0.00  0.00    +0.000 OA
ATOM      3  O   UNL     1      -3.377   0.942  -1.782  0.00  0.00    +0.000 OA
ENDROOT
BRANCH   1   7
ATOM      4  C   UNL     1       1.234  -0.468   0.103  0.00  0.00    +0.000 A 
ATOM      5  C   UNL     1       0.471  -0.092   1.210  0.00  0.00    +0.000 A 
ATOM      6  C   UNL     1      -0.884   0.200   1.058  0.00  0.00    +0.000 A 
ATOM      7  C   UNL     1      -1.470   0.104  -0.208  0.00  0.00    +0.000 A 
ATOM      8  C   UNL     1      -0.707  -0.257  -1.324  0.00  0.00    +0.000 A 
ATOM      9  C   UNL     1       0.648  -0.548  -1.162  0.00  0.00    +0.000 A 
ENDBRANCH   1   7
BRANCH   1  10
ATOM     10  S   UNL     1      -4.117  -1.370  -0.206  0.00  0.00    +0.000 S 
BRANCH  10  11
ATOM     11  C   UNL     1      -5.815  -0.953  -0.537  0.00  0.00    +0.000 A 
ATOM     12  C   UNL     1      -6.403  -1.343  -1.747  0.00  0.00    +0.000 A 
ATOM     13  C   UNL     1      -7.739  -1.034  -2.010  0.00  0.00    +0.000 A 
ATOM     14  C   UNL     1      -8.483  -0.343  -1.061  0.00  0.00    +0.000 A 
ATOM     15  C   UNL     1      -7.917   0.044   0.147  0.00  0.00    +0.000 A 
ATOM     16  C   UNL     1      -6.581  -0.264   0.412  0.00  0.00    +0.000 A 
ATOM     17  F   UNL     1      -9.765  -0.048  -1.314  0.00  0.00    +0.000 F 
ENDBRANCH  10  11
ENDBRANCH   1  10
TORSDOF 3
