REMARK  Name = *****
REMARK  5 active torsions:
REMARK  status: ('A' for Active; 'I' for Inactive)
REMARK    1  A    between atoms: C_1  and  C_2
REMARK    2  A    between atoms: C_5  and  S_8
REMARK    3  A    between atoms: S_8  and  C_9
REMARK    4  A    between atoms: C_9  and  C_11
REMARK    5  A    between atoms: C_16  and  C_17
REMARK                            x       y       z     vdW  Elec       q    Type
REMARK                         _______ _______ _______ _____ _____    ______ ____
ROOT
ATOM      1  C   UNL     1      -4.303   1.653  -0.073  0.00  0.00    +0.000 C 
ATOM      2  O   UNL     1      -5.491   1.756   0.201  0.00  0.00    +0.000 OA
ENDROOT
BRANCH   1   3
ATOM      3  C   UNL     1      -3.432   2.864  -0.202  0.00  0.00    +0.000 A 
ATOM      4  C   UNL     1      -2.092   2.815   0.226  0.00  0.00    +0.000 A 
ATOM      5  C   UNL     1      -1.275   3.945   0.149  0.00  0.00    +0.000 A 
ATOM      6  C   UNL     1      -1.787   5.140  -0.341  0.00  0.00    +0.000 A 
ATOM      7  C   UNL     1      -3.115   5.208  -0.761  0.00  0.00    +0.000 A 
ATOM      8  C   UNL     1      -3.951   4.078  -0.706  0.00  0.00    +0.000 A 
ATOM      9  C   UNL     1      -5.374   4.221  -1.176  0.00  0.00    +0.000 C 
ENDBRANCH   1   3
BRANCH   1  10
ATOM     10  S   UNL     1      -3.543   0.087  -0.386  0.00  0.00    +0.000 S 
BRANCH  10  15
ATOM     11  C   UNL     1      -7.517  -3.941   1.886  0.00  0.00    +0.000 C 
ATOM     12  C   UNL     1      -6.556  -2.923   1.346  0.00  0.00    +0.000 A 
ATOM     13  C   UNL     1      -6.879  -2.178   0.207  0.00  0.00    +0.000 A 
ATOM     14  C   UNL     1      -5.971  -1.253  -0.316  0.00  0.00    +0.000 A 
ATOM     15  C   UNL     1      -4.728  -1.057   0.293  0.00  0.00    +0.000 A 
ATOM     16  C   UNL     1      -4.394  -1.818   1.417  0.00  0.00    +0.000 A 
ATOM     17  C   UNL     1      -5.300  -2.747   1.939  0.00  0.00    +0.000 A 
ENDBRANCH  10  15
ENDBRANCH   1  10
TORSDOF 3
