REMARK  Name = *****
REMARK  4 active torsions:
REMARK  status: ('A' for Active; 'I' for Inactive)
REMARK    1  A    between atoms: C_1  and  O_2
REMARK    2  A    between atoms: O_2  and  C_3
REMARK    3  A    between atoms: C_3  and  S_10
REMARK    4  A    between atoms: S_10  and  C_11
REMARK                            x       y       z     vdW  Elec       q    Type
REMARK                         _______ _______ _______ _____ _____    ______ ____
ROOT
ATOM      1  C   UNL     1       3.353   0.246   0.879  0.00  0.00    +0.000 C 
ATOM      2  C   UNL     1       2.862   0.132   2.132  0.00  0.00    +0.000 C 
ATOM      3  C   UNL     1       1.593  -0.645   2.429  0.00  0.00    +0.000 C 
ATOM      4  C   UNL     1       0.560   0.251   3.114  0.00  0.00    +0.000 C 
ATOM      5  C   UNL     1       1.126   0.918   4.366  0.00  0.00    +0.000 C 
ATOM      6  C   UNL     1       2.429   1.660   4.069  0.00  0.00    +0.000 C 
ATOM      7  C   UNL     1       3.452   0.753   3.383  0.00  0.00    +0.000 C 
ENDROOT
BRANCH   1   9
ATOM      8  C   UNL     1       3.409  -1.469  -0.693  0.00  0.00    +0.000 C 
ATOM      9  O   UNL     1       2.681  -0.355  -0.177  0.00  0.00    +0.000 OA
ENDBRANCH   1   9
BRANCH   1  10
ATOM     10  S   UNL     1       4.746   1.220   0.482  0.00  0.00    +0.000 S 
BRANCH  10  11
ATOM     11  C   UNL     1       3.977   2.832   0.430  0.00  0.00    +0.000 A 
ATOM     12  C   UNL     1       4.507   3.863   1.215  0.00  0.00    +0.000 A 
ATOM     13  C   UNL     1       3.936   5.138   1.189  0.00  0.00    +0.000 A 
ATOM     14  C   UNL     1       2.837   5.392   0.370  0.00  0.00    +0.000 A 
ATOM     15  C   UNL     1       2.312   4.375  -0.425  0.00  0.00    +0.000 A 
ATOM     16  C   UNL     1       2.883   3.101  -0.399  0.00  0.00    +0.000 A 
ENDBRANCH  10  11
ENDBRANCH   1  10
TORSDOF 3
