REMARK  Name = *****
REMARK  3 active torsions:
REMARK  status: ('A' for Active; 'I' for Inactive)
REMARK    1  A    between atoms: C_4  and  C_7
REMARK    2  A    between atoms: C_7  and  C_8
REMARK    3  A    between atoms: C_9  and  C_10
REMARK                            x       y       z     vdW  Elec       q    Type
REMARK                         _______ _______ _______ _____ _____    ______ ____
ROOT
ATOM      1  C   UNL     1      -3.603  -0.830  -0.256  0.00  0.00    +0.000 C 
ATOM      2  C   UNL     1      -4.932  -0.956  -0.389  0.00  0.00    +0.000 C 
ATOM      3  F   UNL     1      -5.678   0.171  -0.473  0.00  0.00    +0.000 F 
ENDROOT
BRANCH   2   4
ATOM      4  C   UNL     1      -5.658  -2.233  -0.495  0.00  0.00    +0.000 A 
ATOM      5  C   UNL     1      -5.182  -3.428   0.064  0.00  0.00    +0.000 A 
ATOM      6  C   UNL     1      -5.916  -4.613  -0.048  0.00  0.00    +0.000 A 
ATOM      7  C   UNL     1      -7.140  -4.616  -0.714  0.00  0.00    +0.000 A 
ATOM      8  C   UNL     1      -7.633  -3.436  -1.263  0.00  0.00    +0.000 A 
ATOM      9  C   UNL     1      -6.899  -2.252  -1.149  0.00  0.00    +0.000 A 
ENDBRANCH   2   4
BRANCH   1  10
ATOM     10  C   UNL     1      -2.895   0.490  -0.159  0.00  0.00    +0.000 C 
BRANCH  10  14
ATOM     11  C   UNL     1      -0.649   0.812   3.511  0.00  0.00    +0.000 A 
ATOM     12  C   UNL     1       0.004   0.496   2.321  0.00  0.00    +0.000 A 
ATOM     13  C   UNL     1      -0.719   0.395   1.132  0.00  0.00    +0.000 A 
ATOM     14  C   UNL     1      -2.103   0.615   1.121  0.00  0.00    +0.000 A 
ATOM     15  C   UNL     1      -2.751   0.926   2.326  0.00  0.00    +0.000 A 
ATOM     16  C   UNL     1      -2.026   1.026   3.514  0.00  0.00    +0.000 A 
ENDBRANCH  10  14
ENDBRANCH   1  10
TORSDOF 3
