REMARK  Name = *****
REMARK  4 active torsions:
REMARK  status: ('A' for Active; 'I' for Inactive)
REMARK    1  A    between atoms: C_2  and  C_7
REMARK    2  A    between atoms: C_7  and  O_8
REMARK    3  A    between atoms: O_8  and  C_9
REMARK    4  A    between atoms: C_9  and  C_11
REMARK                            x       y       z     vdW  Elec       q    Type
REMARK                         _______ _______ _______ _____ _____    ______ ____
ROOT
ATOM      1  O   UNL     1       1.274  -3.426  -0.831  0.00  0.00    +0.000 OA
ENDROOT
BRANCH   1   2
ATOM      2  C   UNL     1       1.260  -3.977  -2.071  0.00  0.00    +0.000 C 
ATOM      3  O   UNL     1       1.593  -3.406  -3.098  0.00  0.00    +0.000 OA
BRANCH   2   4
ATOM      4  C   UNL     1       0.779  -5.383  -2.021  0.00  0.00    +0.000 A 
ATOM      5  C   UNL     1       0.296  -5.970  -0.843  0.00  0.00    +0.000 A 
ATOM      6  C   UNL     1      -0.148  -7.294  -0.851  0.00  0.00    +0.000 A 
ATOM      7  C   UNL     1      -0.114  -8.037  -2.032  0.00  0.00    +0.000 A 
ATOM      8  C   UNL     1       0.363  -7.458  -3.207  0.00  0.00    +0.000 A 
ATOM      9  C   UNL     1       0.807  -6.135  -3.204  0.00  0.00    +0.000 A 
ENDBRANCH   2   4
ENDBRANCH   1   2
BRANCH   1  10
ATOM     10  C   UNL     1       1.727  -2.062  -0.768  0.00  0.00    +0.000 C 
BRANCH  10  12
ATOM     11  C   UNL     1       1.155   0.341  -1.262  0.00  0.00    +0.000 C 
ATOM     12  C   UNL     1       0.624  -1.080  -1.178  0.00  0.00    +0.000 C 
ATOM     13  S   UNL     1      -0.727  -1.057   0.052  0.00  0.00    +0.000 S 
ATOM     14  C   UNL     1      -1.329   0.531  -0.375  0.00  0.00    +0.000 C 
ATOM     15  O   UNL     1      -2.395   0.964   0.030  0.00  0.00    +0.000 OA
ATOM     16  S   UNL     1      -0.266   1.450  -1.421  0.00  0.00    +0.000 S 
ENDBRANCH  10  12
ENDBRANCH   1  10
TORSDOF 4
