REMARK  Name = *****
REMARK  6 active torsions:
REMARK  status: ('A' for Active; 'I' for Inactive)
REMARK    1  A    between atoms: C_1  and  C_2
REMARK    2  A    between atoms: C_3  and  C_9
REMARK    3  A    between atoms: C_4  and  C_8
REMARK    4  A    between atoms: C_9  and  C_10
REMARK    5  A    between atoms: C_10  and  C_11
REMARK    6  A    between atoms: C_11  and  C_13
REMARK                            x       y       z     vdW  Elec       q    Type
REMARK                         _______ _______ _______ _____ _____    ______ ____
ROOT
ATOM      1  C   UNL     1       0.215   2.545  -0.531  0.00  0.00    +0.000 C 
ENDROOT
BRANCH   1   4
ATOM      2  C   UNL     1       1.422   0.880  -2.708  0.00  0.00    +0.000 C 
ATOM      3  C   UNL     1       0.815   0.255  -1.479  0.00  0.00    +0.000 A 
ATOM      4  C   UNL     1       0.215   1.028  -0.454  0.00  0.00    +0.000 A 
ATOM      5  C   UNL     1      -0.359   0.369   0.663  0.00  0.00    +0.000 A 
ATOM      6  C   UNL     1      -0.335  -1.033   0.730  0.00  0.00    +0.000 A 
ATOM      7  C   UNL     1       0.254  -1.785  -0.281  0.00  0.00    +0.000 A 
ATOM      8  C   UNL     1       0.822  -1.146  -1.377  0.00  0.00    +0.000 A 
ATOM      9  C   UNL     1      -1.039   1.122   1.778  0.00  0.00    +0.000 C 
ENDBRANCH   1   4
BRANCH   1  10
ATOM     10  C   UNL     1       1.470   3.141   0.105  0.00  0.00    +0.000 C 
BRANCH  10  11
ATOM     11  C   UNL     1       1.464   4.658   0.042  0.00  0.00    +0.000 C 
ATOM     12  O   UNL     1       0.410   5.293  -0.004  0.00  0.00    +0.000 OA
BRANCH  11  13
ATOM     13  C   UNL     1       2.828   5.354   0.048  0.00  0.00    +0.000 C 
ATOM     14  C   UNL     1       3.609   5.020   1.325  0.00  0.00    +0.000 C 
ATOM     15  C   UNL     1       4.953   5.741   1.374  0.00  0.00    +0.000 C 
ATOM     16  C   UNL     1       4.795   7.248   1.205  0.00  0.00    +0.000 C 
ATOM     17  C   UNL     1       4.024   7.589  -0.066  0.00  0.00    +0.000 C 
ATOM     18  C   UNL     1       2.676   6.874  -0.113  0.00  0.00    +0.000 C 
ENDBRANCH  11  13
ENDBRANCH  10  11
ENDBRANCH   1  10
TORSDOF 4
