REMARK  Name = *****
REMARK  4 active torsions:
REMARK  status: ('A' for Active; 'I' for Inactive)
REMARK    1  A    between atoms: C_1  and  S_2
REMARK    2  A    between atoms: S_2  and  C_3
REMARK    3  A    between atoms: C_3  and  C_11
REMARK    4  A    between atoms: C_4  and  C_5
REMARK                            x       y       z     vdW  Elec       q    Type
REMARK                         _______ _______ _______ _____ _____    ______ ____
ROOT
ATOM      1  C   UNL     1       3.372  -0.715  -1.593  0.00  0.00    +0.000 C 
ATOM      2  C   UNL     1       2.474  -0.895  -2.579  0.00  0.00    +0.000 C 
ENDROOT
BRANCH   2   3
ATOM      3  C   UNL     1       1.014  -0.761  -2.487  0.00  0.00    +0.000 A 
ATOM      4  C   UNL     1       0.361   0.178  -3.284  0.00  0.00    +0.000 A 
ATOM      5  C   UNL     1      -1.019   0.270  -3.198  0.00  0.00    +0.000 A 
ATOM      6  N   UNL     1      -1.774  -0.504  -2.390  0.00  0.00    +0.000 NA
ATOM      7  C   UNL     1      -1.119  -1.413  -1.637  0.00  0.00    +0.000 A 
ATOM      8  C   UNL     1       0.255  -1.582  -1.654  0.00  0.00    +0.000 A 
ENDBRANCH   2   3
BRANCH   1   9
ATOM      9  C   UNL     1       4.808  -0.900  -1.878  0.00  0.00    +0.000 A 
ATOM     10  C   UNL     1       5.485  -0.006  -2.721  0.00  0.00    +0.000 A 
ATOM     11  C   UNL     1       6.841  -0.188  -3.003  0.00  0.00    +0.000 A 
ATOM     12  C   UNL     1       7.531  -1.264  -2.449  0.00  0.00    +0.000 A 
ATOM     13  C   UNL     1       6.868  -2.161  -1.613  0.00  0.00    +0.000 A 
ATOM     14  C   UNL     1       5.512  -1.982  -1.330  0.00  0.00    +0.000 A 
ENDBRANCH   1   9
BRANCH   1  16
ATOM     15  C   UNL     1       2.960   1.523  -0.121  0.00  0.00    +0.000 C 
ATOM     16  S   UNL     1       2.985  -0.277   0.041  0.00  0.00    +0.000 S 
ENDBRANCH   1  16
TORSDOF 3
