REMARK  Name = *****
REMARK  3 active torsions:
REMARK  status: ('A' for Active; 'I' for Inactive)
REMARK    1  A    between atoms: C_5  and  N_7
REMARK    2  A    between atoms: N_7  and  O_17
REMARK    3  A    between atoms: C_8  and  C_10
REMARK                            x       y       z     vdW  Elec       q    Type
REMARK                         _______ _______ _______ _____ _____    ______ ____
ROOT
ATOM      1  N   UNL     1      -0.362  -2.422  -0.195  0.00  0.00    +0.000 N 
ATOM      2  C   UNL     1       0.286  -3.626   0.079  0.00  0.00    +0.000 C 
ATOM      3  O   UNL     1       1.502  -3.793   0.172  0.00  0.00    +0.000 OA
ENDROOT
BRANCH   1   8
ATOM      4  C   UNL     1       2.065   0.370   0.446  0.00  0.00    +0.000 A 
ATOM      5  C   UNL     1       1.415   1.457  -0.125  0.00  0.00    +0.000 A 
ATOM      6  C   UNL     1       0.184   1.268  -0.747  0.00  0.00    +0.000 A 
ATOM      7  C   UNL     1      -0.404  -0.005  -0.788  0.00  0.00    +0.000 A 
ATOM      8  C   UNL     1       0.229  -1.120  -0.195  0.00  0.00    +0.000 A 
ATOM      9  C   UNL     1       1.481  -0.901   0.406  0.00  0.00    +0.000 A 
ATOM     10 CL   UNL     1      -1.869  -0.126  -1.713  0.00  0.00    +0.000 Cl
ENDBRANCH   1   8
BRANCH   2  11
ATOM     11  C   UNL     1      -0.549  -4.847   0.228  0.00  0.00    +0.000 A 
ATOM     12  C   UNL     1      -1.459  -5.233  -0.764  0.00  0.00    +0.000 A 
ATOM     13  C   UNL     1      -2.200  -6.408  -0.608  0.00  0.00    +0.000 A 
ATOM     14  C   UNL     1      -2.015  -7.199   0.527  0.00  0.00    +0.000 A 
ATOM     15  C   UNL     1      -1.091  -6.832   1.506  0.00  0.00    +0.000 A 
ATOM     16  C   UNL     1      -0.350  -5.657   1.353  0.00  0.00    +0.000 A 
ATOM     17 CL   UNL     1      -2.927  -8.646   0.715  0.00  0.00    +0.000 Cl
ENDBRANCH   2  11
BRANCH   1  18
ATOM     18  O   UNL     1      -1.768  -2.426  -0.019  0.00  0.00    +0.000 OA
ATOM     19  H   UNL     1      -2.123  -1.549  -0.233  0.00  0.00    +0.000 HD
ENDBRANCH   1  18
TORSDOF 3
