REMARK  Name = *****
REMARK  6 active torsions:
REMARK  status: ('A' for Active; 'I' for Inactive)
REMARK    1  A    between atoms: C_1  and  C_2
REMARK    2  A    between atoms: C_5  and  C_8
REMARK    3  A    between atoms: C_8  and  C_9
REMARK    4  A    between atoms: C_8  and  C_12
REMARK    5  A    between atoms: C_9  and  C_10
REMARK    6  A    between atoms: C_12  and  C_13
REMARK                            x       y       z     vdW  Elec       q    Type
REMARK                         _______ _______ _______ _____ _____    ______ ____
ROOT
ATOM      1  C   UNL     1      -3.482   0.214   0.039  0.00  0.00    +0.000 C 
ENDROOT
BRANCH   1   6
ATOM      2  C   UNL     1      -4.956  -2.976   4.724  0.00  0.00    +0.000 C 
ATOM      3  C   UNL     1      -4.525  -2.181   3.528  0.00  0.00    +0.000 A 
ATOM      4  C   UNL     1      -4.614  -2.711   2.237  0.00  0.00    +0.000 A 
ATOM      5  C   UNL     1      -4.260  -1.938   1.127  0.00  0.00    +0.000 A 
ATOM      6  C   UNL     1      -3.816  -0.614   1.279  0.00  0.00    +0.000 A 
ATOM      7  C   UNL     1      -3.706  -0.101   2.579  0.00  0.00    +0.000 A 
ATOM      8  C   UNL     1      -4.068  -0.870   3.688  0.00  0.00    +0.000 A 
ENDBRANCH   1   6
BRANCH   1   9
ATOM      9  C   UNL     1      -2.061  -0.080  -0.471  0.00  0.00    +0.000 C 
BRANCH   9  10
ATOM     10  C   UNL     1      -0.920   0.341   0.425  0.00  0.00    +0.000 C 
ATOM     11  O   UNL     1      -0.978   1.195   1.302  0.00  0.00    +0.000 OA
ENDBRANCH   9  10
ENDBRANCH   1   9
BRANCH   1  12
ATOM     12  C   UNL     1      -3.814   1.719   0.195  0.00  0.00    +0.000 C 
BRANCH  12  13
ATOM     13  C   UNL     1      -3.756   2.535  -1.076  0.00  0.00    +0.000 A 
ATOM     14  C   UNL     1      -4.605   2.256  -2.156  0.00  0.00    +0.000 A 
ATOM     15  C   UNL     1      -4.588   3.061  -3.297  0.00  0.00    +0.000 A 
ATOM     16  C   UNL     1      -3.731   4.158  -3.367  0.00  0.00    +0.000 A 
ATOM     17  C   UNL     1      -2.883   4.445  -2.300  0.00  0.00    +0.000 A 
ATOM     18  C   UNL     1      -2.893   3.637  -1.162  0.00  0.00    +0.000 A 
ENDBRANCH  12  13
ENDBRANCH   1  12
TORSDOF 5
