REMARK  Name = *****
REMARK  2 active torsions:
REMARK  status: ('A' for Active; 'I' for Inactive)
REMARK    1  A    between atoms: C_5  and  C_7
REMARK    2  A    between atoms: C_8  and  C_9
REMARK                            x       y       z     vdW  Elec       q    Type
REMARK                         _______ _______ _______ _____ _____    ______ ____
ROOT
ATOM      1  C   UNL     1       1.667  -1.547   1.359  0.00  0.00    +0.000 C 
ATOM      2  C   UNL     1       2.183  -2.099   2.293  0.00  0.00    +0.000 C 
ENDROOT
BRANCH   1   7
ATOM      3  C   UNL     1       0.294   1.476  -0.501  0.00  0.00    +0.000 C 
ATOM      4  C   UNL     1      -1.158   1.182  -0.120  0.00  0.00    +0.000 C 
ATOM      5  C   UNL     1      -1.424  -0.282   0.068  0.00  0.00    +0.000 C 
ATOM      6  C   UNL     1      -0.447  -1.191   0.211  0.00  0.00    +0.000 C 
ATOM      7  C   UNL     1       1.021  -0.841   0.238  0.00  0.00    +0.000 C 
ATOM      8  C   UNL     1       1.265   0.674   0.363  0.00  0.00    +0.000 C 
ENDBRANCH   1   7
BRANCH   2   9
ATOM      9  C   UNL     1       2.779  -2.731   3.428  0.00  0.00    +0.000 A 
ATOM     10  C   UNL     1       3.563  -1.983   4.310  0.00  0.00    +0.000 A 
ATOM     11  C   UNL     1       4.132  -2.592   5.429  0.00  0.00    +0.000 A 
ATOM     12  C   UNL     1       3.918  -3.949   5.669  0.00  0.00    +0.000 A 
ATOM     13  C   UNL     1       3.137  -4.699   4.788  0.00  0.00    +0.000 A 
ATOM     14  C   UNL     1       2.567  -4.090   3.668  0.00  0.00    +0.000 A 
ENDBRANCH   2   9
TORSDOF 2
