REMARK  Name = *****
REMARK  6 active torsions:
REMARK  status: ('A' for Active; 'I' for Inactive)
REMARK    1  A    between atoms: C_1  and  C_2
REMARK    2  A    between atoms: C_4  and  C_10
REMARK    3  A    between atoms: C_6  and  C_9
REMARK    4  A    between atoms: C_7  and  O_8
REMARK    5  A    between atoms: C_10  and  C_11
REMARK    6  A    between atoms: C_11  and  C_12
REMARK                            x       y       z     vdW  Elec       q    Type
REMARK                         _______ _______ _______ _____ _____    ______ ____
ROOT
ATOM      1  C   UNL     1      -2.582   0.824   0.499  0.00  0.00    +0.000 C 
ATOM      2  C   UNL     1      -1.307   0.058   0.291  0.00  0.00    +0.000 A 
ATOM      3  C   UNL     1      -1.295  -1.337   0.422  0.00  0.00    +0.000 A 
ATOM      4  C   UNL     1      -0.114  -2.065   0.233  0.00  0.00    +0.000 A 
ATOM      5  C   UNL     1       1.064  -1.382  -0.099  0.00  0.00    +0.000 A 
ATOM      6  C   UNL     1       1.081   0.015  -0.235  0.00  0.00    +0.000 A 
ATOM      7  C   UNL     1      -0.115   0.721  -0.035  0.00  0.00    +0.000 A 
ATOM      8  C   UNL     1       2.370   0.699  -0.588  0.00  0.00    +0.000 C 
ENDROOT
BRANCH   7   9
ATOM      9  O   UNL     1      -0.176   2.084  -0.151  0.00  0.00    +0.000 OA
ATOM     10  H   UNL     1      -0.989   2.530  -0.012  0.00  0.00    +0.000 HD
ENDBRANCH   7   9
BRANCH   4  11
ATOM     11  C   UNL     1      -0.119  -3.570   0.354  0.00  0.00    +0.000 C 
BRANCH  11  12
ATOM     12  C   UNL     1      -0.527  -4.241  -0.960  0.00  0.00    +0.000 C 
BRANCH  12  13
ATOM     13  C   UNL     1      -0.493  -5.738  -0.849  0.00  0.00    +0.000 A 
ATOM     14  C   UNL     1       0.554  -6.590  -1.140  0.00  0.00    +0.000 A 
ATOM     15  C   UNL     1       0.219  -7.956  -0.911  0.00  0.00    +0.000 A 
ATOM     16  C   UNL     1      -1.072  -8.100  -0.455  0.00  0.00    +0.000 A 
ATOM     17  S   UNL     1      -1.873  -6.597  -0.307  0.00  0.00    +0.000 S 
ENDBRANCH  12  13
ENDBRANCH  11  12
ENDBRANCH   4  11
TORSDOF 4
