REMARK  Name = *****
REMARK  1 active torsions:
REMARK  status: ('A' for Active; 'I' for Inactive)
REMARK    1  A    between atoms: C_4  and  C_7
REMARK                            x       y       z     vdW  Elec       q    Type
REMARK                         _______ _______ _______ _____ _____    ______ ____
ROOT
ATOM      1  C   UNL     1      -2.766   0.434  -0.062  0.00  0.00    +0.000 A 
ATOM      2  C   UNL     1      -3.509   0.172   1.102  0.00  0.00    +0.000 A 
ATOM      3  C   UNL     1      -4.916   0.264   1.111  0.00  0.00    +0.000 A 
ATOM      4  C   UNL     1      -5.687   0.013   2.243  0.00  0.00    +0.000 A 
ATOM      5  N   UNL     1      -7.035   0.099   2.258  0.00  0.00    +0.000 NA
ATOM      6  N   UNL     1      -7.692   0.448   1.123  0.00  0.00    +0.000 NA
ATOM      7  C   UNL     1      -6.983   0.701   0.001  0.00  0.00    +0.000 A 
ATOM      8  C   UNL     1      -5.594   0.625  -0.060  0.00  0.00    +0.000 A 
ATOM      9  C   UNL     1      -4.861   0.890  -1.228  0.00  0.00    +0.000 A 
ATOM     10  C   UNL     1      -3.466   0.795  -1.224  0.00  0.00    +0.000 A 
ENDROOT
BRANCH   1  14
ATOM     11  C   UNL     1       1.517   0.140  -0.060  0.00  0.00    +0.000 A 
ATOM     12  C   UNL     1       0.745  -0.924   0.398  0.00  0.00    +0.000 A 
ATOM     13  C   UNL     1      -0.650  -0.827   0.397  0.00  0.00    +0.000 A 
ATOM     14  C   UNL     1      -1.296   0.333  -0.061  0.00  0.00    +0.000 A 
ATOM     15  C   UNL     1      -0.497   1.394  -0.519  0.00  0.00    +0.000 A 
ATOM     16  C   UNL     1       0.897   1.299  -0.519  0.00  0.00    +0.000 A 
ENDBRANCH   1  14
TORSDOF 1
