REMARK  Name = *****
REMARK  5 active torsions:
REMARK  status: ('A' for Active; 'I' for Inactive)
REMARK    1  A    between atoms: C_1  and  C_2
REMARK    2  A    between atoms: C_7  and  C_8
REMARK    3  A    between atoms: C_8  and  S_10
REMARK    4  A    between atoms: S_10  and  C_11
REMARK    5  A    between atoms: C_16  and  C_17
REMARK                            x       y       z     vdW  Elec       q    Type
REMARK                         _______ _______ _______ _____ _____    ______ ____
ROOT
ATOM      1  C   UNL     1       0.891  -2.388  -1.859  0.00  0.00    +0.000 C 
ATOM      2  O   UNL     1       0.754  -3.604  -1.877  0.00  0.00    +0.000 OA
ENDROOT
BRANCH   1   9
ATOM      3  C   UNL     1      -1.694  -2.748  -3.269  0.00  0.00    +0.000 C 
ATOM      4  C   UNL     1      -1.490  -1.672  -2.238  0.00  0.00    +0.000 A 
ATOM      5  C   UNL     1      -2.565  -0.831  -1.908  0.00  0.00    +0.000 A 
ATOM      6  C   UNL     1      -2.422   0.172  -0.948  0.00  0.00    +0.000 A 
ATOM      7  C   UNL     1      -1.205   0.344  -0.294  0.00  0.00    +0.000 A 
ATOM      8  C   UNL     1      -0.128  -0.487  -0.598  0.00  0.00    +0.000 A 
ATOM      9  C   UNL     1      -0.260  -1.493  -1.571  0.00  0.00    +0.000 A 
ENDBRANCH   1   9
BRANCH   1  10
ATOM     10  S   UNL     1       2.423  -1.582  -2.197  0.00  0.00    +0.000 S 
BRANCH  10  11
ATOM     11  C   UNL     1       3.384  -2.923  -2.890  0.00  0.00    +0.000 A 
ATOM     12  C   UNL     1       3.353  -3.094  -4.283  0.00  0.00    +0.000 A 
ATOM     13  C   UNL     1       4.096  -4.104  -4.893  0.00  0.00    +0.000 A 
ATOM     14  C   UNL     1       4.882  -4.950  -4.118  0.00  0.00    +0.000 A 
ATOM     15  C   UNL     1       4.927  -4.786  -2.733  0.00  0.00    +0.000 A 
ATOM     16  C   UNL     1       4.185  -3.772  -2.102  0.00  0.00    +0.000 A 
ATOM     17  C   UNL     1       4.265  -3.638  -0.606  0.00  0.00    +0.000 C 
ENDBRANCH  10  11
ENDBRANCH   1  10
TORSDOF 3
