REMARK  Name = *****
REMARK  5 active torsions:
REMARK  status: ('A' for Active; 'I' for Inactive)
REMARK    1  A    between atoms: C_1  and  S_2
REMARK    2  A    between atoms: S_2  and  C_3
REMARK    3  A    between atoms: C_8  and  S_9
REMARK    4  A    between atoms: S_9  and  C_10
REMARK    5  A    between atoms: C_10  and  C_12
REMARK                            x       y       z     vdW  Elec       q    Type
REMARK                         _______ _______ _______ _____ _____    ______ ____
ROOT
ATOM      1  S   UNL     1       2.166  -2.661  -1.590  0.00  0.00    +0.000 S 
ENDROOT
BRANCH   1   7
ATOM      2  C   UNL     1       3.326  -1.546   0.726  0.00  0.00    +0.000 A 
ATOM      3  C   UNL     1       3.998  -1.668   1.953  0.00  0.00    +0.000 A 
ATOM      4  C   UNL     1       4.336  -2.922   2.461  0.00  0.00    +0.000 A 
ATOM      5  C   UNL     1       4.006  -4.070   1.749  0.00  0.00    +0.000 A 
ATOM      6  C   UNL     1       3.345  -3.963   0.524  0.00  0.00    +0.000 A 
ATOM      7  C   UNL     1       3.009  -2.707  -0.007  0.00  0.00    +0.000 A 
BRANCH   2   9
ATOM      8  C   UNL     1       1.312   0.282   0.968  0.00  0.00    +0.000 C 
ATOM      9  S   UNL     1       2.934   0.117   0.178  0.00  0.00    +0.000 S 
ENDBRANCH   2   9
ENDBRANCH   1   7
BRANCH   1  10
ATOM     10  C   UNL     1       3.447  -3.293  -2.620  0.00  0.00    +0.000 C 
ATOM     11  O   UNL     1       3.633  -4.502  -2.696  0.00  0.00    +0.000 OA
BRANCH  10  12
ATOM     12  C   UNL     1       4.298  -2.336  -3.389  0.00  0.00    +0.000 A 
ATOM     13  C   UNL     1       4.021  -0.967  -3.509  0.00  0.00    +0.000 A 
ATOM     14  C   UNL     1       4.870  -0.136  -4.246  0.00  0.00    +0.000 A 
ATOM     15  C   UNL     1       5.998  -0.663  -4.873  0.00  0.00    +0.000 A 
ATOM     16  C   UNL     1       6.280  -2.022  -4.767  0.00  0.00    +0.000 A 
ATOM     17  C   UNL     1       5.434  -2.855  -4.031  0.00  0.00    +0.000 A 
ENDBRANCH  10  12
ENDBRANCH   1  10
TORSDOF 4
