REMARK  Name = *****
REMARK  2 active torsions:
REMARK  status: ('A' for Active; 'I' for Inactive)
REMARK    1  A    between atoms: C_1  and  C_2
REMARK    2  A    between atoms: C_4  and  N_8
REMARK                            x       y       z     vdW  Elec       q    Type
REMARK                         _______ _______ _______ _____ _____    ______ ____
ROOT
ATOM      1  N   UNL     1      -0.864   3.553   1.102  0.00  0.00    +0.000 N 
ATOM      2  C   UNL     1      -0.616   5.004   1.030  0.00  0.00    +0.000 C 
ATOM      3  C   UNL     1      -1.937   5.672   0.767  0.00  0.00    +0.000 A 
ATOM      4  C   UNL     1      -2.146   7.041   0.628  0.00  0.00    +0.000 A 
ATOM      5  C   UNL     1      -3.441   7.503   0.384  0.00  0.00    +0.000 A 
ATOM      6  C   UNL     1      -4.510   6.603   0.281  0.00  0.00    +0.000 A 
ATOM      7  C   UNL     1      -4.293   5.230   0.421  0.00  0.00    +0.000 A 
ATOM      8  C   UNL     1      -3.004   4.781   0.663  0.00  0.00    +0.000 A 
ATOM      9  S   UNL     1      -2.472   3.110   0.876  0.00  0.00    +0.000 S 
ENDROOT
BRANCH   1  13
ATOM     10  C   UNL     1       0.732  -1.142   1.644  0.00  0.00    +0.000 C 
ATOM     11  C   UNL     1       1.021   0.328   1.570  0.00  0.00    +0.000 A 
ATOM     12  C   UNL     1      -0.025   1.247   1.365  0.00  0.00    +0.000 A 
ATOM     13  C   UNL     1       0.183   2.640   1.317  0.00  0.00    +0.000 A 
ATOM     14  C   UNL     1       1.510   3.071   1.502  0.00  0.00    +0.000 A 
ATOM     15  C   UNL     1       2.561   2.172   1.724  0.00  0.00    +0.000 A 
ATOM     16  C   UNL     1       2.317   0.805   1.763  0.00  0.00    +0.000 A 
ENDBRANCH   1  13
TORSDOF 1
