REMARK  Name = *****
REMARK  4 active torsions:
REMARK  status: ('A' for Active; 'I' for Inactive)
REMARK    1  A    between atoms: C_1  and  C_2
REMARK    2  A    between atoms: N_7  and  C_8
REMARK    3  A    between atoms: C_8  and  C_9
REMARK    4  A    between atoms: C_8  and  C_10
REMARK                            x       y       z     vdW  Elec       q    Type
REMARK                         _______ _______ _______ _____ _____    ______ ____
ROOT
ATOM      1  C   UNL     1       4.332  -0.823  -6.368  0.00  0.00    +0.000 C 
ATOM      2  C   UNL     1       3.873  -2.022  -7.204  0.00  0.00    +0.000 C 
ATOM      3  C   UNL     1       2.631  -1.688  -8.048  0.00  0.00    +0.000 C 
ATOM      4  C   UNL     1       1.358  -1.542  -7.213  0.00  0.00    +0.000 C 
ATOM      5  C   UNL     1       1.103  -2.765  -6.336  0.00  0.00    +0.000 C 
ATOM      6  C   UNL     1       2.343  -3.062  -5.520  0.00  0.00    +0.000 C 
ATOM      7  N   UNL     1       2.427  -3.170  -4.241  0.00  0.00    +0.000 NA
ATOM      8  C   UNL     1       3.618  -3.249  -6.323  0.00  0.00    +0.000 C 
ENDROOT
BRANCH   7   9
ATOM      9  C   UNL     1       1.266  -3.015  -3.362  0.00  0.00    +0.000 C 
ATOM     10  C   UNL     1       1.073  -1.528  -3.055  0.00  0.00    +0.000 C 
BRANCH   9  11
ATOM     11  C   UNL     1       1.443  -3.782  -2.058  0.00  0.00    +0.000 A 
ATOM     12  C   UNL     1       0.320  -4.298  -1.391  0.00  0.00    +0.000 A 
ATOM     13  C   UNL     1       0.461  -4.978  -0.179  0.00  0.00    +0.000 A 
ATOM     14  C   UNL     1       1.724  -5.148   0.383  0.00  0.00    +0.000 A 
ATOM     15  C   UNL     1       2.847  -4.637  -0.263  0.00  0.00    +0.000 A 
ATOM     16  C   UNL     1       2.707  -3.955  -1.473  0.00  0.00    +0.000 A 
ENDBRANCH   9  11
ENDBRANCH   7   9
TORSDOF 2
