REMARK  Name = *****
REMARK  3 active torsions:
REMARK  status: ('A' for Active; 'I' for Inactive)
REMARK    1  A    between atoms: C_5  and  C_7
REMARK    2  A    between atoms: C_7  and  C_8
REMARK    3  A    between atoms: C_8  and  C_10
REMARK                            x       y       z     vdW  Elec       q    Type
REMARK                         _______ _______ _______ _____ _____    ______ ____
ROOT
ATOM      1  C   UNL     1       2.871  -1.052   0.116  0.00  0.00    +0.000 C 
ATOM      2  O   UNL     1       3.299  -0.081  -0.505  0.00  0.00    +0.000 OA
ENDROOT
BRANCH   1   3
ATOM      3  C   UNL     1       3.584  -1.478   1.338  0.00  0.00    +0.000 A 
ATOM      4  C   UNL     1       3.754  -0.514   2.342  0.00  0.00    +0.000 A 
ATOM      5  C   UNL     1       4.406  -0.848   3.529  0.00  0.00    +0.000 A 
ATOM      6  C   UNL     1       4.897  -2.140   3.712  0.00  0.00    +0.000 A 
ATOM      7  C   UNL     1       4.746  -3.096   2.704  0.00  0.00    +0.000 A 
ATOM      8  C   UNL     1       4.094  -2.768   1.512  0.00  0.00    +0.000 A 
ATOM      9 CL   UNL     1       4.006  -3.980   0.286  0.00  0.00    +0.000 Cl
ENDBRANCH   1   3
BRANCH   1  10
ATOM     10  C   UNL     1       1.602  -1.790  -0.263  0.00  0.00    +0.000 C 
BRANCH  10  15
ATOM     11  C   UNL     1      -1.138   0.559  -1.500  0.00  0.00    +0.000 A 
ATOM     12  C   UNL     1      -1.795   0.868  -0.308  0.00  0.00    +0.000 A 
ATOM     13  C   UNL     1      -1.350   0.316   0.892  0.00  0.00    +0.000 A 
ATOM     14  C   UNL     1      -0.255  -0.542   0.889  0.00  0.00    +0.000 A 
ATOM     15  C   UNL     1       0.407  -0.873  -0.296  0.00  0.00    +0.000 A 
ATOM     16  C   UNL     1      -0.039  -0.305  -1.496  0.00  0.00    +0.000 A 
ATOM     17  F   UNL     1       0.169  -1.057   2.053  0.00  0.00    +0.000 F 
ENDBRANCH  10  15
ENDBRANCH   1  10
TORSDOF 3
