REMARK  Name = *****
REMARK  1 active torsions:
REMARK  status: ('A' for Active; 'I' for Inactive)
REMARK    1  A    between atoms: C_9  and  C_11
REMARK                            x       y       z     vdW  Elec       q    Type
REMARK                         _______ _______ _______ _____ _____    ______ ____
ROOT
ATOM      1  C   UNL     1       1.183   1.554   0.091  0.00  0.00    +0.000 C 
ATOM      2  C   UNL     1      -0.083   0.743  -0.002  0.00  0.00    +0.000 A 
ATOM      3  C   UNL     1      -1.325   1.395  -0.070  0.00  0.00    +0.000 A 
ATOM      4  C   UNL     1      -2.512   0.663  -0.089  0.00  0.00    +0.000 A 
ATOM      5  C   UNL     1      -2.472  -0.727  -0.025  0.00  0.00    +0.000 A 
ATOM      6  C   UNL     1      -1.245  -1.387   0.057  0.00  0.00    +0.000 A 
ATOM      7  C   UNL     1      -0.045  -0.662   0.065  0.00  0.00    +0.000 A 
ATOM      8  C   UNL     1       1.232  -1.383   0.160  0.00  0.00    +0.000 C 
ATOM      9  C   UNL     1       2.421  -0.841  -0.152  0.00  0.00    +0.000 C 
ATOM     10  S   UNL     1       2.606   0.784  -0.725  0.00  0.00    +0.000 S 
ENDROOT
BRANCH   9  11
ATOM     11  C   UNL     1       3.650  -1.643  -0.062  0.00  0.00    +0.000 A 
ATOM     12  C   UNL     1       4.315  -2.069  -1.221  0.00  0.00    +0.000 A 
ATOM     13  C   UNL     1       5.470  -2.849  -1.130  0.00  0.00    +0.000 A 
ATOM     14  C   UNL     1       5.969  -3.212   0.120  0.00  0.00    +0.000 A 
ATOM     15  C   UNL     1       5.315  -2.798   1.279  0.00  0.00    +0.000 A 
ATOM     16  C   UNL     1       4.160  -2.018   1.190  0.00  0.00    +0.000 A 
ENDBRANCH   9  11
TORSDOF 1
