REMARK  Name = *****
REMARK  2 active torsions:
REMARK  status: ('A' for Active; 'I' for Inactive)
REMARK    1  A    between atoms: C_2  and  C_10
REMARK    2  A    between atoms: N_3  and  C_4
REMARK                            x       y       z     vdW  Elec       q    Type
REMARK                         _______ _______ _______ _____ _____    ______ ____
ROOT
ATOM      1  C   UNL     1      -0.244   0.566   0.222  0.00  0.00    +0.000 C 
ATOM      2  C   UNL     1       0.481  -0.771   0.276  0.00  0.00    +0.000 C 
ATOM      3  N   UNL     1      -0.911  -0.629   0.710  0.00  0.00    +0.000 N 
ENDROOT
BRANCH   2   4
ATOM      4  C   UNL     1       1.522  -1.016   1.335  0.00  0.00    +0.000 A 
ATOM      5  C   UNL     1       1.332  -1.975   2.346  0.00  0.00    +0.000 A 
ATOM      6  C   UNL     1       2.310  -2.207   3.314  0.00  0.00    +0.000 A 
ATOM      7  C   UNL     1       3.502  -1.490   3.298  0.00  0.00    +0.000 A 
ATOM      8  C   UNL     1       3.717  -0.537   2.306  0.00  0.00    +0.000 A 
ATOM      9  C   UNL     1       2.737  -0.308   1.336  0.00  0.00    +0.000 A 
ATOM     10 CL   UNL     1       2.041  -3.389   4.535  0.00  0.00    +0.000 Cl
ENDBRANCH   2   4
BRANCH   3  11
ATOM     11  C   UNL     1      -1.944  -1.213  -0.062  0.00  0.00    +0.000 A 
ATOM     12  C   UNL     1      -1.905  -2.571  -0.409  0.00  0.00    +0.000 A 
ATOM     13  C   UNL     1      -2.945  -3.153  -1.138  0.00  0.00    +0.000 A 
ATOM     14  C   UNL     1      -4.048  -2.388  -1.512  0.00  0.00    +0.000 A 
ATOM     15  C   UNL     1      -4.116  -1.044  -1.148  0.00  0.00    +0.000 A 
ATOM     16  C   UNL     1      -3.074  -0.465  -0.420  0.00  0.00    +0.000 A 
ENDBRANCH   3  11
TORSDOF 2
