REMARK  Name = *****
REMARK  3 active torsions:
REMARK  status: ('A' for Active; 'I' for Inactive)
REMARK    1  A    between atoms: C_1  and  O_2
REMARK    2  A    between atoms: O_2  and  C_3
REMARK    3  A    between atoms: C_9  and  C_13
REMARK                            x       y       z     vdW  Elec       q    Type
REMARK                         _______ _______ _______ _____ _____    ______ ____
ROOT
ATOM      1  C   UNL     1       2.905  -0.518  -0.639  0.00  0.00    +0.000 C 
ATOM      2  C   UNL     1       4.394  -0.545  -0.644  0.00  0.00    +0.000 C 
ATOM      3  C   UNL     1       5.080  -1.296  -1.513  0.00  0.00    +0.000 C 
ATOM      4  C   UNL     1       4.388  -2.121  -2.492  0.00  0.00    +0.000 C 
ATOM      5  C   UNL     1       5.123  -2.864  -3.337  0.00  0.00    +0.000 C 
ATOM      6  C   UNL     1       4.560  -3.724  -4.347  0.00  0.00    +0.000 C 
ATOM      7  C   UNL     1       3.245  -3.869  -4.560  0.00  0.00    +0.000 C 
ATOM      8  S   UNL     1       2.001  -3.062  -3.672  0.00  0.00    +0.000 S 
ATOM      9  C   UNL     1       2.923  -2.121  -2.532  0.00  0.00    +0.000 C 
ATOM     10  C   UNL     1       2.228  -1.367  -1.660  0.00  0.00    +0.000 C 
ENDROOT
BRANCH   7  11
ATOM     11  C   UNL     1       2.777  -4.773  -5.620  0.00  0.00    +0.000 A 
ATOM     12  C   UNL     1       2.419  -6.095  -5.318  0.00  0.00    +0.000 A 
ATOM     13  C   UNL     1       1.994  -6.959  -6.330  0.00  0.00    +0.000 A 
ATOM     14  C   UNL     1       1.928  -6.510  -7.648  0.00  0.00    +0.000 A 
ATOM     15  C   UNL     1       2.288  -5.199  -7.959  0.00  0.00    +0.000 A 
ATOM     16  C   UNL     1       2.713  -4.333  -6.949  0.00  0.00    +0.000 A 
ENDBRANCH   7  11
BRANCH   1  18
ATOM     17  C   UNL     1       0.983   0.324   0.331  0.00  0.00    +0.000 C 
ATOM     18  O   UNL     1       2.349   0.242   0.255  0.00  0.00    +0.000 OA
ENDBRANCH   1  18
TORSDOF 2
