REMARK  Name = *****
REMARK  2 active torsions:
REMARK  status: ('A' for Active; 'I' for Inactive)
REMARK    1  A    between atoms: C_5  and  C_7
REMARK    2  A    between atoms: N_8  and  C_9
REMARK                            x       y       z     vdW  Elec       q    Type
REMARK                         _______ _______ _______ _____ _____    ______ ____
ROOT
ATOM      1  C   UNL     1      -0.633  -2.438  -0.121  0.00  0.00    +0.000 C 
ATOM      2  N   UNL     1      -1.925  -2.381  -0.231  0.00  0.00    +0.000 NA
ENDROOT
BRANCH   1   7
ATOM      3  C   UNL     1       0.289   1.213   0.111  0.00  0.00    +0.000 A 
ATOM      4  C   UNL     1       1.673   1.153   0.248  0.00  0.00    +0.000 A 
ATOM      5  C   UNL     1       2.318  -0.085   0.266  0.00  0.00    +0.000 A 
ATOM      6  C   UNL     1       1.581  -1.270   0.147  0.00  0.00    +0.000 A 
ATOM      7  C   UNL     1       0.189  -1.213   0.009  0.00  0.00    +0.000 A 
ATOM      8  C   UNL     1      -0.452   0.036  -0.008  0.00  0.00    +0.000 A 
ATOM      9 CL   UNL     1       2.467  -2.754   0.185  0.00  0.00    +0.000 Cl
ENDBRANCH   1   7
BRANCH   2  10
ATOM     10  C   UNL     1      -2.615  -3.602  -0.367  0.00  0.00    +0.000 A 
ATOM     11  C   UNL     1      -3.669  -3.867   0.513  0.00  0.00    +0.000 A 
ATOM     12  C   UNL     1      -4.408  -5.050   0.408  0.00  0.00    +0.000 A 
ATOM     13  C   UNL     1      -4.107  -5.979  -0.588  0.00  0.00    +0.000 A 
ATOM     14  C   UNL     1      -3.069  -5.722  -1.483  0.00  0.00    +0.000 A 
ATOM     15  C   UNL     1      -2.338  -4.541  -1.372  0.00  0.00    +0.000 A 
ATOM     16  F   UNL     1      -1.347  -4.318  -2.250  0.00  0.00    +0.000 F 
ENDBRANCH   2  10
TORSDOF 2
