REMARK  Name = *****
REMARK  2 active torsions:
REMARK  status: ('A' for Active; 'I' for Inactive)
REMARK    1  A    between atoms: C_4  and  C_7
REMARK    2  A    between atoms: C_8  and  C_9
REMARK                            x       y       z     vdW  Elec       q    Type
REMARK                         _______ _______ _______ _____ _____    ______ ____
ROOT
ATOM      1  C   UNL     1       2.929   0.189  -0.317  0.00  0.00    +0.000 C 
ATOM      2  C   UNL     1       4.121   0.264  -0.452  0.00  0.00    +0.000 C 
ENDROOT
BRANCH   2   3
ATOM      3  C   UNL     1       5.539   0.354  -0.615  0.00  0.00    +0.000 A 
ATOM      4  C   UNL     1       6.155   1.606  -0.684  0.00  0.00    +0.000 A 
ATOM      5  C   UNL     1       7.535   1.680  -0.844  0.00  0.00    +0.000 A 
ATOM      6  C   UNL     1       8.299   0.522  -0.936  0.00  0.00    +0.000 A 
ATOM      7  C   UNL     1       7.693  -0.729  -0.868  0.00  0.00    +0.000 A 
ATOM      8  C   UNL     1       6.308  -0.813  -0.707  0.00  0.00    +0.000 A 
ATOM      9  F   UNL     1       9.628   0.600  -1.091  0.00  0.00    +0.000 F 
ATOM     10  F   UNL     1       8.124   2.882  -0.910  0.00  0.00    +0.000 F 
ENDBRANCH   2   3
BRANCH   1  14
ATOM     11  C   UNL     1      -1.261  -0.067   0.145  0.00  0.00    +0.000 A 
ATOM     12  C   UNL     1      -0.643   1.181   0.072  0.00  0.00    +0.000 A 
ATOM     13  C   UNL     1       0.743   1.267  -0.081  0.00  0.00    +0.000 A 
ATOM     14  C   UNL     1       1.511   0.102  -0.160  0.00  0.00    +0.000 A 
ATOM     15  C   UNL     1       0.890  -1.147  -0.086  0.00  0.00    +0.000 A 
ATOM     16  C   UNL     1      -0.496  -1.231   0.066  0.00  0.00    +0.000 A 
ENDBRANCH   1  14
TORSDOF 2
