REMARK  Name = *****
REMARK  2 active torsions:
REMARK  status: ('A' for Active; 'I' for Inactive)
REMARK    1  A    between atoms: C_1  and  C_2
REMARK    2  A    between atoms: C_5  and  C_8
REMARK                            x       y       z     vdW  Elec       q    Type
REMARK                         _______ _______ _______ _____ _____    ______ ____
ROOT
ATOM      1  C   UNL     1      -3.955  -0.153   0.137  0.00  0.00    +0.000 C 
ATOM      2  N   UNL     1      -5.040   0.543   0.225  0.00  0.00    +0.000 NA
ATOM      3  C   UNL     1      -6.268  -0.098   0.073  0.00  0.00    +0.000 A 
ATOM      4  C   UNL     1      -7.444   0.637   0.235  0.00  0.00    +0.000 A 
ATOM      5  C   UNL     1      -8.691   0.026   0.094  0.00  0.00    +0.000 A 
ATOM      6  C   UNL     1      -8.766  -1.330  -0.215  0.00  0.00    +0.000 A 
ATOM      7  C   UNL     1      -7.596  -2.071  -0.379  0.00  0.00    +0.000 A 
ATOM      8  C   UNL     1      -6.346  -1.453  -0.230  0.00  0.00    +0.000 A 
ATOM      9  C   UNL     1      -5.076  -2.215  -0.408  0.00  0.00    +0.000 C 
ATOM     10  O   UNL     1      -3.876  -1.479  -0.121  0.00  0.00    +0.000 OA
ENDROOT
BRANCH   1  15
ATOM     11  C   UNL     1       1.269   2.273   0.838  0.00  0.00    +0.000 C 
ATOM     12  C   UNL     1      -0.072   1.627   0.650  0.00  0.00    +0.000 A 
ATOM     13  C   UNL     1      -0.196   0.236   0.570  0.00  0.00    +0.000 A 
ATOM     14  C   UNL     1      -1.452  -0.356   0.399  0.00  0.00    +0.000 A 
ATOM     15  C   UNL     1      -2.602   0.438   0.307  0.00  0.00    +0.000 A 
ATOM     16  C   UNL     1      -2.477   1.830   0.389  0.00  0.00    +0.000 A 
ATOM     17  C   UNL     1      -1.221   2.420   0.558  0.00  0.00    +0.000 A 
ENDBRANCH   1  15
TORSDOF 1
