REMARK  Name = *****
REMARK  1 active torsions:
REMARK  status: ('A' for Active; 'I' for Inactive)
REMARK    1  A    between atoms: C_4  and  C_7
REMARK                            x       y       z     vdW  Elec       q    Type
REMARK                         _______ _______ _______ _____ _____    ______ ____
ROOT
ATOM      1  C   UNL     1      -3.477  -0.285  -0.362  0.00  0.00    +0.000 C 
ATOM      2  C   UNL     1      -4.704  -0.407   0.105  0.00  0.00    +0.000 C 
ATOM      3  C   UNL     1      -5.914  -0.085  -0.281  0.00  0.00    +0.000 A 
ATOM      4  C   UNL     1      -7.164  -0.317   0.399  0.00  0.00    +0.000 A 
ATOM      5  C   UNL     1      -8.298   0.113  -0.194  0.00  0.00    +0.000 A 
ATOM      6  C   UNL     1      -8.295   0.802  -1.492  0.00  0.00    +0.000 A 
ATOM      7  C   UNL     1      -7.159   1.047  -2.181  0.00  0.00    +0.000 A 
ATOM      8  C   UNL     1      -5.911   0.609  -1.604  0.00  0.00    +0.000 A 
ATOM      9  C   UNL     1      -4.701   0.743  -2.085  0.00  0.00    +0.000 C 
ATOM     10  C   UNL     1      -3.491   0.419  -1.690  0.00  0.00    +0.000 C 
ENDROOT
BRANCH   1  14
ATOM     11  C   UNL     1       0.014  -1.613   1.751  0.00  0.00    +0.000 A 
ATOM     12  C   UNL     1      -1.127  -1.240   2.457  0.00  0.00    +0.000 A 
ATOM     13  C   UNL     1      -2.265  -0.807   1.771  0.00  0.00    +0.000 A 
ATOM     14  C   UNL     1      -2.278  -0.735   0.368  0.00  0.00    +0.000 A 
ATOM     15  C   UNL     1      -1.122  -1.122  -0.326  0.00  0.00    +0.000 A 
ATOM     16  C   UNL     1       0.016  -1.556   0.360  0.00  0.00    +0.000 A 
ENDBRANCH   1  14
TORSDOF 1
