REMARK  Name = *****
REMARK  4 active torsions:
REMARK  status: ('A' for Active; 'I' for Inactive)
REMARK    1  A    between atoms: C_4  and  C_7
REMARK    2  A    between atoms: C_7  and  C_17
REMARK    3  A    between atoms: C_8  and  C_9
REMARK    4  A    between atoms: C_8  and  C_11
REMARK                            x       y       z     vdW  Elec       q    Type
REMARK                         _______ _______ _______ _____ _____    ______ ____
ROOT
ATOM      1  C   UNL     1      -2.828   0.500  -0.260  0.00  0.00    +0.000 C 
ATOM      2  C   UNL     1      -3.324   1.760  -0.333  0.00  0.00    +0.000 C 
ENDROOT
BRANCH   1   6
ATOM      3  C   UNL     1       1.278  -0.547   0.331  0.00  0.00    +0.000 A 
ATOM      4  C   UNL     1       0.442  -0.346   1.427  0.00  0.00    +0.000 A 
ATOM      5  C   UNL     1      -0.891   0.019   1.231  0.00  0.00    +0.000 A 
ATOM      6  C   UNL     1      -1.397   0.186  -0.066  0.00  0.00    +0.000 A 
ATOM      7  C   UNL     1      -0.549  -0.010  -1.163  0.00  0.00    +0.000 A 
ATOM      8  C   UNL     1       0.785  -0.376  -0.963  0.00  0.00    +0.000 A 
ENDBRANCH   1   6
BRANCH   2   9
ATOM      9  C   UNL     1      -4.771   2.034  -0.458  0.00  0.00    +0.000 A 
ATOM     10  C   UNL     1      -5.550   2.161   0.702  0.00  0.00    +0.000 A 
ATOM     11  C   UNL     1      -6.916   2.427   0.605  0.00  0.00    +0.000 A 
ATOM     12  C   UNL     1      -7.510   2.570  -0.647  0.00  0.00    +0.000 A 
ATOM     13  C   UNL     1      -6.742   2.446  -1.805  0.00  0.00    +0.000 A 
ATOM     14  C   UNL     1      -5.374   2.179  -1.714  0.00  0.00    +0.000 A 
ENDBRANCH   2   9
BRANCH   2  15
ATOM     15  C   UNL     1      -2.458   2.987  -0.275  0.00  0.00    +0.000 C 
ATOM     16  O   UNL     1      -1.290   3.026   0.080  0.00  0.00    +0.000 OA
ENDBRANCH   2  15
BRANCH   1  17
ATOM     17  C   UNL     1      -3.755  -0.680  -0.361  0.00  0.00    +0.000 C 
ATOM     18  O   UNL     1      -3.374  -1.844  -0.308  0.00  0.00    +0.000 OA
ENDBRANCH   1  17
TORSDOF 4
