REMARK  Name = *****
REMARK  5 active torsions:
REMARK  status: ('A' for Active; 'I' for Inactive)
REMARK    1  A    between atoms: C_1  and  C_2
REMARK    2  A    between atoms: C_4  and  C_17
REMARK    3  A    between atoms: C_6  and  O_8
REMARK    4  A    between atoms: O_8  and  C_9
REMARK    5  A    between atoms: C_9  and  C_10
REMARK                            x       y       z     vdW  Elec       q    Type
REMARK                         _______ _______ _______ _____ _____    ______ ____
ROOT
ATOM      1  C   UNL     1       5.918  -2.240   1.198  0.00  0.00    +0.000 C 
ATOM      2  C   UNL     1       5.087  -1.167   0.561  0.00  0.00    +0.000 A 
ATOM      3  C   UNL     1       3.816  -1.459   0.082  0.00  0.00    +0.000 A 
ATOM      4  C   UNL     1       3.074  -0.433  -0.504  0.00  0.00    +0.000 A 
ATOM      5  C   UNL     1       3.615   0.845  -0.595  0.00  0.00    +0.000 A 
ATOM      6  C   UNL     1       4.885   1.044  -0.092  0.00  0.00    +0.000 A 
ATOM      7  N   UNL     1       5.626   0.071   0.480  0.00  0.00    +0.000 NA
ENDROOT
BRANCH   4   8
ATOM      8  C   UNL     1       1.759  -0.696  -1.008  0.00  0.00    +0.000 C 
ATOM      9  N   UNL     1       0.695  -0.915  -1.413  0.00  0.00    +0.000 NA
ENDBRANCH   4   8
BRANCH   6  10
ATOM     10  O   UNL     1       5.389   2.322  -0.197  0.00  0.00    +0.000 OA
BRANCH  10  11
ATOM     11  C   UNL     1       6.700   2.452   0.350  0.00  0.00    +0.000 C 
BRANCH  11  12
ATOM     12  C   UNL     1       7.122   3.892   0.184  0.00  0.00    +0.000 A 
ATOM     13  C   UNL     1       7.859   4.294  -0.940  0.00  0.00    +0.000 A 
ATOM     14  C   UNL     1       8.226   5.631  -1.095  0.00  0.00    +0.000 A 
ATOM     15  C   UNL     1       7.859   6.581  -0.145  0.00  0.00    +0.000 A 
ATOM     16  C   UNL     1       7.114   6.194   0.968  0.00  0.00    +0.000 A 
ATOM     17  C   UNL     1       6.744   4.857   1.130  0.00  0.00    +0.000 A 
ATOM     18 CL   UNL     1       9.138   6.111  -2.474  0.00  0.00    +0.000 Cl
ENDBRANCH  11  12
ENDBRANCH  10  11
ENDBRANCH   6  10
TORSDOF 4
