REMARK  Name = *****
REMARK  6 active torsions:
REMARK  status: ('A' for Active; 'I' for Inactive)
REMARK    1  A    between atoms: C_1  and  C_2
REMARK    2  A    between atoms: C_5  and  S_8
REMARK    3  A    between atoms: S_8  and  C_9
REMARK    4  A    between atoms: C_9  and  C_10
REMARK    5  A    between atoms: C_13  and  O_16
REMARK    6  A    between atoms: O_16  and  C_17
REMARK                            x       y       z     vdW  Elec       q    Type
REMARK                         _______ _______ _______ _____ _____    ______ ____
ROOT
ATOM      1  C   UNL     1      -4.041   1.569   0.166  0.00  0.00    +0.000 C 
ENDROOT
BRANCH   1   2
ATOM      2  C   UNL     1      -2.947   2.569  -0.111  0.00  0.00    +0.000 A 
ATOM      3  C   UNL     1      -1.907   2.262  -0.999  0.00  0.00    +0.000 A 
ATOM      4  C   UNL     1      -0.885   3.184  -1.252  0.00  0.00    +0.000 A 
ATOM      5  C   UNL     1      -0.887   4.425  -0.616  0.00  0.00    +0.000 A 
ATOM      6  C   UNL     1      -1.916   4.732   0.276  0.00  0.00    +0.000 A 
ATOM      7  C   UNL     1      -2.937   3.813   0.531  0.00  0.00    +0.000 A 
BRANCH   5   8
ATOM      8  O   UNL     1       0.046   5.413  -0.774  0.00  0.00    +0.000 OA
ATOM      9  C   UNL     1       1.128   5.139  -1.656  0.00  0.00    +0.000 C 
ENDBRANCH   5   8
ENDBRANCH   1   2
BRANCH   1  10
ATOM     10  S   UNL     1      -3.620   0.495   1.578  0.00  0.00    +0.000 S 
BRANCH  10  15
ATOM     11  C   UNL     1      -8.123  -3.599   1.219  0.00  0.00    +0.000 C 
ATOM     12  C   UNL     1      -7.022  -2.587   1.337  0.00  0.00    +0.000 A 
ATOM     13  C   UNL     1      -7.319  -1.227   1.478  0.00  0.00    +0.000 A 
ATOM     14  C   UNL     1      -6.293  -0.281   1.557  0.00  0.00    +0.000 A 
ATOM     15  C   UNL     1      -4.956  -0.680   1.475  0.00  0.00    +0.000 A 
ATOM     16  C   UNL     1      -4.658  -2.038   1.334  0.00  0.00    +0.000 A 
ATOM     17  C   UNL     1      -5.683  -2.984   1.255  0.00  0.00    +0.000 A 
ENDBRANCH  10  15
ENDBRANCH   1  10
TORSDOF 4
