REMARK  Name = *****
REMARK  5 active torsions:
REMARK  status: ('A' for Active; 'I' for Inactive)
REMARK    1  A    between atoms: C_1  and  C_2
REMARK    2  A    between atoms: C_2  and  C_3
REMARK    3  A    between atoms: C_2  and  O_9
REMARK    4  A    between atoms: O_9  and  C_10
REMARK    5  A    between atoms: C_10  and  C_12
REMARK                            x       y       z     vdW  Elec       q    Type
REMARK                         _______ _______ _______ _____ _____    ______ ____
ROOT
ATOM      1  O   UNL     1       3.038   0.206  -1.325  0.00  0.00    +0.000 OA
ENDROOT
BRANCH   1   3
ATOM      2  C   UNL     1       0.938   0.108  -0.105  0.00  0.00    +0.000 C 
ATOM      3  C   UNL     1       2.463   0.071  -0.012  0.00  0.00    +0.000 C 
BRANCH   3   4
ATOM      4  C   UNL     1       2.936  -1.248   0.571  0.00  0.00    +0.000 A 
ATOM      5  C   UNL     1       2.881  -2.437  -0.174  0.00  0.00    +0.000 A 
ATOM      6  C   UNL     1       3.305  -3.646   0.380  0.00  0.00    +0.000 A 
ATOM      7  C   UNL     1       3.787  -3.683   1.687  0.00  0.00    +0.000 A 
ATOM      8  C   UNL     1       3.844  -2.512   2.440  0.00  0.00    +0.000 A 
ATOM      9  C   UNL     1       3.420  -1.302   1.887  0.00  0.00    +0.000 A 
ENDBRANCH   3   4
ENDBRANCH   1   3
BRANCH   1  10
ATOM     10  C   UNL     1       3.163   1.471  -1.789  0.00  0.00    +0.000 C 
ATOM     11  O   UNL     1       2.816   2.487  -1.207  0.00  0.00    +0.000 OA
BRANCH  10  12
ATOM     12  C   UNL     1       3.782   1.470  -3.142  0.00  0.00    +0.000 A 
ATOM     13  C   UNL     1       3.892   2.691  -3.821  0.00  0.00    +0.000 A 
ATOM     14  C   UNL     1       4.464   2.741  -5.093  0.00  0.00    +0.000 A 
ATOM     15  C   UNL     1       4.931   1.573  -5.694  0.00  0.00    +0.000 A 
ATOM     16  C   UNL     1       4.828   0.354  -5.025  0.00  0.00    +0.000 A 
ATOM     17  C   UNL     1       4.256   0.299  -3.751  0.00  0.00    +0.000 A 
ENDBRANCH  10  12
ENDBRANCH   1  10
TORSDOF 4
