REMARK  Name = *****
REMARK  4 active torsions:
REMARK  status: ('A' for Active; 'I' for Inactive)
REMARK    1  A    between atoms: C_2  and  C_3
REMARK    2  A    between atoms: C_3  and  C_4
REMARK    3  A    between atoms: C_3  and  S_10
REMARK    4  A    between atoms: S_10  and  C_11
REMARK                            x       y       z     vdW  Elec       q    Type
REMARK                         _______ _______ _______ _____ _____    ______ ____
ROOT
ATOM      1  C   UNL     1       3.883  -0.065   0.047  0.00  0.00    +0.000 C 
ENDROOT
BRANCH   1   2
ATOM      2  C   UNL     1       4.442   0.932  -0.956  0.00  0.00    +0.000 A 
ATOM      3  C   UNL     1       4.048   2.282  -0.953  0.00  0.00    +0.000 A 
ATOM      4  C   UNL     1       4.580   3.184  -1.876  0.00  0.00    +0.000 A 
ATOM      5  C   UNL     1       5.515   2.753  -2.814  0.00  0.00    +0.000 A 
ATOM      6  C   UNL     1       5.921   1.421  -2.829  0.00  0.00    +0.000 A 
ATOM      7  C   UNL     1       5.391   0.516  -1.906  0.00  0.00    +0.000 A 
ENDBRANCH   1   2
BRANCH   1   9
ATOM      8  C   UNL     1       1.059  -0.065   0.047  0.00  0.00    +0.000 C 
ATOM      9  C   UNL     1       2.363  -0.065   0.047  0.00  0.00    +0.000 C 
ENDBRANCH   1   9
BRANCH   1  10
ATOM     10  S   UNL     1       4.551   0.272   1.731  0.00  0.00    +0.000 S 
BRANCH  10  11
ATOM     11  C   UNL     1       3.977  -1.181   2.590  0.00  0.00    +0.000 A 
ATOM     12  C   UNL     1       4.527  -2.440   2.326  0.00  0.00    +0.000 A 
ATOM     13  C   UNL     1       4.070  -3.565   3.014  0.00  0.00    +0.000 A 
ATOM     14  C   UNL     1       3.068  -3.437   3.975  0.00  0.00    +0.000 A 
ATOM     15  C   UNL     1       2.526  -2.183   4.253  0.00  0.00    +0.000 A 
ATOM     16  C   UNL     1       2.983  -1.057   3.565  0.00  0.00    +0.000 A 
ENDBRANCH  10  11
ENDBRANCH   1  10
TORSDOF 4
