REMARK  Name = *****
REMARK  3 active torsions:
REMARK  status: ('A' for Active; 'I' for Inactive)
REMARK    1  A    between atoms: C_4  and  C_7
REMARK    2  A    between atoms: C_7  and  S_8
REMARK    3  A    between atoms: S_8  and  C_9
REMARK                            x       y       z     vdW  Elec       q    Type
REMARK                         _______ _______ _______ _____ _____    ______ ____
ROOT
ATOM      1  C   UNL     1      -2.948   0.259  -0.182  0.00  0.00    +0.000 C 
ENDROOT
BRANCH   1   5
ATOM      2  C   UNL     1       1.338  -0.144   0.106  0.00  0.00    +0.000 A 
ATOM      3  C   UNL     1       0.551  -1.256  -0.191  0.00  0.00    +0.000 A 
ATOM      4  C   UNL     1      -0.835  -1.126  -0.286  0.00  0.00    +0.000 A 
ATOM      5  C   UNL     1      -1.449   0.120  -0.090  0.00  0.00    +0.000 A 
ATOM      6  C   UNL     1      -0.647   1.230   0.217  0.00  0.00    +0.000 A 
ATOM      7  C   UNL     1       0.739   1.098   0.311  0.00  0.00    +0.000 A 
ENDBRANCH   1   5
BRANCH   1   8
ATOM      8  S   UNL     1      -3.744  -0.089   1.416  0.00  0.00    +0.000 S 
BRANCH   8   9
ATOM      9  C   UNL     1      -5.363   0.444   1.116  0.00  0.00    +0.000 A 
ATOM     10  C   UNL     1      -5.982   1.266   1.973  0.00  0.00    +0.000 A 
ATOM     11  S   UNL     1      -7.617   1.722   1.624  0.00  0.00    +0.000 S 
ATOM     12  C   UNL     1      -7.769   0.776   0.146  0.00  0.00    +0.000 A 
ATOM     13  S   UNL     1      -9.150   0.728  -0.785  0.00  0.00    +0.000 S 
ATOM     14  S   UNL     1      -6.296  -0.104  -0.246  0.00  0.00    +0.000 S 
ENDBRANCH   8   9
ENDBRANCH   1   8
TORSDOF 3
