REMARK  Name = *****
REMARK  2 active torsions:
REMARK  status: ('A' for Active; 'I' for Inactive)
REMARK    1  A    between atoms: C_4  and  C_7
REMARK    2  A    between atoms: C_8  and  C_9
REMARK                            x       y       z     vdW  Elec       q    Type
REMARK                         _______ _______ _______ _____ _____    ______ ____
ROOT
ATOM      1  C   UNL     1      -2.810   0.442  -0.310  0.00  0.00    +0.000 C 
ATOM      2  C   UNL     1      -3.725  -0.535  -0.422  0.00  0.00    +0.000 C 
ENDROOT
BRANCH   2   3
ATOM      3  C   UNL     1      -5.164  -0.293  -0.595  0.00  0.00    +0.000 A 
ATOM      4  C   UNL     1      -5.657   0.747  -1.391  0.00  0.00    +0.000 A 
ATOM      5  C   UNL     1      -7.031   0.913  -1.546  0.00  0.00    +0.000 A 
ATOM      6  C   UNL     1      -7.933   0.053  -0.932  0.00  0.00    +0.000 A 
ATOM      7  C   UNL     1      -7.455  -0.996  -0.151  0.00  0.00    +0.000 A 
ATOM      8  C   UNL     1      -6.077  -1.171   0.011  0.00  0.00    +0.000 A 
ATOM      9  F   UNL     1      -7.490   1.915  -2.307  0.00  0.00    +0.000 F 
ENDBRANCH   2   3
BRANCH   1  13
ATOM     10  C   UNL     1       1.388  -0.167   0.242  0.00  0.00    +0.000 A 
ATOM     11  C   UNL     1       0.678  -1.012  -0.608  0.00  0.00    +0.000 A 
ATOM     12  C   UNL     1      -0.695  -0.829  -0.792  0.00  0.00    +0.000 A 
ATOM     13  C   UNL     1      -1.374   0.195  -0.118  0.00  0.00    +0.000 A 
ATOM     14  C   UNL     1      -0.646   1.049   0.721  0.00  0.00    +0.000 A 
ATOM     15  C   UNL     1       0.727   0.865   0.905  0.00  0.00    +0.000 A 
ENDBRANCH   1  13
TORSDOF 2
