REMARK  Name = *****
REMARK  7 active torsions:
REMARK  status: ('A' for Active; 'I' for Inactive)
REMARK    1  A    between atoms: C_1  and  C_2
REMARK    2  A    between atoms: C_4  and  C_19
REMARK    3  A    between atoms: C_5  and  N_9
REMARK    4  A    between atoms: C_6  and  C_8
REMARK    5  A    between atoms: N_9  and  S_10
REMARK    6  A    between atoms: S_10  and  C_12
REMARK    7  A    between atoms: S_10  and  C_13
REMARK                            x       y       z     vdW  Elec       q    Type
REMARK                         _______ _______ _______ _____ _____    ______ ____
ROOT
ATOM      1  N   UNL     1      -1.773  -2.219  -0.286  0.00  0.00    +0.000 NA
ENDROOT
BRANCH   1   6
ATOM      2  C   UNL     1       2.015   2.084   0.263  0.00  0.00    +0.000 C 
ATOM      3  C   UNL     1       1.049   0.942   0.139  0.00  0.00    +0.000 A 
ATOM      4  C   UNL     1       1.500  -0.357  -0.110  0.00  0.00    +0.000 A 
ATOM      5  C   UNL     1       0.599  -1.427  -0.281  0.00  0.00    +0.000 A 
ATOM      6  C   UNL     1      -0.783  -1.191  -0.147  0.00  0.00    +0.000 A 
ATOM      7  C   UNL     1      -1.247   0.125   0.075  0.00  0.00    +0.000 A 
ATOM      8  C   UNL     1      -0.325   1.177   0.209  0.00  0.00    +0.000 A 
ATOM      9  C   UNL     1      -2.717   0.450   0.119  0.00  0.00    +0.000 C 
ATOM     10  C   UNL     1       1.181  -2.773  -0.611  0.00  0.00    +0.000 C 
ENDBRANCH   1   6
BRANCH   1  11
ATOM     11  S   UNL     1      -1.846  -3.452   0.644  0.00  0.00    +0.000 S 
ATOM     12  O   UNL     1      -0.905  -4.557   0.650  0.00  0.00    +0.000 OA
ATOM     13  C   UNL     1      -1.984  -2.881   2.324  0.00  0.00    +0.000 C 
BRANCH  11  14
ATOM     14  C   UNL     1      -3.461  -4.185   0.383  0.00  0.00    +0.000 A 
ATOM     15  C   UNL     1      -4.488  -3.441  -0.205  0.00  0.00    +0.000 A 
ATOM     16  C   UNL     1      -5.742  -4.026  -0.389  0.00  0.00    +0.000 A 
ATOM     17  C   UNL     1      -5.964  -5.345   0.009  0.00  0.00    +0.000 A 
ATOM     18  C   UNL     1      -4.932  -6.088   0.585  0.00  0.00    +0.000 A 
ATOM     19  C   UNL     1      -3.675  -5.512   0.770  0.00  0.00    +0.000 A 
ENDBRANCH  11  14
ENDBRANCH   1  11
TORSDOF 3
