REMARK  Name = *****
REMARK  1 active torsions:
REMARK  status: ('A' for Active; 'I' for Inactive)
REMARK    1  A    between atoms: C_9  and  C_11
REMARK                            x       y       z     vdW  Elec       q    Type
REMARK                         _______ _______ _______ _____ _____    ______ ____
ROOT
ATOM      1  C   UNL     1      -2.679   0.693   0.597  0.00  0.00    +0.000 C 
ATOM      2  C   UNL     1      -2.726  -0.668  -0.086  0.00  0.00    +0.000 C 
ATOM      3  C   UNL     1      -1.449  -1.464   0.169  0.00  0.00    +0.000 C 
ATOM      4  C   UNL     1      -0.204  -0.674  -0.257  0.00  0.00    +0.000 C 
ATOM      5  C   UNL     1      -0.144   0.697   0.435  0.00  0.00    +0.000 C 
ATOM      6  C   UNL     1      -1.442   1.484   0.183  0.00  0.00    +0.000 C 
ATOM      7  C   UNL     1       1.060   1.528  -0.031  0.00  0.00    +0.000 C 
ATOM      8  C   UNL     1       2.410   0.836   0.184  0.00  0.00    +0.000 C 
ATOM      9  C   UNL     1       2.574  -0.536  -0.497  0.00  0.00    +0.000 C 
ATOM     10  S   UNL     1       1.274  -1.662   0.153  0.00  0.00    +0.000 S 
ENDROOT
BRANCH   9  11
ATOM     11  C   UNL     1       2.683  -0.570  -2.021  0.00  0.00    +0.000 A 
ATOM     12  C   UNL     1       2.812   0.588  -2.805  0.00  0.00    +0.000 A 
ATOM     13  C   UNL     1       2.944   0.513  -4.196  0.00  0.00    +0.000 A 
ATOM     14  C   UNL     1       2.971  -0.723  -4.833  0.00  0.00    +0.000 A 
ATOM     15  C   UNL     1       2.879  -1.886  -4.078  0.00  0.00    +0.000 A 
ATOM     16  C   UNL     1       2.747  -1.810  -2.689  0.00  0.00    +0.000 A 
ENDBRANCH   9  11
TORSDOF 1
