REMARK  Name = *****
REMARK  6 active torsions:
REMARK  status: ('A' for Active; 'I' for Inactive)
REMARK    1  A    between atoms: C_1  and  C_2
REMARK    2  A    between atoms: C_4  and  C_17
REMARK    3  A    between atoms: C_6  and  O_8
REMARK    4  A    between atoms: O_8  and  C_9
REMARK    5  A    between atoms: C_9  and  C_10
REMARK    6  A    between atoms: C_9  and  C_11
REMARK                            x       y       z     vdW  Elec       q    Type
REMARK                         _______ _______ _______ _____ _____    ______ ____
ROOT
ATOM      1  O   UNL     1       1.603  -3.469   1.238  0.00  0.00    +0.000 OA
ENDROOT
BRANCH   1   7
ATOM      2  C   UNL     1       3.733  -0.403   4.310  0.00  0.00    +0.000 C 
ATOM      3  C   UNL     1       2.859  -0.624   3.112  0.00  0.00    +0.000 A 
ATOM      4  C   UNL     1       2.352   0.461   2.390  0.00  0.00    +0.000 A 
ATOM      5  C   UNL     1       1.566   0.254   1.249  0.00  0.00    +0.000 A 
ATOM      6  C   UNL     1       1.280  -1.057   0.836  0.00  0.00    +0.000 A 
ATOM      7  C   UNL     1       1.798  -2.149   1.533  0.00  0.00    +0.000 A 
ATOM      8  C   UNL     1       2.585  -1.923   2.666  0.00  0.00    +0.000 A 
ATOM      9  C   UNL     1       0.984   1.421   0.506  0.00  0.00    +0.000 C 
ENDBRANCH   1   7
BRANCH   1  10
ATOM     10  C   UNL     1       1.013  -3.829  -0.017  0.00  0.00    +0.000 C 
ATOM     11  C   UNL     1      -0.506  -3.924   0.130  0.00  0.00    +0.000 C 
BRANCH  10  12
ATOM     12  C   UNL     1       1.575  -5.181  -0.437  0.00  0.00    +0.000 A 
ATOM     13  C   UNL     1       1.929  -5.410  -1.776  0.00  0.00    +0.000 A 
ATOM     14  C   UNL     1       2.426  -6.652  -2.177  0.00  0.00    +0.000 A 
ATOM     15  C   UNL     1       2.571  -7.681  -1.249  0.00  0.00    +0.000 A 
ATOM     16  C   UNL     1       2.220  -7.469   0.083  0.00  0.00    +0.000 A 
ATOM     17  C   UNL     1       1.723  -6.228   0.486  0.00  0.00    +0.000 A 
ENDBRANCH  10  12
ENDBRANCH   1  10
TORSDOF 3
