REMARK  Name = *****
REMARK  5 active torsions:
REMARK  status: ('A' for Active; 'I' for Inactive)
REMARK    1  A    between atoms: C_1  and  C_2
REMARK    2  A    between atoms: C_2  and  C_3
REMARK    3  A    between atoms: C_2  and  N_8
REMARK    4  A    between atoms: N_8  and  C_9
REMARK    5  A    between atoms: N_8  and  C_10
REMARK                            x       y       z     vdW  Elec       q    Type
REMARK                         _______ _______ _______ _____ _____    ______ ____
ROOT
ATOM      1  N   UNL     1       3.314   0.795  -1.202  0.00  0.00    +0.000 N 
ATOM      2  C   UNL     1       2.513   1.164  -2.367  0.00  0.00    +0.000 C 
ENDROOT
BRANCH   1   3
ATOM      3  C   UNL     1       4.446   1.550  -0.887  0.00  0.00    +0.000 A 
ATOM      4  C   UNL     1       5.441   1.063  -0.020  0.00  0.00    +0.000 A 
ATOM      5  C   UNL     1       6.588   1.806   0.294  0.00  0.00    +0.000 A 
ATOM      6  C   UNL     1       6.769   3.063  -0.264  0.00  0.00    +0.000 A 
ATOM      7  C   UNL     1       5.816   3.577  -1.132  0.00  0.00    +0.000 A 
ATOM      8  C   UNL     1       4.674   2.824  -1.439  0.00  0.00    +0.000 A 
ATOM      9 CL   UNL     1       8.173   3.980   0.115  0.00  0.00    +0.000 Cl
ENDBRANCH   1   3
BRANCH   1  11
ATOM     10  C   UNL     1       1.233   0.120   0.025  0.00  0.00    +0.000 C 
ATOM     11  C   UNL     1       2.735  -0.133  -0.189  0.00  0.00    +0.000 C 
BRANCH  11  12
ATOM     12  C   UNL     1       3.098  -1.615  -0.511  0.00  0.00    +0.000 C 
ATOM     13  C   UNL     1       2.338  -2.265  -1.647  0.00  0.00    +0.000 C 
ATOM     14  C   UNL     1       1.694  -3.358  -1.209  0.00  0.00    +0.000 C 
ATOM     15  C   UNL     1       1.959  -3.539   0.195  0.00  0.00    +0.000 C 
ATOM     16  C   UNL     1       2.768  -2.562   0.627  0.00  0.00    +0.000 C 
ENDBRANCH  11  12
ENDBRANCH   1  11
TORSDOF 3
