REMARK  Name = *****
REMARK  2 active torsions:
REMARK  status: ('A' for Active; 'I' for Inactive)
REMARK    1  A    between atoms: C_4  and  C_7
REMARK    2  A    between atoms: C_8  and  C_9
REMARK                            x       y       z     vdW  Elec       q    Type
REMARK                         _______ _______ _______ _____ _____    ______ ____
ROOT
ATOM      1  C   UNL     1      -2.811   0.441  -0.129  0.00  0.00    +0.000 C 
ATOM      2  C   UNL     1      -3.712  -0.500  -0.453  0.00  0.00    +0.000 C 
ENDROOT
BRANCH   2   3
ATOM      3  C   UNL     1      -5.147  -0.201  -0.556  0.00  0.00    +0.000 A 
ATOM      4  C   UNL     1      -5.838   0.158   0.613  0.00  0.00    +0.000 A 
ATOM      5  C   UNL     1      -7.205   0.440   0.580  0.00  0.00    +0.000 A 
ATOM      6  C   UNL     1      -7.902   0.365  -0.623  0.00  0.00    +0.000 A 
ATOM      7  C   UNL     1      -7.234   0.006  -1.794  0.00  0.00    +0.000 A 
ATOM      8  C   UNL     1      -5.862  -0.279  -1.763  0.00  0.00    +0.000 A 
ATOM      9  I   UNL     1      -4.955  -0.794  -3.589  0.00  0.00    +0.000 I 
ENDBRANCH   2   3
BRANCH   1  13
ATOM     10  C   UNL     1       1.409  -0.174   0.209  0.00  0.00    +0.000 A 
ATOM     11  C   UNL     1       0.690  -0.872  -0.758  0.00  0.00    +0.000 A 
ATOM     12  C   UNL     1      -0.690  -0.687  -0.875  0.00  0.00    +0.000 A 
ATOM     13  C   UNL     1      -1.367   0.192  -0.019  0.00  0.00    +0.000 A 
ATOM     14  C   UNL     1      -0.629   0.901   0.938  0.00  0.00    +0.000 A 
ATOM     15  C   UNL     1       0.751   0.715   1.056  0.00  0.00    +0.000 A 
ENDBRANCH   1  13
TORSDOF 2
