REMARK  Name = *****
REMARK  4 active torsions:
REMARK  status: ('A' for Active; 'I' for Inactive)
REMARK    1  A    between atoms: C_4  and  C_7
REMARK    2  A    between atoms: C_7  and  C_8
REMARK    3  A    between atoms: C_7  and  C_17
REMARK    4  A    between atoms: C_8  and  C_9
REMARK                            x       y       z     vdW  Elec       q    Type
REMARK                         _______ _______ _______ _____ _____    ______ ____
ROOT
ATOM      1  C   UNL     1      -2.908   0.396  -0.279  0.00  0.00    +0.000 C 
ENDROOT
BRANCH   1   5
ATOM      2  C   UNL     1       1.071  -1.033   0.669  0.00  0.00    +0.000 A 
ATOM      3  C   UNL     1       0.461  -0.070   1.468  0.00  0.00    +0.000 A 
ATOM      4  C   UNL     1      -0.824   0.381   1.162  0.00  0.00    +0.000 A 
ATOM      5  C   UNL     1      -1.517  -0.128   0.051  0.00  0.00    +0.000 A 
ATOM      6  C   UNL     1      -0.887  -1.099  -0.745  0.00  0.00    +0.000 A 
ATOM      7  C   UNL     1       0.398  -1.548  -0.436  0.00  0.00    +0.000 A 
ENDBRANCH   1   5
BRANCH   1   8
ATOM      8  C   UNL     1      -3.899  -0.699  -0.383  0.00  0.00    +0.000 C 
ATOM      9  N   UNL     1      -4.689  -1.544  -0.482  0.00  0.00    +0.000 NA
ENDBRANCH   1   8
BRANCH   1  10
ATOM     10  C   UNL     1      -2.933   1.237  -1.577  0.00  0.00    +0.000 C 
BRANCH  10  11
ATOM     11  C   UNL     1      -2.096   2.497  -1.511  0.00  0.00    +0.000 A 
ATOM     12  C   UNL     1      -2.525   3.545  -0.685  0.00  0.00    +0.000 A 
ATOM     13  C   UNL     1      -1.806   4.730  -0.556  0.00  0.00    +0.000 A 
ATOM     14  C   UNL     1      -0.621   4.894  -1.264  0.00  0.00    +0.000 A 
ATOM     15  C   UNL     1      -0.170   3.869  -2.096  0.00  0.00    +0.000 A 
ATOM     16  C   UNL     1      -0.900   2.679  -2.221  0.00  0.00    +0.000 A 
ATOM     17 CL   UNL     1      -0.264   1.475  -3.284  0.00  0.00    +0.000 Cl
ATOM     18  F   UNL     1      -3.662   3.410   0.013  0.00  0.00    +0.000 F 
ENDBRANCH  10  11
ENDBRANCH   1  10
TORSDOF 4
