REMARK  Name = *****
REMARK  4 active torsions:
REMARK  status: ('A' for Active; 'I' for Inactive)
REMARK    1  A    between atoms: C_1  and  C_2
REMARK    2  A    between atoms: C_4  and  C_8
REMARK    3  A    between atoms: C_8  and  O_10
REMARK    4  A    between atoms: O_10  and  C_11
REMARK                            x       y       z     vdW  Elec       q    Type
REMARK                         _______ _______ _______ _____ _____    ______ ____
ROOT
ATOM      1  C   UNL     1      -3.171   3.603   1.388  0.00  0.00    +0.000 C 
ATOM      2  O   UNL     1      -2.845   2.646   0.705  0.00  0.00    +0.000 OA
ENDROOT
BRANCH   1   6
ATOM      3  C   UNL     1      -5.939   0.735   4.401  0.00  0.00    +0.000 C 
ATOM      4  C   UNL     1      -5.411   2.089   4.031  0.00  0.00    +0.000 A 
ATOM      5  C   UNL     1      -4.555   2.241   2.931  0.00  0.00    +0.000 A 
ATOM      6  C   UNL     1      -4.084   3.509   2.559  0.00  0.00    +0.000 A 
ATOM      7  C   UNL     1      -4.488   4.635   3.288  0.00  0.00    +0.000 A 
ATOM      8  C   UNL     1      -5.352   4.491   4.375  0.00  0.00    +0.000 A 
ATOM      9  C   UNL     1      -5.814   3.226   4.741  0.00  0.00    +0.000 A 
ENDBRANCH   1   6
BRANCH   1  10
ATOM     10  O   UNL     1      -2.752   4.880   1.214  0.00  0.00    +0.000 OA
BRANCH  10  11
ATOM     11  C   UNL     1      -1.875   5.115   0.090  0.00  0.00    +0.000 C 
ATOM     12  C   UNL     1      -0.429   4.806   0.499  0.00  0.00    +0.000 C 
ATOM     13  C   UNL     1       0.066   5.748   1.600  0.00  0.00    +0.000 C 
ATOM     14  C   UNL     1      -0.100   7.216   1.213  0.00  0.00    +0.000 C 
ATOM     15  C   UNL     1      -1.528   7.535   0.780  0.00  0.00    +0.000 C 
ATOM     16  C   UNL     1      -1.993   6.588  -0.321  0.00  0.00    +0.000 C 
ATOM     17  F   UNL     1      -3.290   6.874  -0.623  0.00  0.00    +0.000 F 
ENDBRANCH  10  11
ENDBRANCH   1  10
TORSDOF 3
