REMARK  Name = *****
REMARK  5 active torsions:
REMARK  status: ('A' for Active; 'I' for Inactive)
REMARK    1  A    between atoms: C_1  and  N_2
REMARK    2  A    between atoms: N_2  and  C_3
REMARK    3  A    between atoms: N_2  and  C_9
REMARK    4  A    between atoms: C_9  and  O_11
REMARK    5  A    between atoms: O_11  and  C_12
REMARK                            x       y       z     vdW  Elec       q    Type
REMARK                         _______ _______ _______ _____ _____    ______ ____
ROOT
ATOM      1  C   UNL     1       2.931  -0.673  -1.126  0.00  0.00    +0.000 C 
ATOM      2  S   UNL     1       2.132  -1.757  -2.134  0.00  0.00    +0.000 S 
ENDROOT
BRANCH   1   4
ATOM      3  C   UNL     1       1.093  -0.465   0.556  0.00  0.00    +0.000 C 
ATOM      4  N   UNL     1       2.474  -0.212   0.126  0.00  0.00    +0.000 N 
BRANCH   4   5
ATOM      5  C   UNL     1       3.275   0.611   0.993  0.00  0.00    +0.000 A 
ATOM      6  C   UNL     1       4.658   0.412   1.116  0.00  0.00    +0.000 A 
ATOM      7  C   UNL     1       5.427   1.199   1.980  0.00  0.00    +0.000 A 
ATOM      8  C   UNL     1       4.825   2.194   2.743  0.00  0.00    +0.000 A 
ATOM      9  C   UNL     1       3.452   2.397   2.648  0.00  0.00    +0.000 A 
ATOM     10  C   UNL     1       2.684   1.608   1.786  0.00  0.00    +0.000 A 
ENDBRANCH   4   5
ENDBRANCH   1   4
BRANCH   1  11
ATOM     11  O   UNL     1       4.125  -0.061  -1.557  0.00  0.00    +0.000 OA
BRANCH  11  12
ATOM     12  C   UNL     1       4.826  -0.346  -2.753  0.00  0.00    +0.000 A 
ATOM     13  C   UNL     1       4.655   0.503  -3.843  0.00  0.00    +0.000 A 
ATOM     14  C   UNL     1       5.378   0.256  -5.008  0.00  0.00    +0.000 A 
ATOM     15  C   UNL     1       6.270  -0.820  -5.062  0.00  0.00    +0.000 A 
ATOM     16  C   UNL     1       6.445  -1.649  -3.950  0.00  0.00    +0.000 A 
ATOM     17  C   UNL     1       5.725  -1.409  -2.782  0.00  0.00    +0.000 A 
ENDBRANCH  11  12
ENDBRANCH   1  11
TORSDOF 4
