REMARK  Name = *****
REMARK  6 active torsions:
REMARK  status: ('A' for Active; 'I' for Inactive)
REMARK    1  A    between atoms: C_1  and  C_2
REMARK    2  A    between atoms: C_7  and  C_8
REMARK    3  A    between atoms: C_8  and  C_9
REMARK    4  A    between atoms: C_9  and  C_10
REMARK    5  A    between atoms: C_11  and  C_17
REMARK    6  A    between atoms: C_17  and  C_19
REMARK                            x       y       z     vdW  Elec       q    Type
REMARK                         _______ _______ _______ _____ _____    ______ ____
ROOT
ATOM      1  C   UNL     1       3.244  -3.817   0.075  0.00  0.00    +0.000 A 
ATOM      2  C   UNL     1       2.619  -5.070   0.217  0.00  0.00    +0.000 A 
ATOM      3  C   UNL     1       3.371  -6.261   0.247  0.00  0.00    +0.000 A 
ATOM      4  C   UNL     1       4.758  -6.225   0.130  0.00  0.00    +0.000 A 
ATOM      5  C   UNL     1       5.388  -5.000  -0.013  0.00  0.00    +0.000 A 
ATOM      6  C   UNL     1       4.654  -3.817  -0.040  0.00  0.00    +0.000 A 
ATOM      7  F   UNL     1       6.721  -4.952  -0.127  0.00  0.00    +0.000 F 
ENDROOT
BRANCH   2   8
ATOM      8  C   UNL     1       1.163  -5.260   0.357  0.00  0.00    +0.000 C 
ATOM      9  O   UNL     1       0.626  -5.068   1.442  0.00  0.00    +0.000 OA
ATOM     10  C   UNL     1       0.419  -5.770  -0.848  0.00  0.00    +0.000 C 
ENDBRANCH   2   8
BRANCH   1  11
ATOM     11  C   UNL     1       2.600  -2.442   0.019  0.00  0.00    +0.000 C 
BRANCH  11  12
ATOM     12  C   UNL     1       1.077  -2.276   0.101  0.00  0.00    +0.000 C 
BRANCH  12  19
ATOM     13  C   UNL     1      -1.843  -1.847  -0.065  0.00  0.00    +0.000 C 
ATOM     14  C   UNL     1      -0.886  -0.686  -0.157  0.00  0.00    +0.000 A 
ATOM     15  C   UNL     1      -1.410   0.606  -0.331  0.00  0.00    +0.000 A 
ATOM     16  C   UNL     1      -0.568   1.711  -0.417  0.00  0.00    +0.000 A 
ATOM     17  C   UNL     1       0.807   1.539  -0.328  0.00  0.00    +0.000 A 
ATOM     18  C   UNL     1       1.344   0.261  -0.161  0.00  0.00    +0.000 A 
ATOM     19  C   UNL     1       0.516  -0.872  -0.083  0.00  0.00    +0.000 A 
ENDBRANCH  12  19
ENDBRANCH  11  12
ENDBRANCH   1  11
TORSDOF 4
