REMARK  Name = *****
REMARK  6 active torsions:
REMARK  status: ('A' for Active; 'I' for Inactive)
REMARK    1  A    between atoms: C_1  and  C_2
REMARK    2  A    between atoms: C_5  and  C_8
REMARK    3  A    between atoms: C_8  and  S_10
REMARK    4  A    between atoms: S_10  and  C_11
REMARK    5  A    between atoms: C_13  and  C_18
REMARK    6  A    between atoms: C_15  and  C_17
REMARK                            x       y       z     vdW  Elec       q    Type
REMARK                         _______ _______ _______ _____ _____    ______ ____
ROOT
ATOM      1  C   UNL     1      -3.211   0.138   0.158  0.00  0.00    +0.000 C 
ATOM      2  O   UNL     1      -3.829  -0.896   0.393  0.00  0.00    +0.000 OA
ENDROOT
BRANCH   1   7
ATOM      3  C   UNL     1       2.588  -0.145  -0.117  0.00  0.00    +0.000 C 
ATOM      4  C   UNL     1       1.093  -0.041  -0.051  0.00  0.00    +0.000 A 
ATOM      5  C   UNL     1       0.421   1.037  -0.635  0.00  0.00    +0.000 A 
ATOM      6  C   UNL     1      -0.975   1.121  -0.582  0.00  0.00    +0.000 A 
ATOM      7  C   UNL     1      -1.720   0.121   0.058  0.00  0.00    +0.000 A 
ATOM      8  C   UNL     1      -1.044  -0.968   0.627  0.00  0.00    +0.000 A 
ATOM      9  C   UNL     1       0.350  -1.048   0.574  0.00  0.00    +0.000 A 
ENDBRANCH   1   7
BRANCH   1  10
ATOM     10  S   UNL     1      -4.072   1.637  -0.124  0.00  0.00    +0.000 S 
BRANCH  10  11
ATOM     11  C   UNL     1      -3.735   2.485   1.394  0.00  0.00    +0.000 A 
ATOM     12  N   UNL     1      -2.969   1.894   2.324  0.00  0.00    +0.000 NA
ATOM     13  C   UNL     1      -2.724   2.585   3.454  0.00  0.00    +0.000 A 
ATOM     14  C   UNL     1      -3.227   3.853   3.665  0.00  0.00    +0.000 A 
ATOM     15  C   UNL     1      -3.997   4.389   2.652  0.00  0.00    +0.000 A 
ATOM     16  N   UNL     1      -4.255   3.719   1.511  0.00  0.00    +0.000 NA
ATOM     17  C   UNL     1      -4.588   5.759   2.795  0.00  0.00    +0.000 C 
ATOM     18  C   UNL     1      -1.871   1.923   4.493  0.00  0.00    +0.000 C 
ENDBRANCH  10  11
ENDBRANCH   1  10
TORSDOF 3
