REMARK  Name = *****
REMARK  4 active torsions:
REMARK  status: ('A' for Active; 'I' for Inactive)
REMARK    1  A    between atoms: C_1  and  C_2
REMARK    2  A    between atoms: C_5  and  C_8
REMARK    3  A    between atoms: C_9  and  C_10
REMARK    4  A    between atoms: C_10  and  C_17
REMARK                            x       y       z     vdW  Elec       q    Type
REMARK                         _______ _______ _______ _____ _____    ______ ____
ROOT
ATOM      1  C   UNL     1      -3.237   0.079   0.206  0.00  0.00    +0.000 C 
ATOM      2  C   UNL     1      -3.993   1.170  -0.009  0.00  0.00    +0.000 C 
ENDROOT
BRANCH   2   3
ATOM      3  C   UNL     1      -5.520   1.186  -0.076  0.00  0.00    +0.000 C 
ATOM      4  C   UNL     1      -6.042   0.304  -1.240  0.00  0.00    +0.000 C 
ATOM      5  C   UNL     1      -5.624   0.834  -2.614  0.00  0.00    +0.000 C 
ATOM      6  C   UNL     1      -6.089   2.266  -2.832  0.00  0.00    +0.000 C 
ATOM      7  C   UNL     1      -5.694   3.146  -1.671  0.00  0.00    +0.000 C 
ATOM      8  O   UNL     1      -5.248   4.280  -1.846  0.00  0.00    +0.000 OA
ATOM      9  C   UNL     1      -6.019   2.633  -0.283  0.00  0.00    +0.000 C 
ATOM     10  C   UNL     1      -6.103   0.667   1.254  0.00  0.00    +0.000 C 
ENDBRANCH   2   3
BRANCH   1  15
ATOM     11  C   UNL     1       2.555  -0.083   0.166  0.00  0.00    +0.000 C 
ATOM     12  C   UNL     1       1.057  -0.024   0.197  0.00  0.00    +0.000 A 
ATOM     13  C   UNL     1       0.389   1.114   0.658  0.00  0.00    +0.000 A 
ATOM     14  C   UNL     1      -1.009   1.161   0.670  0.00  0.00    +0.000 A 
ATOM     15  C   UNL     1      -1.766   0.077   0.209  0.00  0.00    +0.000 A 
ATOM     16  C   UNL     1      -1.093  -1.070  -0.231  0.00  0.00    +0.000 A 
ATOM     17  C   UNL     1       0.305  -1.119  -0.242  0.00  0.00    +0.000 A 
ENDBRANCH   1  15
TORSDOF 2
