REMARK  Name = *****
REMARK  6 active torsions:
REMARK  status: ('A' for Active; 'I' for Inactive)
REMARK    1  A    between atoms: C_1  and  O_2
REMARK    2  A    between atoms: O_2  and  C_3
REMARK    3  A    between atoms: C_3  and  C_5
REMARK    4  A    between atoms: C_5  and  C_6
REMARK    5  A    between atoms: C_5  and  C_13
REMARK    6  A    between atoms: C_6  and  C_7
REMARK                            x       y       z     vdW  Elec       q    Type
REMARK                         _______ _______ _______ _____ _____    ______ ____
ROOT
ATOM      1  C   UNL     1       4.620   0.930   1.020  0.00  0.00    +0.000 C 
ENDROOT
BRANCH   1   2
ATOM      2  C   UNL     1       5.225   1.826   2.087  0.00  0.00    +0.000 A 
ATOM      3  C   UNL     1       5.985   1.264   3.124  0.00  0.00    +0.000 A 
ATOM      4  C   UNL     1       6.554   2.073   4.109  0.00  0.00    +0.000 A 
ATOM      5  C   UNL     1       6.368   3.453   4.072  0.00  0.00    +0.000 A 
ATOM      6  C   UNL     1       5.611   4.025   3.052  0.00  0.00    +0.000 A 
ATOM      7  C   UNL     1       5.041   3.217   2.066  0.00  0.00    +0.000 A 
ENDBRANCH   1   2
BRANCH   1   8
ATOM      8  C   UNL     1       3.094   0.971   1.077  0.00  0.00    +0.000 C 
ATOM      9  O   UNL     1       2.390   1.794   0.505  0.00  0.00    +0.000 OA
BRANCH   8  11
ATOM     10  C   UNL     1       1.201  -0.062   1.992  0.00  0.00    +0.000 C 
ATOM     11  O   UNL     1       2.623  -0.040   1.866  0.00  0.00    +0.000 OA
ENDBRANCH   8  11
ENDBRANCH   1   8
BRANCH   1  12
ATOM     12  C   UNL     1       5.088   1.269  -0.414  0.00  0.00    +0.000 C 
BRANCH  12  13
ATOM     13  C   UNL     1       6.610   1.176  -0.658  0.00  0.00    +0.000 C 
ATOM     14  C   UNL     1       6.925   1.625  -2.098  0.00  0.00    +0.000 C 
ATOM     15  C   UNL     1       8.414   1.528  -2.416  0.00  0.00    +0.000 C 
ATOM     16  C   UNL     1       8.951   0.126  -2.158  0.00  0.00    +0.000 C 
ATOM     17  C   UNL     1       8.654  -0.331  -0.735  0.00  0.00    +0.000 C 
ATOM     18  C   UNL     1       7.164  -0.236  -0.408  0.00  0.00    +0.000 C 
ENDBRANCH  12  13
ENDBRANCH   1  12
TORSDOF 5
