REMARK  Name = *****
REMARK  2 active torsions:
REMARK  status: ('A' for Active; 'I' for Inactive)
REMARK    1  A    between atoms: C_3  and  N_8
REMARK    2  A    between atoms: C_9  and  C_10
REMARK                            x       y       z     vdW  Elec       q    Type
REMARK                         _______ _______ _______ _____ _____    ______ ____
ROOT
ATOM      1  N   UNL     1      -1.991   2.421   0.348  0.00  0.00    +0.000 NA
ATOM      2  C   UNL     1      -1.491   3.508  -0.146  0.00  0.00    +0.000 C 
ENDROOT
BRANCH   2   3
ATOM      3  C   UNL     1      -2.181   4.805  -0.025  0.00  0.00    +0.000 A 
ATOM      4  C   UNL     1      -1.440   5.930   0.367  0.00  0.00    +0.000 A 
ATOM      5  C   UNL     1      -2.064   7.175   0.503  0.00  0.00    +0.000 A 
ATOM      6  C   UNL     1      -3.426   7.308   0.244  0.00  0.00    +0.000 A 
ATOM      7  C   UNL     1      -4.164   6.197  -0.161  0.00  0.00    +0.000 A 
ATOM      8  C   UNL     1      -3.549   4.947  -0.300  0.00  0.00    +0.000 A 
ATOM      9 CL   UNL     1      -4.537   3.660  -0.899  0.00  0.00    +0.000 Cl
ATOM     10 CL   UNL     1       0.250   5.851   0.732  0.00  0.00    +0.000 Cl
ENDBRANCH   2   3
BRANCH   1  13
ATOM     11  C   UNL     1      -0.887  -0.861  -0.964  0.00  0.00    +0.000 A 
ATOM     12  C   UNL     1      -1.618   0.316  -0.785  0.00  0.00    +0.000 A 
ATOM     13  C   UNL     1      -1.231   1.256   0.177  0.00  0.00    +0.000 A 
ATOM     14  C   UNL     1      -0.120   0.997   0.980  0.00  0.00    +0.000 A 
ATOM     15  C   UNL     1       0.602  -0.177   0.796  0.00  0.00    +0.000 A 
ATOM     16  C   UNL     1       0.232  -1.106  -0.171  0.00  0.00    +0.000 A 
ATOM     17  F   UNL     1       1.674  -0.418   1.563  0.00  0.00    +0.000 F 
ENDBRANCH   1  13
TORSDOF 2
