REMARK  Name = *****
REMARK  2 active torsions:
REMARK  status: ('A' for Active; 'I' for Inactive)
REMARK    1  A    between atoms: C_4  and  N_7
REMARK    2  A    between atoms: N_7  and  C_8
REMARK                            x       y       z     vdW  Elec       q    Type
REMARK                         _______ _______ _______ _____ _____    ______ ____
ROOT
ATOM      1  C   UNL     1      -3.644  -0.786  -0.141  0.00  0.00    +0.000 C 
ATOM      2  C   UNL     1      -3.435  -2.110   0.500  0.00  0.00    +0.000 C 
ATOM      3  C   UNL     1      -4.374  -3.062   0.513  0.00  0.00    +0.000 C 
ATOM      4  C   UNL     1      -5.660  -2.819  -0.116  0.00  0.00    +0.000 C 
ATOM      5  C   UNL     1      -6.677  -3.776  -0.129  0.00  0.00    +0.000 C 
ATOM      6  C   UNL     1      -7.898  -3.490  -0.749  0.00  0.00    +0.000 C 
ATOM      7  C   UNL     1      -8.106  -2.250  -1.359  0.00  0.00    +0.000 C 
ATOM      8  C   UNL     1      -7.095  -1.291  -1.350  0.00  0.00    +0.000 C 
ATOM      9  C   UNL     1      -5.885  -1.590  -0.728  0.00  0.00    +0.000 C 
ATOM     10  O   UNL     1      -4.887  -0.596  -0.738  0.00  0.00    +0.000 OA
ENDROOT
BRANCH   1  11
ATOM     11  N   UNL     1      -2.818   0.206  -0.211  0.00  0.00    +0.000 NA
BRANCH  11  15
ATOM     12  C   UNL     1       1.000  -0.082   1.511  0.00  0.00    +0.000 A 
ATOM     13  C   UNL     1       0.805  -0.453   0.182  0.00  0.00    +0.000 A 
ATOM     14  C   UNL     1      -0.465  -0.356  -0.390  0.00  0.00    +0.000 A 
ATOM     15  C   UNL     1      -1.548   0.100   0.366  0.00  0.00    +0.000 A 
ATOM     16  C   UNL     1      -1.340   0.491   1.691  0.00  0.00    +0.000 A 
ATOM     17  C   UNL     1      -0.071   0.395   2.266  0.00  0.00    +0.000 A 
ENDBRANCH  11  15
ENDBRANCH   1  11
TORSDOF 2
