REMARK  Name = *****
REMARK  3 active torsions:
REMARK  status: ('A' for Active; 'I' for Inactive)
REMARK    1  A    between atoms: C_4  and  O_6
REMARK    2  A    between atoms: O_6  and  C_7
REMARK    3  A    between atoms: C_7  and  C_9
REMARK                            x       y       z     vdW  Elec       q    Type
REMARK                         _______ _______ _______ _____ _____    ______ ____
ROOT
ATOM      1  C   UNL     1      -2.716   1.394   1.686  0.00  0.00    +0.000 C 
ATOM      2  O   UNL     1      -3.624   1.200   0.899  0.00  0.00    +0.000 OA
ENDROOT
BRANCH   1   3
ATOM      3  C   UNL     1      -2.898   1.779   3.098  0.00  0.00    +0.000 A 
ATOM      4  C   UNL     1      -3.723   1.040   3.954  0.00  0.00    +0.000 A 
ATOM      5  C   UNL     1      -3.897   1.454   5.279  0.00  0.00    +0.000 A 
ATOM      6  C   UNL     1      -3.251   2.600   5.740  0.00  0.00    +0.000 A 
ATOM      7  C   UNL     1      -2.426   3.340   4.894  0.00  0.00    +0.000 A 
ATOM      8  C   UNL     1      -2.249   2.931   3.571  0.00  0.00    +0.000 A 
ATOM      9 CL   UNL     1      -3.468   3.104   7.370  0.00  0.00    +0.000 Cl
ATOM     10 CL   UNL     1      -4.512  -0.415   3.464  0.00  0.00    +0.000 Cl
ENDBRANCH   1   3
BRANCH   1  11
ATOM     11  O   UNL     1      -1.386   1.306   1.439  0.00  0.00    +0.000 OA
BRANCH  11  15
ATOM     12  C   UNL     1       1.154   0.088   0.556  0.00  0.00    +0.000 C 
ATOM     13  C   UNL     1       0.310  -1.126   0.192  0.00  0.00    +0.000 C 
ATOM     14  C   UNL     1      -1.108  -0.601  -0.057  0.00  0.00    +0.000 C 
ATOM     15  C   UNL     1      -1.036   0.921   0.097  0.00  0.00    +0.000 C 
ATOM     16  C   UNL     1       0.438   1.249  -0.117  0.00  0.00    +0.000 C 
ENDBRANCH  11  15
ENDBRANCH   1  11
TORSDOF 3
