REMARK  Name = *****
REMARK  2 active torsions:
REMARK  status: ('A' for Active; 'I' for Inactive)
REMARK    1  A    between atoms: C_3  and  C_11
REMARK    2  A    between atoms: C_4  and  C_5
REMARK                            x       y       z     vdW  Elec       q    Type
REMARK                         _______ _______ _______ _____ _____    ______ ____
ROOT
ATOM      1  C   UNL     1       1.532   0.054   0.072  0.00  0.00    +0.000 C 
ATOM      2  C   UNL     1       2.849   0.070   0.066  0.00  0.00    +0.000 C 
ATOM      3  C   UNL     1       4.004   0.857   0.272  0.00  0.00    +0.000 C 
ATOM      4  C   UNL     1       4.021  -0.688  -0.151  0.00  0.00    +0.000 C 
ENDROOT
BRANCH   4   5
ATOM      5  C   UNL     1       4.438  -1.709   0.876  0.00  0.00    +0.000 A 
ATOM      6  C   UNL     1       3.632  -2.819   1.185  0.00  0.00    +0.000 A 
ATOM      7  C   UNL     1       4.033  -3.776   2.122  0.00  0.00    +0.000 A 
ATOM      8  C   UNL     1       5.260  -3.647   2.766  0.00  0.00    +0.000 A 
ATOM      9  C   UNL     1       6.084  -2.566   2.471  0.00  0.00    +0.000 A 
ATOM     10  C   UNL     1       5.676  -1.612   1.534  0.00  0.00    +0.000 A 
ENDBRANCH   4   5
BRANCH   3  11
ATOM     11  C   UNL     1       4.384   1.888  -0.759  0.00  0.00    +0.000 A 
ATOM     12  C   UNL     1       3.549   2.981  -1.055  0.00  0.00    +0.000 A 
ATOM     13  C   UNL     1       3.915   3.946  -1.997  0.00  0.00    +0.000 A 
ATOM     14  C   UNL     1       5.134   3.845  -2.660  0.00  0.00    +0.000 A 
ATOM     15  C   UNL     1       5.986   2.782  -2.378  0.00  0.00    +0.000 A 
ATOM     16  C   UNL     1       5.614   1.819  -1.435  0.00  0.00    +0.000 A 
ENDBRANCH   3  11
TORSDOF 2
