REMARK  Name = *****
REMARK  4 active torsions:
REMARK  status: ('A' for Active; 'I' for Inactive)
REMARK    1  A    between atoms: C_4  and  C_6
REMARK    2  A    between atoms: C_6  and  C_7
REMARK    3  A    between atoms: C_7  and  C_8
REMARK    4  A    between atoms: C_8  and  C_9
REMARK                            x       y       z     vdW  Elec       q    Type
REMARK                         _______ _______ _______ _____ _____    ______ ____
ROOT
ATOM      1  C   UNL     1       1.046   3.562   0.287  0.00  0.00    +0.000 C 
ENDROOT
BRANCH   1   2
ATOM      2  C   UNL     1      -0.187   2.668   0.125  0.00  0.00    +0.000 C 
BRANCH   2   6
ATOM      3  C   UNL     1       0.513  -1.012  -0.746  0.00  0.00    +0.000 C 
ATOM      4  C   UNL     1       1.079  -1.138   0.667  0.00  0.00    +0.000 C 
ATOM      5  S   UNL     1       0.517   0.343   1.567  0.00  0.00    +0.000 S 
ATOM      6  C   UNL     1       0.165   1.211   0.101  0.00  0.00    +0.000 C 
ATOM      7  C   UNL     1       0.181   0.428  -0.986  0.00  0.00    +0.000 C 
ENDBRANCH   2   6
ENDBRANCH   1   2
BRANCH   1   8
ATOM      8  C   UNL     1       0.653   5.041   0.296  0.00  0.00    +0.000 C 
BRANCH   8   9
ATOM      9  C   UNL     1       1.859   5.937   0.424  0.00  0.00    +0.000 A 
ATOM     10  C   UNL     1       2.503   6.430  -0.719  0.00  0.00    +0.000 A 
ATOM     11  C   UNL     1       3.630   7.246  -0.599  0.00  0.00    +0.000 A 
ATOM     12  C   UNL     1       4.125   7.572   0.662  0.00  0.00    +0.000 A 
ATOM     13  C   UNL     1       3.496   7.081   1.805  0.00  0.00    +0.000 A 
ATOM     14  C   UNL     1       2.369   6.265   1.687  0.00  0.00    +0.000 A 
ENDBRANCH   8   9
ENDBRANCH   1   8
TORSDOF 4
