REMARK  Name = *****
REMARK  5 active torsions:
REMARK  status: ('A' for Active; 'I' for Inactive)
REMARK    1  A    between atoms: C_1  and  C_2
REMARK    2  A    between atoms: C_3  and  C_17
REMARK    3  A    between atoms: C_4  and  N_8
REMARK    4  A    between atoms: C_9  and  C_10
REMARK    5  A    between atoms: C_9  and  C_11
REMARK                            x       y       z     vdW  Elec       q    Type
REMARK                         _______ _______ _______ _____ _____    ______ ____
ROOT
ATOM      1  N   UNL     1      -0.713  -2.814  -0.588  0.00  0.00    +0.000 NA
ATOM      2  C   UNL     1      -1.414  -3.463   0.298  0.00  0.00    +0.000 C 
ATOM      3  C   UNL     1      -2.195  -2.797   1.416  0.00  0.00    +0.000 C 
ENDROOT
BRANCH   1   7
ATOM      4  C   UNL     1       1.597   1.476   0.559  0.00  0.00    +0.000 C 
ATOM      5  C   UNL     1       0.456   0.690  -0.029  0.00  0.00    +0.000 A 
ATOM      6  C   UNL     1       0.423  -0.724   0.024  0.00  0.00    +0.000 A 
ATOM      7  C   UNL     1      -0.663  -1.411  -0.560  0.00  0.00    +0.000 A 
ATOM      8  C   UNL     1      -1.689  -0.691  -1.183  0.00  0.00    +0.000 A 
ATOM      9  C   UNL     1      -1.669   0.700  -1.209  0.00  0.00    +0.000 A 
ATOM     10  C   UNL     1      -0.605   1.386  -0.631  0.00  0.00    +0.000 A 
ATOM     11  C   UNL     1       1.567  -1.497   0.628  0.00  0.00    +0.000 C 
ENDBRANCH   1   7
BRANCH   2  12
ATOM     12  C   UNL     1      -1.461  -4.956   0.205  0.00  0.00    +0.000 A 
ATOM     13  C   UNL     1      -0.390  -5.633  -0.394  0.00  0.00    +0.000 A 
ATOM     14  C   UNL     1      -0.406  -7.025  -0.498  0.00  0.00    +0.000 A 
ATOM     15  C   UNL     1      -1.494  -7.747  -0.013  0.00  0.00    +0.000 A 
ATOM     16  C   UNL     1      -2.570  -7.080   0.571  0.00  0.00    +0.000 A 
ATOM     17  C   UNL     1      -2.558  -5.686   0.678  0.00  0.00    +0.000 A 
ENDBRANCH   2  12
TORSDOF 2
