REMARK  Name = *****
REMARK  2 active torsions:
REMARK  status: ('A' for Active; 'I' for Inactive)
REMARK    1  A    between atoms: C_4  and  C_7
REMARK    2  A    between atoms: C_8  and  C_9
REMARK                            x       y       z     vdW  Elec       q    Type
REMARK                         _______ _______ _______ _____ _____    ______ ____
ROOT
ATOM      1  C   UNL     1      -2.716   0.351  -0.382  0.00  0.00    +0.000 C 
ATOM      2  C   UNL     1      -3.593  -0.655  -0.260  0.00  0.00    +0.000 C 
ATOM      3  F   UNL     1      -4.912  -0.371  -0.351  0.00  0.00    +0.000 F 
ENDROOT
BRANCH   2   4
ATOM      4  C   UNL     1      -3.247  -2.059  -0.029  0.00  0.00    +0.000 A 
ATOM      5  C   UNL     1      -3.155  -2.556   1.277  0.00  0.00    +0.000 A 
ATOM      6  C   UNL     1      -2.819  -3.894   1.499  0.00  0.00    +0.000 A 
ATOM      7  C   UNL     1      -2.577  -4.734   0.414  0.00  0.00    +0.000 A 
ATOM      8  C   UNL     1      -2.670  -4.252  -0.891  0.00  0.00    +0.000 A 
ATOM      9  C   UNL     1      -3.007  -2.915  -1.111  0.00  0.00    +0.000 A 
ATOM     10 BR   UNL     1      -2.119  -6.544   0.714  0.00  0.00    +0.000 Br
ENDBRANCH   2   4
BRANCH   1  14
ATOM     11  C   UNL     1       1.516  -0.076  -0.143  0.00  0.00    +0.000 A 
ATOM     12  C   UNL     1       0.872  -0.198  -1.373  0.00  0.00    +0.000 A 
ATOM     13  C   UNL     1      -0.514  -0.054  -1.454  0.00  0.00    +0.000 A 
ATOM     14  C   UNL     1      -1.261   0.212  -0.302  0.00  0.00    +0.000 A 
ATOM     15  C   UNL     1      -0.610   0.333   0.931  0.00  0.00    +0.000 A 
ATOM     16  C   UNL     1       0.776   0.190   1.009  0.00  0.00    +0.000 A 
ENDBRANCH   1  14
TORSDOF 2
