REMARK  Name = *****
REMARK  4 active torsions:
REMARK  status: ('A' for Active; 'I' for Inactive)
REMARK    1  A    between atoms: C_4  and  C_7
REMARK    2  A    between atoms: C_7  and  P_8
REMARK    3  A    between atoms: P_8  and  C_9
REMARK    4  A    between atoms: C_9  and  C_10
REMARK                            x       y       z     vdW  Elec       q    Type
REMARK                         _______ _______ _______ _____ _____    ______ ____
ROOT
ATOM      1  P   UNL     1      -3.841  -1.045   0.457  0.00  0.00    +0.000 P 
ENDROOT
BRANCH   1   2
ATOM      2  C   UNL     1      -2.963   0.478  -0.149  0.00  0.00    +0.000 C 
BRANCH   2   6
ATOM      3  C   UNL     1       0.839   0.483   1.898  0.00  0.00    +0.000 A 
ATOM      4  C   UNL     1       0.709  -0.163   0.671  0.00  0.00    +0.000 A 
ATOM      5  C   UNL     1      -0.522  -0.173   0.012  0.00  0.00    +0.000 A 
ATOM      6  C   UNL     1      -1.643   0.461   0.576  0.00  0.00    +0.000 A 
ATOM      7  C   UNL     1      -1.493   1.110   1.814  0.00  0.00    +0.000 A 
ATOM      8  C   UNL     1      -0.261   1.118   2.470  0.00  0.00    +0.000 A 
ENDBRANCH   2   6
ENDBRANCH   1   2
BRANCH   1   9
ATOM      9  C   UNL     1      -5.396  -0.766  -0.523  0.00  0.00    +0.000 C 
BRANCH   9  10
ATOM     10  C   UNL     1      -6.245  -1.974  -0.227  0.00  0.00    +0.000 A 
ATOM     11  C   UNL     1      -7.156  -1.967   0.844  0.00  0.00    +0.000 A 
ATOM     12  C   UNL     1      -7.963  -3.077   1.100  0.00  0.00    +0.000 A 
ATOM     13  C   UNL     1      -7.876  -4.206   0.289  0.00  0.00    +0.000 A 
ATOM     14  C   UNL     1      -6.981  -4.229  -0.779  0.00  0.00    +0.000 A 
ATOM     15  C   UNL     1      -6.172  -3.120  -1.037  0.00  0.00    +0.000 A 
ENDBRANCH   9  10
ENDBRANCH   1   9
TORSDOF 4
