REMARK  Name = *****
REMARK  2 active torsions:
REMARK  status: ('A' for Active; 'I' for Inactive)
REMARK    1  A    between atoms: C_8  and  C_10
REMARK    2  A    between atoms: C_10  and  C_11
REMARK                            x       y       z     vdW  Elec       q    Type
REMARK                         _______ _______ _______ _____ _____    ______ ____
ROOT
ATOM      1  C   UNL     1      -3.759   0.114  -0.071  0.00  0.00    +0.000 C 
ATOM      2  F   UNL     1      -4.243   0.680  -1.224  0.00  0.00    +0.000 F 
ATOM      3  F   UNL     1      -4.205  -1.183  -0.128  0.00  0.00    +0.000 F 
ENDROOT
BRANCH   1  11
ATOM      4  C   UNL     1       2.216   0.141  -0.004  0.00  0.00    +0.000 A 
ATOM      5  C   UNL     1       2.011   1.309  -0.750  0.00  0.00    +0.000 A 
ATOM      6  C   UNL     1       0.722   1.761  -1.058  0.00  0.00    +0.000 A 
ATOM      7  C   UNL     1      -0.321   0.978  -0.578  0.00  0.00    +0.000 A 
ATOM      8  C   UNL     1      -0.161  -0.181   0.162  0.00  0.00    +0.000 A 
ATOM      9  C   UNL     1       1.134  -0.621   0.463  0.00  0.00    +0.000 A 
ATOM     10  N   UNL     1      -1.389  -0.706   0.477  0.00  0.00    +0.000 NA
ATOM     11  C   UNL     1      -2.249   0.138  -0.080  0.00  0.00    +0.000 A 
ATOM     12  O   UNL     1      -1.657   1.196  -0.736  0.00  0.00    +0.000 OA
ENDBRANCH   1  11
BRANCH   1  13
ATOM     13  C   UNL     1      -4.308   0.825   1.161  0.00  0.00    +0.000 A 
ATOM     14  C   UNL     1      -4.643   2.191   1.109  0.00  0.00    +0.000 A 
ATOM     15  C   UNL     1      -5.130   2.842   2.244  0.00  0.00    +0.000 A 
ATOM     16  C   UNL     1      -5.281   2.133   3.430  0.00  0.00    +0.000 A 
ATOM     17  C   UNL     1      -4.953   0.785   3.506  0.00  0.00    +0.000 A 
ATOM     18  C   UNL     1      -4.466   0.130   2.374  0.00  0.00    +0.000 A 
ATOM     19  F   UNL     1      -5.748   2.760   4.518  0.00  0.00    +0.000 F 
ENDBRANCH   1  13
TORSDOF 2
