REMARK  Name = *****
REMARK  5 active torsions:
REMARK  status: ('A' for Active; 'I' for Inactive)
REMARK    1  A    between atoms: C_1  and  C_2
REMARK    2  A    between atoms: C_4  and  C_18
REMARK    3  A    between atoms: C_6  and  C_8
REMARK    4  A    between atoms: C_9  and  C_10
REMARK    5  A    between atoms: C_15  and  C_16
REMARK                            x       y       z     vdW  Elec       q    Type
REMARK                         _______ _______ _______ _____ _____    ______ ____
ROOT
ATOM      1  C   UNL     1       5.195   2.621  -0.037  0.00  0.00    +0.000 C 
ATOM      2  C   UNL     1       5.786   3.666  -0.068  0.00  0.00    +0.000 C 
ENDROOT
BRANCH   1   8
ATOM      3  C   UNL     1       0.933   0.084  -0.036  0.00  0.00    +0.000 C 
ATOM      4  C   UNL     1       2.433   0.107  -0.028  0.00  0.00    +0.000 A 
ATOM      5  C   UNL     1       3.171  -1.085  -0.028  0.00  0.00    +0.000 A 
ATOM      6  C   UNL     1       4.572  -1.061  -0.025  0.00  0.00    +0.000 A 
ATOM      7  C   UNL     1       5.235   0.174  -0.022  0.00  0.00    +0.000 A 
ATOM      8  C   UNL     1       4.507   1.366  -0.024  0.00  0.00    +0.000 A 
ATOM      9  C   UNL     1       3.112   1.332  -0.025  0.00  0.00    +0.000 A 
ATOM     10  C   UNL     1       5.367  -2.333  -0.030  0.00  0.00    +0.000 C 
ENDBRANCH   1   8
BRANCH   2  11
ATOM     11  C   UNL     1       6.498   4.908  -0.125  0.00  0.00    +0.000 A 
ATOM     12  C   UNL     1       5.785   6.092   0.108  0.00  0.00    +0.000 A 
ATOM     13  C   UNL     1       6.429   7.331   0.052  0.00  0.00    +0.000 A 
ATOM     14  C   UNL     1       7.790   7.398  -0.237  0.00  0.00    +0.000 A 
ATOM     15  C   UNL     1       8.511   6.226  -0.468  0.00  0.00    +0.000 A 
ATOM     16  C   UNL     1       7.869   4.980  -0.413  0.00  0.00    +0.000 A 
BRANCH  16  17
ATOM     17  C   UNL     1       8.674   3.762  -0.665  0.00  0.00    +0.000 C 
ATOM     18  O   UNL     1       9.873   3.818  -0.918  0.00  0.00    +0.000 OA
ENDBRANCH  16  17
ENDBRANCH   2  11
TORSDOF 3
