REMARK  Name = *****
REMARK  5 active torsions:
REMARK  status: ('A' for Active; 'I' for Inactive)
REMARK    1  A    between atoms: C_1  and  C_2
REMARK    2  A    between atoms: C_5  and  C_8
REMARK    3  A    between atoms: C_9  and  C_10
REMARK    4  A    between atoms: C_15  and  C_17
REMARK    5  A    between atoms: C_15  and  C_18
REMARK                            x       y       z     vdW  Elec       q    Type
REMARK                         _______ _______ _______ _____ _____    ______ ____
ROOT
ATOM      1  C   UNL     1      -3.227   0.001  -0.241  0.00  0.00    +0.000 C 
ATOM      2  C   UNL     1      -4.030   1.076  -0.201  0.00  0.00    +0.000 C 
ENDROOT
BRANCH   2   3
ATOM      3  C   UNL     1      -5.482   1.012  -0.208  0.00  0.00    +0.000 C 
ATOM      4  C   UNL     1      -6.163   0.184   0.601  0.00  0.00    +0.000 C 
ATOM      5  C   UNL     1      -7.645   0.176   0.610  0.00  0.00    +0.000 C 
ATOM      6  O   UNL     1      -8.236  -0.589   1.369  0.00  0.00    +0.000 OA
ATOM      7  C   UNL     1      -8.385   1.169  -0.261  0.00  0.00    +0.000 C 
ATOM      8  C   UNL     1      -7.604   1.545  -1.532  0.00  0.00    +0.000 C 
ATOM      9  C   UNL     1      -6.167   1.972  -1.152  0.00  0.00    +0.000 C 
ATOM     10  C   UNL     1      -7.574   0.354  -2.514  0.00  0.00    +0.000 C 
ATOM     11  C   UNL     1      -8.311   2.720  -2.231  0.00  0.00    +0.000 C 
ENDBRANCH   2   3
BRANCH   1  16
ATOM     12  C   UNL     1       2.559   0.158  -0.349  0.00  0.00    +0.000 C 
ATOM     13  C   UNL     1       1.060   0.139  -0.314  0.00  0.00    +0.000 A 
ATOM     14  C   UNL     1       0.347   1.007   0.519  0.00  0.00    +0.000 A 
ATOM     15  C   UNL     1      -1.051   0.977   0.546  0.00  0.00    +0.000 A 
ATOM     16  C   UNL     1      -1.760   0.083  -0.265  0.00  0.00    +0.000 A 
ATOM     17  C   UNL     1      -1.044  -0.798  -1.083  0.00  0.00    +0.000 A 
ATOM     18  C   UNL     1       0.353  -0.767  -1.112  0.00  0.00    +0.000 A 
ENDBRANCH   1  16
TORSDOF 2
