REMARK  Name = *****
REMARK  2 active torsions:
REMARK  status: ('A' for Active; 'I' for Inactive)
REMARK    1  A    between atoms: C_5  and  C_7
REMARK    2  A    between atoms: C_8  and  C_9
REMARK                            x       y       z     vdW  Elec       q    Type
REMARK                         _______ _______ _______ _____ _____    ______ ____
ROOT
ATOM      1  C   UNL     1       1.632  -1.506   1.436  0.00  0.00    +0.000 C 
ATOM      2  C   UNL     1       2.154  -2.063   2.365  0.00  0.00    +0.000 C 
ENDROOT
BRANCH   2   3
ATOM      3  C   UNL     1       2.772  -2.722   3.473  0.00  0.00    +0.000 A 
ATOM      4  C   UNL     1       3.567  -1.994   4.364  0.00  0.00    +0.000 A 
ATOM      5  C   UNL     1       4.169  -2.637   5.447  0.00  0.00    +0.000 A 
ATOM      6  C   UNL     1       3.970  -4.002   5.630  0.00  0.00    +0.000 A 
ATOM      7  C   UNL     1       3.181  -4.736   4.751  0.00  0.00    +0.000 A 
ATOM      8  C   UNL     1       2.579  -4.094   3.667  0.00  0.00    +0.000 A 
ATOM      9  F   UNL     1       4.547  -4.618   6.670  0.00  0.00    +0.000 F 
ENDBRANCH   2   3
BRANCH   1  14
ATOM     10  C   UNL     1       0.308   1.467  -0.546  0.00  0.00    +0.000 C 
ATOM     11  C   UNL     1      -1.162   1.188  -0.226  0.00  0.00    +0.000 C 
ATOM     12  C   UNL     1      -1.438  -0.264   0.034  0.00  0.00    +0.000 C 
ATOM     13  C   UNL     1      -0.470  -1.167   0.255  0.00  0.00    +0.000 C 
ATOM     14  C   UNL     1       0.997  -0.819   0.298  0.00  0.00    +0.000 C 
ATOM     15  C   UNL     1       1.236   0.698   0.392  0.00  0.00    +0.000 C 
ENDBRANCH   1  14
TORSDOF 2
