REMARK  Name = *****
REMARK  5 active torsions:
REMARK  status: ('A' for Active; 'I' for Inactive)
REMARK    1  A    between atoms: C_1  and  C_2
REMARK    2  A    between atoms: C_4  and  C_8
REMARK    3  A    between atoms: C_5  and  C_7
REMARK    4  A    between atoms: C_9  and  C_10
REMARK    5  A    between atoms: C_9  and  C_12
REMARK                            x       y       z     vdW  Elec       q    Type
REMARK                         _______ _______ _______ _____ _____    ______ ____
ROOT
ATOM      1  C   UNL     1       1.301  -2.689  -0.046  0.00  0.00    +0.000 C 
ATOM      2  C   UNL     1       0.768  -3.929  -0.024  0.00  0.00    +0.000 C 
ENDROOT
BRANCH   1   6
ATOM      3  C   UNL     1      -2.127   0.893   1.162  0.00  0.00    +0.000 C 
ATOM      4  C   UNL     1      -0.958   0.200   0.552  0.00  0.00    +0.000 A 
ATOM      5  C   UNL     1      -0.544  -1.103   0.733  0.00  0.00    +0.000 A 
ATOM      6  C   UNL     1       0.620  -1.424  -0.033  0.00  0.00    +0.000 A 
ATOM      7  C   UNL     1       1.070  -0.331  -0.756  0.00  0.00    +0.000 A 
ATOM      8  S   UNL     1       0.070   1.041  -0.518  0.00  0.00    +0.000 S 
ATOM      9  C   UNL     1       2.249  -0.219  -1.668  0.00  0.00    +0.000 C 
ENDBRANCH   1   6
BRANCH   2  10
ATOM     10  C   UNL     1       1.684  -5.092  -0.057  0.00  0.00    +0.000 A 
ATOM     11  C   UNL     1       2.642  -5.281   0.955  0.00  0.00    +0.000 A 
ATOM     12  C   UNL     1       3.501  -6.382   0.920  0.00  0.00    +0.000 A 
ATOM     13  C   UNL     1       3.401  -7.298  -0.120  0.00  0.00    +0.000 A 
ATOM     14  C   UNL     1       2.457  -7.135  -1.127  0.00  0.00    +0.000 A 
ATOM     15  C   UNL     1       1.598  -6.034  -1.096  0.00  0.00    +0.000 A 
ATOM     16  F   UNL     1       4.225  -8.353  -0.152  0.00  0.00    +0.000 F 
ENDBRANCH   2  10
BRANCH   2  17
ATOM     17  C   UNL     1      -0.640  -4.175  -0.031  0.00  0.00    +0.000 C 
ATOM     18  N   UNL     1      -1.780  -4.395  -0.033  0.00  0.00    +0.000 NA
ENDBRANCH   2  17
TORSDOF 3
