REMARK  Name = *****
REMARK  5 active torsions:
REMARK  status: ('A' for Active; 'I' for Inactive)
REMARK    1  A    between atoms: C_4  and  O_7
REMARK    2  A    between atoms: O_7  and  P_8
REMARK    3  A    between atoms: P_8  and  C_9
REMARK    4  A    between atoms: P_8  and  O_11
REMARK    5  A    between atoms: O_11  and  C_12
REMARK                            x       y       z     vdW  Elec       q    Type
REMARK                         _______ _______ _______ _____ _____    ______ ____
ROOT
ATOM      1  P   UNL     1      -3.782  -1.351  -0.381  0.00  0.00    +0.000 P 
ENDROOT
BRANCH   1   2
ATOM      2  C   UNL     1      -3.790  -1.752   1.405  0.00  0.00    +0.000 C 
ATOM      3 CL   UNL     1      -4.924  -3.097   1.634  0.00  0.00    +0.000 Cl
ENDBRANCH   1   2
BRANCH   1   4
ATOM      4  O   UNL     1      -2.747  -0.107  -0.355  0.00  0.00    +0.000 OA
BRANCH   4   8
ATOM      5  C   UNL     1       1.414  -0.178  -0.506  0.00  0.00    +0.000 A 
ATOM      6  C   UNL     1       0.709  -1.244  -1.065  0.00  0.00    +0.000 A 
ATOM      7  C   UNL     1      -0.688  -1.255  -1.033  0.00  0.00    +0.000 A 
ATOM      8  C   UNL     1      -1.381  -0.201  -0.434  0.00  0.00    +0.000 A 
ATOM      9  C   UNL     1      -0.670   0.872   0.110  0.00  0.00    +0.000 A 
ATOM     10  C   UNL     1       0.725   0.882   0.079  0.00  0.00    +0.000 A 
ENDBRANCH   4   8
ENDBRANCH   1   4
BRANCH   1  11
ATOM     11  O   UNL     1      -5.156  -0.504  -0.464  0.00  0.00    +0.000 OA
BRANCH  11  12
ATOM     12  C   UNL     1      -5.798  -0.093  -1.604  0.00  0.00    +0.000 A 
ATOM     13  C   UNL     1      -5.438  -0.446  -2.907  0.00  0.00    +0.000 A 
ATOM     14  C   UNL     1      -6.178   0.032  -3.993  0.00  0.00    +0.000 A 
ATOM     15  C   UNL     1      -7.279   0.861  -3.781  0.00  0.00    +0.000 A 
ATOM     16  C   UNL     1      -7.643   1.214  -2.483  0.00  0.00    +0.000 A 
ATOM     17  C   UNL     1      -6.905   0.736  -1.399  0.00  0.00    +0.000 A 
ENDBRANCH  11  12
ENDBRANCH   1  11
TORSDOF 5
