REMARK  Name = *****
REMARK  3 active torsions:
REMARK  status: ('A' for Active; 'I' for Inactive)
REMARK    1  A    between atoms: C_4  and  O_7
REMARK    2  A    between atoms: O_7  and  P_8
REMARK    3  A    between atoms: P_8  and  C_9
REMARK                            x       y       z     vdW  Elec       q    Type
REMARK                         _______ _______ _______ _____ _____    ______ ____
ROOT
ATOM      1  P   UNL     1      -3.779  -0.993  -0.478  0.00  0.00    +0.000 P 
ATOM      2 BR   UNL     1      -5.575   0.234  -0.251  0.00  0.00    +0.000 Br
ENDROOT
BRANCH   1   3
ATOM      3  C   UNL     1      -3.929  -1.989   1.051  0.00  0.00    +0.000 A 
ATOM      4  C   UNL     1      -3.687  -1.463   2.330  0.00  0.00    +0.000 A 
ATOM      5  C   UNL     1      -3.808  -2.263   3.469  0.00  0.00    +0.000 A 
ATOM      6  C   UNL     1      -4.172  -3.602   3.346  0.00  0.00    +0.000 A 
ATOM      7  C   UNL     1      -4.417  -4.141   2.085  0.00  0.00    +0.000 A 
ATOM      8  C   UNL     1      -4.297  -3.341   0.946  0.00  0.00    +0.000 A 
ENDBRANCH   1   3
BRANCH   1   9
ATOM      9  O   UNL     1      -2.696   0.108  -0.003  0.00  0.00    +0.000 OA
BRANCH   9  13
ATOM     10  C   UNL     1       1.468   0.062  -0.183  0.00  0.00    +0.000 A 
ATOM     11  C   UNL     1       0.774  -1.070  -0.607  0.00  0.00    +0.000 A 
ATOM     12  C   UNL     1      -0.623  -1.097  -0.565  0.00  0.00    +0.000 A 
ATOM     13  C   UNL     1      -1.331   0.014  -0.099  0.00  0.00    +0.000 A 
ATOM     14  C   UNL     1      -0.628   1.146   0.327  0.00  0.00    +0.000 A 
ATOM     15  C   UNL     1       0.767   1.171   0.284  0.00  0.00    +0.000 A 
ENDBRANCH   9  13
ENDBRANCH   1   9
TORSDOF 3
