REMARK  Name = *****
REMARK  2 active torsions:
REMARK  status: ('A' for Active; 'I' for Inactive)
REMARK    1  A    between atoms: C_4  and  N_7
REMARK    2  A    between atoms: C_8  and  C_9
REMARK                            x       y       z     vdW  Elec       q    Type
REMARK                         _______ _______ _______ _____ _____    ______ ____
ROOT
ATOM      1  N   UNL     1      -2.689   0.500  -0.729  0.00  0.00    +0.000 NA
ATOM      2  C   UNL     1      -3.584  -0.305  -0.249  0.00  0.00    +0.000 C 
ENDROOT
BRANCH   2   3
ATOM      3  C   UNL     1      -5.020  -0.158  -0.527  0.00  0.00    +0.000 A 
ATOM      4  C   UNL     1      -5.546   0.877  -1.299  0.00  0.00    +0.000 A 
ATOM      5  C   UNL     1      -6.920   0.965  -1.528  0.00  0.00    +0.000 A 
ATOM      6  C   UNL     1      -7.785   0.014  -0.985  0.00  0.00    +0.000 A 
ATOM      7  C   UNL     1      -7.268  -1.024  -0.212  0.00  0.00    +0.000 A 
ATOM      8  C   UNL     1      -5.893  -1.103   0.012  0.00  0.00    +0.000 A 
ATOM      9  F   UNL     1      -5.428  -2.114   0.760  0.00  0.00    +0.000 F 
ATOM     10  F   UNL     1      -4.764   1.819  -1.842  0.00  0.00    +0.000 F 
ENDBRANCH   2   3
BRANCH   1  14
ATOM     11  C   UNL     1       1.298  -0.295   0.332  0.00  0.00    +0.000 A 
ATOM     12  C   UNL     1       0.723  -0.951  -0.756  0.00  0.00    +0.000 A 
ATOM     13  C   UNL     1      -0.602  -0.687  -1.108  0.00  0.00    +0.000 A 
ATOM     14  C   UNL     1      -1.362   0.224  -0.371  0.00  0.00    +0.000 A 
ATOM     15  C   UNL     1      -0.774   0.891   0.706  0.00  0.00    +0.000 A 
ATOM     16  C   UNL     1       0.551   0.630   1.062  0.00  0.00    +0.000 A 
ENDBRANCH   1  14
TORSDOF 2
