REMARK  Name = *****
REMARK  2 active torsions:
REMARK  status: ('A' for Active; 'I' for Inactive)
REMARK    1  A    between atoms: C_5  and  C_8
REMARK    2  A    between atoms: C_9  and  C_10
REMARK                            x       y       z     vdW  Elec       q    Type
REMARK                         _______ _______ _______ _____ _____    ______ ____
ROOT
ATOM      1  C   UNL     1      -0.745  -2.562   0.956  0.00  0.00    +0.000 C 
ATOM      2  C   UNL     1      -1.534  -3.498   1.512  0.00  0.00    +0.000 C 
ENDROOT
BRANCH   1   7
ATOM      3  C   UNL     1       1.673   0.407   0.097  0.00  0.00    +0.000 C 
ATOM      4  C   UNL     1       0.921   0.399  -1.008  0.00  0.00    +0.000 C 
ATOM      5  C   UNL     1      -0.498   0.189  -1.109  0.00  0.00    +0.000 C 
ATOM      6  C   UNL     1      -1.288  -0.461  -0.243  0.00  0.00    +0.000 C 
ATOM      7  C   UNL     1      -0.964  -1.076   1.094  0.00  0.00    +0.000 C 
ATOM      8  C   UNL     1       0.157  -0.446   1.880  0.00  0.00    +0.000 C 
ATOM      9  C   UNL     1       1.248   0.207   1.457  0.00  0.00    +0.000 C 
ENDBRANCH   1   7
BRANCH   2  10
ATOM     10  C   UNL     1      -1.326  -4.947   1.375  0.00  0.00    +0.000 A 
ATOM     11  C   UNL     1      -0.048  -5.521   1.340  0.00  0.00    +0.000 A 
ATOM     12  C   UNL     1       0.107  -6.907   1.244  0.00  0.00    +0.000 A 
ATOM     13  C   UNL     1      -1.013  -7.733   1.192  0.00  0.00    +0.000 A 
ATOM     14  C   UNL     1      -2.289  -7.176   1.242  0.00  0.00    +0.000 A 
ATOM     15  C   UNL     1      -2.444  -5.790   1.339  0.00  0.00    +0.000 A 
ENDBRANCH   2  10
TORSDOF 2
