REMARK  Name = *****
REMARK  3 active torsions:
REMARK  status: ('A' for Active; 'I' for Inactive)
REMARK    1  A    between atoms: C_4  and  C_7
REMARK    2  A    between atoms: C_8  and  S_10
REMARK    3  A    between atoms: S_10  and  C_11
REMARK                            x       y       z     vdW  Elec       q    Type
REMARK                         _______ _______ _______ _____ _____    ______ ____
ROOT
ATOM      1  C   UNL     1      -2.581  -0.182  -0.586  0.00  0.00    +0.000 C 
ATOM      2  C   UNL     1      -3.350  -1.262  -0.385  0.00  0.00    +0.000 C 
ATOM      3  F   UNL     1      -4.609  -1.207  -0.881  0.00  0.00    +0.000 F 
ENDROOT
BRANCH   1   7
ATOM      4  C   UNL     1       1.472   0.453   0.587  0.00  0.00    +0.000 A 
ATOM      5  C   UNL     1       1.133   0.375  -0.763  0.00  0.00    +0.000 A 
ATOM      6  C   UNL     1      -0.194   0.161  -1.140  0.00  0.00    +0.000 A 
ATOM      7  C   UNL     1      -1.190   0.018  -0.167  0.00  0.00    +0.000 A 
ATOM      8  C   UNL     1      -0.844   0.108   1.186  0.00  0.00    +0.000 A 
ATOM      9  C   UNL     1       0.484   0.321   1.561  0.00  0.00    +0.000 A 
ENDBRANCH   1   7
BRANCH   2  10
ATOM     10  S   UNL     1      -2.830  -2.704   0.423  0.00  0.00    +0.000 S 
BRANCH  10  11
ATOM     11  C   UNL     1      -4.347  -3.636   0.405  0.00  0.00    +0.000 A 
ATOM     12  C   UNL     1      -5.317  -3.433   1.392  0.00  0.00    +0.000 A 
ATOM     13  C   UNL     1      -6.498  -4.179   1.384  0.00  0.00    +0.000 A 
ATOM     14  C   UNL     1      -6.711  -5.137   0.394  0.00  0.00    +0.000 A 
ATOM     15  C   UNL     1      -5.744  -5.351  -0.588  0.00  0.00    +0.000 A 
ATOM     16  C   UNL     1      -4.563  -4.605  -0.581  0.00  0.00    +0.000 A 
ENDBRANCH  10  11
ENDBRANCH   2  10
TORSDOF 3
