REMARK  Name = *****
REMARK  2 active torsions:
REMARK  status: ('A' for Active; 'I' for Inactive)
REMARK    1  A    between atoms: C_5  and  C_7
REMARK    2  A    between atoms: C_9  and  C_10
REMARK                            x       y       z     vdW  Elec       q    Type
REMARK                         _______ _______ _______ _____ _____    ______ ____
ROOT
ATOM      1  C   UNL     1      -1.914  -1.658  -1.097  0.00  0.00    +0.000 C 
ATOM      2  C   UNL     1      -1.805  -1.559  -2.594  0.00  0.00    +0.000 C 
ATOM      3  C   UNL     1      -3.009  -0.971  -1.892  0.00  0.00    +0.000 C 
ENDROOT
BRANCH   1   8
ATOM      4  C   UNL     1       1.218  -0.960   1.028  0.00  0.00    +0.000 C 
ATOM      5  C   UNL     1       0.510  -1.045   2.381  0.00  0.00    +0.000 C 
ATOM      6  C   UNL     1      -0.941  -0.671   2.303  0.00  0.00    +0.000 C 
ATOM      7  C   UNL     1      -1.611  -0.565   1.146  0.00  0.00    +0.000 C 
ATOM      8  C   UNL     1      -0.998  -0.850  -0.207  0.00  0.00    +0.000 C 
ATOM      9  C   UNL     1       0.364  -1.565  -0.083  0.00  0.00    +0.000 C 
ENDBRANCH   1   8
BRANCH   3  10
ATOM     10  C   UNL     1      -4.361  -1.628  -2.034  0.00  0.00    +0.000 A 
ATOM     11  C   UNL     1      -5.101  -2.031  -0.909  0.00  0.00    +0.000 A 
ATOM     12  C   UNL     1      -6.359  -2.624  -1.038  0.00  0.00    +0.000 A 
ATOM     13  C   UNL     1      -6.909  -2.822  -2.301  0.00  0.00    +0.000 A 
ATOM     14  C   UNL     1      -6.202  -2.424  -3.432  0.00  0.00    +0.000 A 
ATOM     15  C   UNL     1      -4.944  -1.831  -3.296  0.00  0.00    +0.000 A 
ENDBRANCH   3  10
TORSDOF 2
