REMARK  Name = *****
REMARK  5 active torsions:
REMARK  status: ('A' for Active; 'I' for Inactive)
REMARK    1  A    between atoms: C_1  and  C_2
REMARK    2  A    between atoms: C_2  and  C_3
REMARK    3  A    between atoms: C_2  and  N_9
REMARK    4  A    between atoms: N_9  and  C_10
REMARK    5  A    between atoms: N_9  and  C_11
REMARK                            x       y       z     vdW  Elec       q    Type
REMARK                         _______ _______ _______ _____ _____    ______ ____
ROOT
ATOM      1  N   UNL     1       3.086   0.193  -1.399  0.00  0.00    +0.000 N 
ATOM      2  C   UNL     1       3.001  -0.749  -2.518  0.00  0.00    +0.000 C 
ENDROOT
BRANCH   1   3
ATOM      3  C   UNL     1       3.287   1.549  -1.692  0.00  0.00    +0.000 A 
ATOM      4  C   UNL     1       3.796   2.419  -0.711  0.00  0.00    +0.000 A 
ATOM      5  C   UNL     1       4.018   3.777  -0.969  0.00  0.00    +0.000 A 
ATOM      6  C   UNL     1       3.740   4.293  -2.228  0.00  0.00    +0.000 A 
ATOM      7  C   UNL     1       3.251   3.460  -3.226  0.00  0.00    +0.000 A 
ATOM      8  C   UNL     1       3.034   2.102  -2.959  0.00  0.00    +0.000 A 
ATOM      9 CL   UNL     1       4.008   5.960  -2.553  0.00  0.00    +0.000 Cl
ENDBRANCH   1   3
BRANCH   1  11
ATOM     10  C   UNL     1       0.775  -0.055  -0.526  0.00  0.00    +0.000 C 
ATOM     11  C   UNL     1       2.273  -0.119  -0.192  0.00  0.00    +0.000 C 
BRANCH  11  12
ATOM     12  C   UNL     1       2.755  -1.421   0.451  0.00  0.00    +0.000 A 
ATOM     13  C   UNL     1       1.922  -2.529   0.672  0.00  0.00    +0.000 A 
ATOM     14  C   UNL     1       2.418  -3.688   1.278  0.00  0.00    +0.000 A 
ATOM     15  C   UNL     1       3.751  -3.758   1.675  0.00  0.00    +0.000 A 
ATOM     16  C   UNL     1       4.593  -2.670   1.466  0.00  0.00    +0.000 A 
ATOM     17  C   UNL     1       4.099  -1.512   0.862  0.00  0.00    +0.000 A 
ENDBRANCH  11  12
ENDBRANCH   1  11
TORSDOF 3
