REMARK  Name = *****
REMARK  5 active torsions:
REMARK  status: ('A' for Active; 'I' for Inactive)
REMARK    1  A    between atoms: C_4  and  C_7
REMARK    2  A    between atoms: C_7  and  C_8
REMARK    3  A    between atoms: C_7  and  O_16
REMARK    4  A    between atoms: C_8  and  C_9
REMARK    5  A    between atoms: O_16  and  C_17
REMARK                            x       y       z     vdW  Elec       q    Type
REMARK                         _______ _______ _______ _____ _____    ______ ____
ROOT
ATOM      1  C   UNL     1      -2.861   0.498  -0.221  0.00  0.00    +0.000 C 
ENDROOT
BRANCH   1   5
ATOM      2  C   UNL     1       1.300  -0.620   0.249  0.00  0.00    +0.000 A 
ATOM      3  C   UNL     1       0.674   0.179   1.203  0.00  0.00    +0.000 A 
ATOM      4  C   UNL     1      -0.667   0.534   1.050  0.00  0.00    +0.000 A 
ATOM      5  C   UNL     1      -1.399   0.097  -0.066  0.00  0.00    +0.000 A 
ATOM      6  C   UNL     1      -0.757  -0.714  -1.016  0.00  0.00    +0.000 A 
ATOM      7  C   UNL     1       0.585  -1.068  -0.859  0.00  0.00    +0.000 A 
ENDBRANCH   1   5
BRANCH   1   8
ATOM      8  C   UNL     1      -3.120   1.394  -1.457  0.00  0.00    +0.000 C 
ATOM      9 BR   UNL     1      -2.220   3.137  -1.254  0.00  0.00    +0.000 Br
BRANCH   8  10
ATOM     10  C   UNL     1      -4.581   1.684  -1.750  0.00  0.00    +0.000 A 
ATOM     11  C   UNL     1      -5.468   2.131  -0.756  0.00  0.00    +0.000 A 
ATOM     12  C   UNL     1      -6.809   2.381  -1.055  0.00  0.00    +0.000 A 
ATOM     13  C   UNL     1      -7.283   2.195  -2.351  0.00  0.00    +0.000 A 
ATOM     14  C   UNL     1      -6.416   1.760  -3.351  0.00  0.00    +0.000 A 
ATOM     15  C   UNL     1      -5.075   1.508  -3.053  0.00  0.00    +0.000 A 
ENDBRANCH   8  10
ENDBRANCH   1   8
BRANCH   1  16
ATOM     16  O   UNL     1      -3.595  -0.741  -0.377  0.00  0.00    +0.000 OA
BRANCH  16  17
ATOM     17  C   UNL     1      -4.517  -1.018   0.574  0.00  0.00    +0.000 C 
ATOM     18  O   UNL     1      -4.796  -0.339   1.549  0.00  0.00    +0.000 OA
ENDBRANCH  16  17
ENDBRANCH   1  16
TORSDOF 5
