REMARK  Name = *****
REMARK  6 active torsions:
REMARK  status: ('A' for Active; 'I' for Inactive)
REMARK    1  A    between atoms: C_1  and  C_2
REMARK    2  A    between atoms: C_3  and  N_16
REMARK    3  A    between atoms: C_4  and  C_8
REMARK    4  A    between atoms: C_9  and  C_10
REMARK    5  A    between atoms: N_16  and  C_17
REMARK    6  A    between atoms: N_16  and  C_18
REMARK                            x       y       z     vdW  Elec       q    Type
REMARK                         _______ _______ _______ _____ _____    ______ ____
ROOT
ATOM      1  C   UNL     1       0.856   0.243   0.018  0.00  0.00    +0.000 C 
ATOM      2  C   UNL     1       2.357   0.114  -0.004  0.00  0.00    +0.000 A 
ATOM      3  C   UNL     1       2.974  -1.164  -0.044  0.00  0.00    +0.000 A 
ATOM      4  C   UNL     1       4.389  -1.223  -0.063  0.00  0.00    +0.000 A 
ATOM      5  C   UNL     1       5.148  -0.043  -0.044  0.00  0.00    +0.000 A 
ATOM      6  C   UNL     1       4.528   1.202  -0.005  0.00  0.00    +0.000 A 
ATOM      7  C   UNL     1       3.140   1.280   0.015  0.00  0.00    +0.000 A 
ENDROOT
BRANCH   3   8
ATOM      8  N   UNL     1       2.115  -2.289  -0.056  0.00  0.00    +0.000 N 
ATOM      9  C   UNL     1       2.156  -3.063   1.183  0.00  0.00    +0.000 C 
ATOM     10  C   UNL     1       2.179  -3.072  -1.288  0.00  0.00    +0.000 C 
ENDBRANCH   3   8
BRANCH   4  11
ATOM     11  C   UNL     1       5.123  -2.456  -0.101  0.00  0.00    +0.000 C 
ATOM     12  C   UNL     1       5.756  -3.478  -0.137  0.00  0.00    +0.000 C 
BRANCH  12  13
ATOM     13  C   UNL     1       6.500  -4.697  -0.186  0.00  0.00    +0.000 A 
ATOM     14  C   UNL     1       7.794  -4.707  -0.712  0.00  0.00    +0.000 A 
ATOM     15  C   UNL     1       8.520  -5.899  -0.761  0.00  0.00    +0.000 A 
ATOM     16  C   UNL     1       7.952  -7.081  -0.285  0.00  0.00    +0.000 A 
ATOM     17  C   UNL     1       6.660  -7.074   0.240  0.00  0.00    +0.000 A 
ATOM     18  C   UNL     1       5.934  -5.882   0.290  0.00  0.00    +0.000 A 
ENDBRANCH  12  13
ENDBRANCH   4  11
TORSDOF 3
