REMARK  Name = *****
REMARK  3 active torsions:
REMARK  status: ('A' for Active; 'I' for Inactive)
REMARK    1  A    between atoms: C_4  and  C_5
REMARK    2  A    between atoms: C_5  and  C_6
REMARK    3  A    between atoms: C_6  and  C_7
REMARK                            x       y       z     vdW  Elec       q    Type
REMARK                         _______ _______ _______ _____ _____    ______ ____
ROOT
ATOM      1  C   UNL     1      -2.386   0.664  -0.011  0.00  0.00    +0.000 C 
ENDROOT
BRANCH   1   5
ATOM      2  C   UNL     1       0.382   1.033  -0.018  0.00  0.00    +0.000 C 
ATOM      3  C   UNL     1       1.089  -0.331   0.018  0.00  0.00    +0.000 C 
ATOM      4  C   UNL     1      -0.296  -0.941   0.024  0.00  0.00    +0.000 C 
ATOM      5  C   UNL     1      -0.920   0.255  -0.001  0.00  0.00    +0.000 C 
ATOM      6 CL   UNL     1      -0.866  -2.574   0.057  0.00  0.00    +0.000 Cl
ENDBRANCH   1   5
BRANCH   1   7
ATOM      7  C   UNL     1      -2.609   2.157  -0.019  0.00  0.00    +0.000 C 
BRANCH   7   8
ATOM      8  C   UNL     1      -4.075   2.566  -0.030  0.00  0.00    +0.000 C 
ATOM      9  C   UNL     1      -4.699   3.762  -0.038  0.00  0.00    +0.000 C 
ATOM     10  C   UNL     1      -6.084   3.153  -0.044  0.00  0.00    +0.000 C 
ATOM     11  C   UNL     1      -5.377   1.788  -0.034  0.00  0.00    +0.000 C 
ATOM     12 CL   UNL     1      -4.128   5.396  -0.040  0.00  0.00    +0.000 Cl
ENDBRANCH   7   8
ENDBRANCH   1   7
TORSDOF 3
