REMARK  Name = *****
REMARK  4 active torsions:
REMARK  status: ('A' for Active; 'I' for Inactive)
REMARK    1  A    between atoms: C_4  and  S_7
REMARK    2  A    between atoms: S_7  and  C_9
REMARK    3  A    between atoms: C_9  and  C_10
REMARK    4  A    between atoms: C_10  and  C_11
REMARK                            x       y       z     vdW  Elec       q    Type
REMARK                         _______ _______ _______ _____ _____    ______ ____
ROOT
ATOM      1  C   UNL     1      -3.977  -0.899  -0.305  0.00  0.00    +0.000 C 
ENDROOT
BRANCH   1   2
ATOM      2  S   UNL     1      -3.243   0.737   0.034  0.00  0.00    +0.000 S 
ATOM      3  O   UNL     1      -3.316   1.528  -1.240  0.00  0.00    +0.000 OA
BRANCH   2   7
ATOM      4  C   UNL     1       1.127  -0.662   0.452  0.00  0.00    +0.000 A 
ATOM      5  C   UNL     1       0.724   0.016  -0.698  0.00  0.00    +0.000 A 
ATOM      6  C   UNL     1      -0.599   0.441  -0.831  0.00  0.00    +0.000 A 
ATOM      7  C   UNL     1      -1.527   0.186   0.184  0.00  0.00    +0.000 A 
ATOM      8  C   UNL     1      -1.114  -0.486   1.340  0.00  0.00    +0.000 A 
ATOM      9  C   UNL     1       0.210  -0.912   1.471  0.00  0.00    +0.000 A 
ENDBRANCH   2   7
ENDBRANCH   1   2
BRANCH   1  10
ATOM     10  C   UNL     1      -5.469  -0.752  -0.582  0.00  0.00    +0.000 C 
BRANCH  10  11
ATOM     11  C   UNL     1      -6.119  -2.094  -0.817  0.00  0.00    +0.000 A 
ATOM     12  C   UNL     1      -6.645  -2.827   0.257  0.00  0.00    +0.000 A 
ATOM     13  C   UNL     1      -7.228  -4.078   0.040  0.00  0.00    +0.000 A 
ATOM     14  C   UNL     1      -7.285  -4.601  -1.250  0.00  0.00    +0.000 A 
ATOM     15  C   UNL     1      -6.763  -3.886  -2.325  0.00  0.00    +0.000 A 
ATOM     16  C   UNL     1      -6.179  -2.636  -2.109  0.00  0.00    +0.000 A 
ATOM     17 CL   UNL     1      -8.003  -6.142  -1.516  0.00  0.00    +0.000 Cl
ENDBRANCH  10  11
ENDBRANCH   1  10
TORSDOF 4
