REMARK  Name = *****
REMARK  4 active torsions:
REMARK  status: ('A' for Active; 'I' for Inactive)
REMARK    1  A    between atoms: C_4  and  C_7
REMARK    2  A    between atoms: C_7  and  C_9
REMARK    3  A    between atoms: C_9  and  C_10
REMARK    4  A    between atoms: C_10  and  C_11
REMARK                            x       y       z     vdW  Elec       q    Type
REMARK                         _______ _______ _______ _____ _____    ______ ____
ROOT
ATOM      1  C   UNL     1      -3.808  -0.647  -0.268  0.00  0.00    +0.000 C 
ENDROOT
BRANCH   1   2
ATOM      2  C   UNL     1      -2.834   0.511  -0.152  0.00  0.00    +0.000 C 
ATOM      3  O   UNL     1      -3.206   1.683  -0.156  0.00  0.00    +0.000 OA
BRANCH   2   7
ATOM      4  C   UNL     1       1.375  -0.264   0.226  0.00  0.00    +0.000 A 
ATOM      5  C   UNL     1       0.473  -1.322   0.329  0.00  0.00    +0.000 A 
ATOM      6  C   UNL     1      -0.900  -1.090   0.209  0.00  0.00    +0.000 A 
ATOM      7  C   UNL     1      -1.377   0.207  -0.016  0.00  0.00    +0.000 A 
ATOM      8  C   UNL     1      -0.463   1.266  -0.113  0.00  0.00    +0.000 A 
ATOM      9  C   UNL     1       0.908   1.030   0.005  0.00  0.00    +0.000 A 
ENDBRANCH   2   7
ENDBRANCH   1   2
BRANCH   1  10
ATOM     10  C   UNL     1      -5.216  -0.164  -0.621  0.00  0.00    +0.000 C 
BRANCH  10  11
ATOM     11  C   UNL     1      -6.182  -1.319  -0.768  0.00  0.00    +0.000 A 
ATOM     12  C   UNL     1      -6.949  -1.704   0.346  0.00  0.00    +0.000 A 
ATOM     13  C   UNL     1      -7.842  -2.774   0.266  0.00  0.00    +0.000 A 
ATOM     14  C   UNL     1      -7.981  -3.478  -0.926  0.00  0.00    +0.000 A 
ATOM     15  C   UNL     1      -7.224  -3.114  -2.039  0.00  0.00    +0.000 A 
ATOM     16  C   UNL     1      -6.328  -2.044  -1.962  0.00  0.00    +0.000 A 
ATOM     17 CL   UNL     1      -5.414  -1.665  -3.380  0.00  0.00    +0.000 Cl
ENDBRANCH  10  11
ENDBRANCH   1  10
TORSDOF 4
