REMARK  Name = *****
REMARK  5 active torsions:
REMARK  status: ('A' for Active; 'I' for Inactive)
REMARK    1  A    between atoms: C_1  and  C_2
REMARK    2  A    between atoms: C_3  and  C_18
REMARK    3  A    between atoms: C_5  and  O_8
REMARK    4  A    between atoms: O_8  and  C_9
REMARK    5  A    between atoms: C_9  and  C_11
REMARK                            x       y       z     vdW  Elec       q    Type
REMARK                         _______ _______ _______ _____ _____    ______ ____
ROOT
ATOM      1  O   UNL     1      -3.158  -0.849   0.718  0.00  0.00    +0.000 OA
ENDROOT
BRANCH   1   6
ATOM      2  C   UNL     1       2.046   1.260  -0.248  0.00  0.00    +0.000 C 
ATOM      3  C   UNL     1       0.675   0.690  -0.007  0.00  0.00    +0.000 A 
ATOM      4  C   UNL     1       0.433  -0.699  -0.080  0.00  0.00    +0.000 A 
ATOM      5  C   UNL     1      -0.864  -1.183   0.149  0.00  0.00    +0.000 A 
ATOM      6  C   UNL     1      -1.900  -0.298   0.437  0.00  0.00    +0.000 A 
ATOM      7  C   UNL     1      -1.668   1.069   0.540  0.00  0.00    +0.000 A 
ATOM      8  C   UNL     1      -0.383   1.560   0.310  0.00  0.00    +0.000 A 
ATOM      9  C   UNL     1       1.535  -1.671  -0.405  0.00  0.00    +0.000 C 
ENDBRANCH   1   6
BRANCH   1  10
ATOM     10  C   UNL     1      -4.209  -0.413  -0.067  0.00  0.00    +0.000 C 
ATOM     11  O   UNL     1      -4.165   0.385  -0.991  0.00  0.00    +0.000 OA
BRANCH  10  12
ATOM     12  C   UNL     1      -5.471  -1.073   0.373  0.00  0.00    +0.000 A 
ATOM     13  C   UNL     1      -5.516  -1.995   1.432  0.00  0.00    +0.000 A 
ATOM     14  C   UNL     1      -6.731  -2.582   1.798  0.00  0.00    +0.000 A 
ATOM     15  C   UNL     1      -7.893  -2.249   1.111  0.00  0.00    +0.000 A 
ATOM     16  C   UNL     1      -7.867  -1.338   0.062  0.00  0.00    +0.000 A 
ATOM     17  C   UNL     1      -6.656  -0.750  -0.309  0.00  0.00    +0.000 A 
ATOM     18  F   UNL     1      -9.054  -2.814   1.466  0.00  0.00    +0.000 F 
ENDBRANCH  10  12
ENDBRANCH   1  10
TORSDOF 3
