REMARK  Name = *****
REMARK  4 active torsions:
REMARK  status: ('A' for Active; 'I' for Inactive)
REMARK    1  A    between atoms: C_1  and  C_2
REMARK    2  A    between atoms: C_5  and  S_8
REMARK    3  A    between atoms: S_8  and  O_10
REMARK    4  A    between atoms: O_10  and  C_11
REMARK                            x       y       z     vdW  Elec       q    Type
REMARK                         _______ _______ _______ _____ _____    ______ ____
ROOT
ATOM      1  S   UNL     1      -3.400   0.509   1.136  0.00  0.00    +0.000 S 
ATOM      2  O   UNL     1      -3.493   1.664   2.090  0.00  0.00    +0.000 OA
ENDROOT
BRANCH   1   7
ATOM      3  C   UNL     1       2.131   0.827  -1.468  0.00  0.00    +0.000 C 
ATOM      4  C   UNL     1       0.788   0.743  -0.804  0.00  0.00    +0.000 A 
ATOM      5  C   UNL     1      -0.037  -0.369  -1.015  0.00  0.00    +0.000 A 
ATOM      6  C   UNL     1      -1.303  -0.433  -0.426  0.00  0.00    +0.000 A 
ATOM      7  C   UNL     1      -1.762   0.618   0.375  0.00  0.00    +0.000 A 
ATOM      8  C   UNL     1      -0.944   1.734   0.578  0.00  0.00    +0.000 A 
ATOM      9  C   UNL     1       0.320   1.799  -0.014  0.00  0.00    +0.000 A 
ENDBRANCH   1   7
BRANCH   1  10
ATOM     10  O   UNL     1      -4.140   0.949  -0.227  0.00  0.00    +0.000 OA
BRANCH  10  11
ATOM     11  C   UNL     1      -5.515   1.298  -0.093  0.00  0.00    +0.000 C 
ATOM     12  C   UNL     1      -6.411   0.065  -0.329  0.00  0.00    +0.000 C 
ATOM     13  C   UNL     1      -7.216   0.456  -1.582  0.00  0.00    +0.000 C 
ATOM     14  C   UNL     1      -8.213   1.568  -1.212  0.00  0.00    +0.000 C 
ATOM     15  C   UNL     1      -7.307   2.791  -1.009  0.00  0.00    +0.000 C 
ATOM     16  C   UNL     1      -5.902   2.224  -1.268  0.00  0.00    +0.000 C 
ATOM     17  C   UNL     1      -6.176   1.224  -2.394  0.00  0.00    +0.000 C 
ENDBRANCH  10  11
ENDBRANCH   1  10
TORSDOF 3
