REMARK  Name = *****
REMARK  5 active torsions:
REMARK  status: ('A' for Active; 'I' for Inactive)
REMARK    1  A    between atoms: C_1  and  C_2
REMARK    2  A    between atoms: C_3  and  C_10
REMARK    3  A    between atoms: C_4  and  O_8
REMARK    4  A    between atoms: O_8  and  C_9
REMARK    5  A    between atoms: C_11  and  C_12
REMARK                            x       y       z     vdW  Elec       q    Type
REMARK                         _______ _______ _______ _____ _____    ______ ____
ROOT
ATOM      1  C   UNL     1       0.927  -0.041   0.148  0.00  0.00    +0.000 C 
ATOM      2  C   UNL     1       2.428  -0.127   0.190  0.00  0.00    +0.000 A 
ATOM      3  C   UNL     1       3.092  -1.361   0.338  0.00  0.00    +0.000 A 
ATOM      4  C   UNL     1       4.496  -1.390   0.362  0.00  0.00    +0.000 A 
ATOM      5  C   UNL     1       5.239  -0.211   0.285  0.00  0.00    +0.000 A 
ATOM      6  C   UNL     1       4.583   1.009   0.142  0.00  0.00    +0.000 A 
ATOM      7  C   UNL     1       3.189   1.051   0.090  0.00  0.00    +0.000 A 
ENDROOT
BRANCH   4   8
ATOM      8  O   UNL     1       5.174  -2.572   0.538  0.00  0.00    +0.000 OA
ATOM      9  C   UNL     1       5.577  -3.097  -0.727  0.00  0.00    +0.000 C 
ENDBRANCH   4   8
BRANCH   3  10
ATOM     10  C   UNL     1       2.347  -2.582   0.460  0.00  0.00    +0.000 C 
ATOM     11  C   UNL     1       1.731  -3.608   0.561  0.00  0.00    +0.000 C 
BRANCH  11  12
ATOM     12  C   UNL     1       1.006  -4.835   0.680  0.00  0.00    +0.000 A 
ATOM     13  C   UNL     1       1.683  -6.020   0.977  0.00  0.00    +0.000 A 
ATOM     14  C   UNL     1       0.976  -7.219   1.092  0.00  0.00    +0.000 A 
ATOM     15  C   UNL     1      -0.407  -7.233   0.911  0.00  0.00    +0.000 A 
ATOM     16  C   UNL     1      -1.085  -6.050   0.615  0.00  0.00    +0.000 A 
ATOM     17  C   UNL     1      -0.379  -4.851   0.499  0.00  0.00    +0.000 A 
ENDBRANCH  11  12
ENDBRANCH   3  10
TORSDOF 3
