REMARK  Name = *****
REMARK  4 active torsions:
REMARK  status: ('A' for Active; 'I' for Inactive)
REMARK    1  A    between atoms: C_1  and  C_2
REMARK    2  A    between atoms: C_4  and  O_8
REMARK    3  A    between atoms: O_8  and  C_9
REMARK    4  A    between atoms: C_9  and  C_11
REMARK                            x       y       z     vdW  Elec       q    Type
REMARK                         _______ _______ _______ _____ _____    ______ ____
ROOT
ATOM      1  C   UNL     1      -1.378   3.538  -0.627  0.00  0.00    +0.000 C 
ATOM      2  O   UNL     1      -0.502   3.522  -1.480  0.00  0.00    +0.000 OA
ENDROOT
BRANCH   1   3
ATOM      3  C   UNL     1      -2.197   4.740  -0.360  0.00  0.00    +0.000 A 
ATOM      4  C   UNL     1      -3.484   4.669   0.180  0.00  0.00    +0.000 A 
ATOM      5  C   UNL     1      -4.225   5.826   0.411  0.00  0.00    +0.000 A 
ATOM      6  C   UNL     1      -3.675   7.059   0.089  0.00  0.00    +0.000 A 
ATOM      7  C   UNL     1      -2.401   7.156  -0.463  0.00  0.00    +0.000 A 
ATOM      8  C   UNL     1      -1.660   5.994  -0.693  0.00  0.00    +0.000 A 
ATOM      9  F   UNL     1      -4.383   8.174   0.307  0.00  0.00    +0.000 F 
ATOM     10  F   UNL     1      -4.056   3.491   0.466  0.00  0.00    +0.000 F 
ENDBRANCH   1   3
BRANCH   1  11
ATOM     11  O   UNL     1      -1.713   2.536   0.262  0.00  0.00    +0.000 OA
BRANCH  11  15
ATOM     12  C   UNL     1       2.520  -0.044   0.391  0.00  0.00    +0.000 C 
ATOM     13  C   UNL     1       1.034   0.040   0.212  0.00  0.00    +0.000 A 
ATOM     14  C   UNL     1       0.377   1.274   0.296  0.00  0.00    +0.000 A 
ATOM     15  C   UNL     1      -1.008   1.331   0.138  0.00  0.00    +0.000 A 
ATOM     16  C   UNL     1      -1.760   0.174  -0.050  0.00  0.00    +0.000 A 
ATOM     17  C   UNL     1      -1.112  -1.058  -0.116  0.00  0.00    +0.000 A 
ATOM     18  C   UNL     1       0.277  -1.124   0.016  0.00  0.00    +0.000 A 
ENDBRANCH  11  15
ENDBRANCH   1  11
TORSDOF 3
