REMARK  Name = *****
REMARK  4 active torsions:
REMARK  status: ('A' for Active; 'I' for Inactive)
REMARK    1  A    between atoms: C_6  and  C_7
REMARK    2  A    between atoms: C_8  and  C_9
REMARK    3  A    between atoms: C_9  and  S_10
REMARK    4  A    between atoms: S_10  and  C_11
REMARK                            x       y       z     vdW  Elec       q    Type
REMARK                         _______ _______ _______ _____ _____    ______ ____
ROOT
ATOM      1  C   UNL     1      -3.417  -0.037  -0.109  0.00  0.00    +0.000 C 
ATOM      2  C   UNL     1      -4.224   1.009   0.130  0.00  0.00    +0.000 C 
ENDROOT
BRANCH   1   8
ATOM      3  C   UNL     1      -1.228   1.121  -0.542  0.00  0.00    +0.000 A 
ATOM      4  C   UNL     1       0.168   1.131  -0.490  0.00  0.00    +0.000 A 
ATOM      5  C   UNL     1       0.842   0.042   0.049  0.00  0.00    +0.000 A 
ATOM      6  C   UNL     1       0.147  -1.058   0.534  0.00  0.00    +0.000 A 
ATOM      7  C   UNL     1      -1.249  -1.069   0.482  0.00  0.00    +0.000 A 
ATOM      8  C   UNL     1      -1.950   0.026  -0.044  0.00  0.00    +0.000 A 
ATOM      9  F   UNL     1       2.180   0.052   0.096  0.00  0.00    +0.000 F 
ENDBRANCH   1   8
BRANCH   2  10
ATOM     10  C   UNL     1      -5.721   0.939   0.065  0.00  0.00    +0.000 C 
BRANCH  10  11
ATOM     11  S   UNL     1      -6.397   1.232   1.713  0.00  0.00    +0.000 S 
BRANCH  11  12
ATOM     12  C   UNL     1      -8.115   1.060   1.272  0.00  0.00    +0.000 C 
ATOM     13  F   UNL     1      -8.477   1.964   0.333  0.00  0.00    +0.000 F 
ATOM     14  F   UNL     1      -8.376  -0.170   0.769  0.00  0.00    +0.000 F 
ATOM     15  F   UNL     1      -8.923   1.240   2.342  0.00  0.00    +0.000 F 
ENDBRANCH  11  12
ENDBRANCH  10  11
ENDBRANCH   2  10
TORSDOF 4
