REMARK  Name = *****
REMARK  3 active torsions:
REMARK  status: ('A' for Active; 'I' for Inactive)
REMARK    1  A    between atoms: C_4  and  C_7
REMARK    2  A    between atoms: C_7  and  O_8
REMARK    3  A    between atoms: O_8  and  C_9
REMARK                            x       y       z     vdW  Elec       q    Type
REMARK                         _______ _______ _______ _____ _____    ______ ____
ROOT
ATOM      1  C   UNL     1      -2.880   0.409  -0.299  0.00  0.00    +0.000 C 
ENDROOT
BRANCH   1   5
ATOM      2  C   UNL     1       1.373  -0.170   0.136  0.00  0.00    +0.000 A 
ATOM      3  C   UNL     1       0.523  -1.272   0.059  0.00  0.00    +0.000 A 
ATOM      4  C   UNL     1      -0.852  -1.085  -0.085  0.00  0.00    +0.000 A 
ATOM      5  C   UNL     1      -1.390   0.207  -0.162  0.00  0.00    +0.000 A 
ATOM      6  C   UNL     1      -0.527   1.309  -0.069  0.00  0.00    +0.000 A 
ATOM      7  C   UNL     1       0.848   1.119   0.075  0.00  0.00    +0.000 A 
ENDBRANCH   1   5
BRANCH   1   8
ATOM      8  O   UNL     1      -3.439   0.421   1.011  0.00  0.00    +0.000 OA
BRANCH   8   9
ATOM      9  C   UNL     1      -4.785   0.586   1.056  0.00  0.00    +0.000 A 
ATOM     10  N   UNL     1      -5.473   0.731  -0.076  0.00  0.00    +0.000 NA
ATOM     11  S   UNL     1      -7.080   0.912   0.306  0.00  0.00    +0.000 S 
ATOM     12  C   UNL     1      -6.879   0.798   2.002  0.00  0.00    +0.000 A 
ATOM     13  C   UNL     1      -5.541   0.618   2.258  0.00  0.00    +0.000 A 
ATOM     14 BR   UNL     1      -4.790   0.435   3.975  0.00  0.00    +0.000 Br
ENDBRANCH   8   9
ENDBRANCH   1   8
TORSDOF 3
