REMARK  Name = *****
REMARK  5 active torsions:
REMARK  status: ('A' for Active; 'I' for Inactive)
REMARK    1  A    between atoms: C_1  and  N_2
REMARK    2  A    between atoms: N_2  and  C_3
REMARK    3  A    between atoms: N_2  and  C_4
REMARK    4  A    between atoms: C_8  and  C_10
REMARK    5  A    between atoms: C_11  and  C_12
REMARK                            x       y       z     vdW  Elec       q    Type
REMARK                         _______ _______ _______ _____ _____    ______ ____
ROOT
ATOM      1  C   UNL     1       3.021   0.933  -0.946  0.00  0.00    +0.000 A 
ATOM      2  C   UNL     1       2.415   2.189  -1.118  0.00  0.00    +0.000 A 
ATOM      3  C   UNL     1       3.006   3.206  -1.877  0.00  0.00    +0.000 A 
ATOM      4  C   UNL     1       4.231   2.993  -2.499  0.00  0.00    +0.000 A 
ATOM      5  C   UNL     1       4.874   1.763  -2.361  0.00  0.00    +0.000 A 
ATOM      6  C   UNL     1       4.253   0.750  -1.605  0.00  0.00    +0.000 A 
ENDROOT
BRANCH   1   8
ATOM      7  C   UNL     1       1.241   0.210   0.607  0.00  0.00    +0.000 C 
ATOM      8  N   UNL     1       2.417  -0.093  -0.206  0.00  0.00    +0.000 N 
ATOM      9  C   UNL     1       3.250  -1.195   0.273  0.00  0.00    +0.000 C 
ENDBRANCH   1   8
BRANCH   5  10
ATOM     10  C   UNL     1       6.147   1.467  -3.037  0.00  0.00    +0.000 C 
ATOM     11  C   UNL     1       7.149   2.353  -3.169  0.00  0.00    +0.000 C 
BRANCH  11  12
ATOM     12  C   UNL     1       8.426   2.053  -3.831  0.00  0.00    +0.000 A 
ATOM     13  C   UNL     1       8.506   1.252  -4.978  0.00  0.00    +0.000 A 
ATOM     14  C   UNL     1       9.736   1.017  -5.598  0.00  0.00    +0.000 A 
ATOM     15  C   UNL     1      10.898   1.590  -5.084  0.00  0.00    +0.000 A 
ATOM     16  C   UNL     1      10.830   2.401  -3.954  0.00  0.00    +0.000 A 
ATOM     17  C   UNL     1       9.600   2.636  -3.335  0.00  0.00    +0.000 A 
ENDBRANCH  11  12
ENDBRANCH   5  10
TORSDOF 3
