REMARK  Name = *****
REMARK  2 active torsions:
REMARK  status: ('A' for Active; 'I' for Inactive)
REMARK    1  A    between atoms: C_2  and  C_11
REMARK    2  A    between atoms: N_3  and  C_4
REMARK                            x       y       z     vdW  Elec       q    Type
REMARK                         _______ _______ _______ _____ _____    ______ ____
ROOT
ATOM      1  C   UNL     1      -0.249   0.559   0.255  0.00  0.00    +0.000 C 
ATOM      2  C   UNL     1       0.484  -0.774   0.284  0.00  0.00    +0.000 C 
ATOM      3  N   UNL     1      -0.917  -0.653   0.699  0.00  0.00    +0.000 N 
ENDROOT
BRANCH   3   4
ATOM      4  C   UNL     1      -1.931  -1.226  -0.105  0.00  0.00    +0.000 A 
ATOM      5  C   UNL     1      -1.879  -2.581  -0.467  0.00  0.00    +0.000 A 
ATOM      6  C   UNL     1      -2.899  -3.155  -1.229  0.00  0.00    +0.000 A 
ATOM      7  C   UNL     1      -3.985  -2.379  -1.613  0.00  0.00    +0.000 A 
ATOM      8  C   UNL     1      -4.074  -1.043  -1.243  0.00  0.00    +0.000 A 
ATOM      9  C   UNL     1      -3.052  -0.471  -0.482  0.00  0.00    +0.000 A 
ATOM     10  F   UNL     1      -4.965  -2.929  -2.341  0.00  0.00    +0.000 F 
ENDBRANCH   3   4
BRANCH   2  11
ATOM     11  C   UNL     1       1.522  -1.027   1.344  0.00  0.00    +0.000 A 
ATOM     12  C   UNL     1       1.306  -1.938   2.392  0.00  0.00    +0.000 A 
ATOM     13  C   UNL     1       2.282  -2.180   3.363  0.00  0.00    +0.000 A 
ATOM     14  C   UNL     1       3.502  -1.514   3.303  0.00  0.00    +0.000 A 
ATOM     15  C   UNL     1       3.745  -0.609   2.274  0.00  0.00    +0.000 A 
ATOM     16  C   UNL     1       2.765  -0.371   1.307  0.00  0.00    +0.000 A 
ENDBRANCH   2  11
TORSDOF 2
