REMARK  Name = *****
REMARK  6 active torsions:
REMARK  status: ('A' for Active; 'I' for Inactive)
REMARK    1  A    between atoms: C_1  and  C_2
REMARK    2  A    between atoms: C_4  and  C_18
REMARK    3  A    between atoms: C_5  and  C_8
REMARK    4  A    between atoms: C_8  and  O_9
REMARK    5  A    between atoms: O_9  and  C_10
REMARK    6  A    between atoms: C_10  and  C_12
REMARK                            x       y       z     vdW  Elec       q    Type
REMARK                         _______ _______ _______ _____ _____    ______ ____
ROOT
ATOM      1  C   UNL     1      -2.407  -1.922  -0.134  0.00  0.00    +0.000 C 
ENDROOT
BRANCH   1   6
ATOM      2  C   UNL     1      -0.654   0.385   4.929  0.00  0.00    +0.000 C 
ATOM      3  C   UNL     1      -1.092  -0.243   3.640  0.00  0.00    +0.000 A 
ATOM      4  C   UNL     1      -0.146  -0.681   2.705  0.00  0.00    +0.000 A 
ATOM      5  C   UNL     1      -0.538  -1.236   1.474  0.00  0.00    +0.000 A 
ATOM      6  C   UNL     1      -1.912  -1.339   1.169  0.00  0.00    +0.000 A 
ATOM      7  C   UNL     1      -2.854  -0.898   2.113  0.00  0.00    +0.000 A 
ATOM      8  C   UNL     1      -2.449  -0.348   3.330  0.00  0.00    +0.000 A 
ATOM      9  C   UNL     1       0.521  -1.716   0.520  0.00  0.00    +0.000 C 
ENDBRANCH   1   6
BRANCH   1  10
ATOM     10  O   UNL     1      -2.189  -3.337  -0.126  0.00  0.00    +0.000 OA
BRANCH  10  11
ATOM     11  C   UNL     1      -3.298  -4.123  -0.146  0.00  0.00    +0.000 C 
ATOM     12  O   UNL     1      -4.453  -3.725  -0.197  0.00  0.00    +0.000 OA
BRANCH  11  13
ATOM     13  C   UNL     1      -2.884  -5.582  -0.075  0.00  0.00    +0.000 C 
ATOM     14  C   UNL     1      -3.931  -6.485  -0.739  0.00  0.00    +0.000 C 
ATOM     15  C   UNL     1      -3.558  -7.960  -0.612  0.00  0.00    +0.000 C 
ATOM     16  C   UNL     1      -3.328  -8.355   0.844  0.00  0.00    +0.000 C 
ATOM     17  C   UNL     1      -2.293  -7.457   1.516  0.00  0.00    +0.000 C 
ATOM     18  C   UNL     1      -2.655  -5.980   1.385  0.00  0.00    +0.000 C 
ENDBRANCH  11  13
ENDBRANCH  10  11
ENDBRANCH   1  10
TORSDOF 4
