REMARK  Name = *****
REMARK  5 active torsions:
REMARK  status: ('A' for Active; 'I' for Inactive)
REMARK    1  A    between atoms: C_1  and  C_2
REMARK    2  A    between atoms: C_4  and  C_8
REMARK    3  A    between atoms: C_8  and  O_9
REMARK    4  A    between atoms: O_9  and  C_10
REMARK    5  A    between atoms: C_10  and  C_12
REMARK                            x       y       z     vdW  Elec       q    Type
REMARK                         _______ _______ _______ _____ _____    ______ ____
ROOT
ATOM      1  O   UNL     1      -1.761   3.555   0.617  0.00  0.00    +0.000 OA
ENDROOT
BRANCH   1   2
ATOM      2  C   UNL     1      -1.228   4.547  -0.133  0.00  0.00    +0.000 C 
ATOM      3  O   UNL     1      -1.245   4.626  -1.351  0.00  0.00    +0.000 OA
BRANCH   2   4
ATOM      4  C   UNL     1      -0.607   5.580   0.741  0.00  0.00    +0.000 A 
ATOM      5  C   UNL     1      -0.451   5.400   2.124  0.00  0.00    +0.000 A 
ATOM      6  C   UNL     1       0.143   6.400   2.900  0.00  0.00    +0.000 A 
ATOM      7  C   UNL     1       0.582   7.578   2.298  0.00  0.00    +0.000 A 
ATOM      8  C   UNL     1       0.435   7.767   0.925  0.00  0.00    +0.000 A 
ATOM      9  C   UNL     1      -0.157   6.768   0.147  0.00  0.00    +0.000 A 
ATOM     10 CL   UNL     1       1.311   8.807   3.256  0.00  0.00    +0.000 Cl
ENDBRANCH   2   4
ENDBRANCH   1   2
BRANCH   1  11
ATOM     11  C   UNL     1      -2.352   2.470  -0.110  0.00  0.00    +0.000 C 
BRANCH  11  15
ATOM     12  C   UNL     1      -0.553  -1.718   2.054  0.00  0.00    +0.000 C 
ATOM     13  C   UNL     1      -0.504  -0.700   0.953  0.00  0.00    +0.000 A 
ATOM     14  C   UNL     1      -1.409   0.370   0.935  0.00  0.00    +0.000 A 
ATOM     15  C   UNL     1      -1.398   1.305  -0.112  0.00  0.00    +0.000 A 
ATOM     16  C   UNL     1      -0.458   1.163  -1.141  0.00  0.00    +0.000 A 
ATOM     17  C   UNL     1       0.436   0.093  -1.137  0.00  0.00    +0.000 A 
ATOM     18  C   UNL     1       0.408  -0.839  -0.099  0.00  0.00    +0.000 A 
ENDBRANCH  11  15
ENDBRANCH   1  11
TORSDOF 4
