REMARK  Name = *****
REMARK  4 active torsions:
REMARK  status: ('A' for Active; 'I' for Inactive)
REMARK    1  A    between atoms: C_1  and  C_2
REMARK    2  A    between atoms: C_4  and  N_8
REMARK    3  A    between atoms: N_8  and  O_19
REMARK    4  A    between atoms: C_9  and  C_11
REMARK                            x       y       z     vdW  Elec       q    Type
REMARK                         _______ _______ _______ _____ _____    ______ ____
ROOT
ATOM      1  N   UNL     1      -1.639   2.234   0.236  0.00  0.00    +0.000 N 
ATOM      2  C   UNL     1      -3.019   2.385   0.322  0.00  0.00    +0.000 C 
ATOM      3  O   UNL     1      -3.867   1.497   0.367  0.00  0.00    +0.000 OA
ENDROOT
BRANCH   2   4
ATOM      4  C   UNL     1      -3.542   3.768   0.324  0.00  0.00    +0.000 A 
ATOM      5  C   UNL     1      -3.348   4.641   1.401  0.00  0.00    +0.000 A 
ATOM      6  C   UNL     1      -3.886   5.930   1.354  0.00  0.00    +0.000 A 
ATOM      7  C   UNL     1      -4.622   6.334   0.240  0.00  0.00    +0.000 A 
ATOM      8  C   UNL     1      -4.835   5.462  -0.828  0.00  0.00    +0.000 A 
ATOM      9  C   UNL     1      -4.299   4.173  -0.785  0.00  0.00    +0.000 A 
ATOM     10 CL   UNL     1      -5.283   7.921   0.185  0.00  0.00    +0.000 Cl
ATOM     11 CL   UNL     1      -2.476   4.182   2.820  0.00  0.00    +0.000 Cl
ENDBRANCH   2   4
BRANCH   1  15
ATOM     12  C   UNL     1       2.708  -0.059  -0.521  0.00  0.00    +0.000 C 
ATOM     13  C   UNL     1       1.236  -0.125  -0.240  0.00  0.00    +0.000 A 
ATOM     14  C   UNL     1       0.474   1.051  -0.144  0.00  0.00    +0.000 A 
ATOM     15  C   UNL     1      -0.904   1.020   0.142  0.00  0.00    +0.000 A 
ATOM     16  C   UNL     1      -1.497  -0.231   0.348  0.00  0.00    +0.000 A 
ATOM     17  C   UNL     1      -0.745  -1.408   0.272  0.00  0.00    +0.000 A 
ATOM     18  C   UNL     1       0.616  -1.356  -0.015  0.00  0.00    +0.000 A 
ENDBRANCH   1  15
BRANCH   1  19
ATOM     19  O   UNL     1      -0.882   3.416   0.040  0.00  0.00    +0.000 OA
ATOM     20  H   UNL     1       0.061   3.192  -0.005  0.00  0.00    +0.000 HD
ENDBRANCH   1  19
TORSDOF 3
