REMARK  Name = *****
REMARK  6 active torsions:
REMARK  status: ('A' for Active; 'I' for Inactive)
REMARK    1  A    between atoms: C_1  and  C_2
REMARK    2  A    between atoms: C_3  and  C_8
REMARK    3  A    between atoms: C_8  and  S_9
REMARK    4  A    between atoms: S_9  and  C_10
REMARK    5  A    between atoms: C_13  and  O_16
REMARK    6  A    between atoms: O_16  and  C_17
REMARK                            x       y       z     vdW  Elec       q    Type
REMARK                         _______ _______ _______ _____ _____    ______ ____
ROOT
ATOM      1  S   UNL     1       1.392  -2.536   0.440  0.00  0.00    +0.000 S 
ENDROOT
BRANCH   1   2
ATOM      2  C   UNL     1       0.813  -4.220   0.309  0.00  0.00    +0.000 A 
ATOM      3  C   UNL     1       1.666  -5.316   0.148  0.00  0.00    +0.000 A 
ATOM      4  C   UNL     1       1.153  -6.618   0.070  0.00  0.00    +0.000 A 
ATOM      5  C   UNL     1      -0.220  -6.841   0.167  0.00  0.00    +0.000 A 
ATOM      6  C   UNL     1      -1.072  -5.750   0.343  0.00  0.00    +0.000 A 
ATOM      7  C   UNL     1      -0.562  -4.451   0.418  0.00  0.00    +0.000 A 
BRANCH   5   8
ATOM      8  O   UNL     1      -0.846  -8.054   0.113  0.00  0.00    +0.000 OA
ATOM      9  C   UNL     1      -0.018  -9.201  -0.034  0.00  0.00    +0.000 C 
ENDBRANCH   5   8
ENDBRANCH   1   2
BRANCH   1  10
ATOM     10  C   UNL     1       2.752  -2.516  -0.772  0.00  0.00    +0.000 C 
BRANCH  10  13
ATOM     11  C   UNL     1       2.322  -0.458  -3.274  0.00  0.00    +0.000 C 
ATOM     12  C   UNL     1       3.051  -0.291  -1.992  0.00  0.00    +0.000 A 
ATOM     13  C   UNL     1       3.215  -1.113  -0.976  0.00  0.00    +0.000 A 
ATOM     14  O   UNL     1       3.991  -0.534   0.015  0.00  0.00    +0.000 OA
ATOM     15  C   UNL     1       4.236   0.721  -0.517  0.00  0.00    +0.000 A 
ATOM     16  O   UNL     1       4.901   1.572   0.060  0.00  0.00    +0.000 OA
ATOM     17  O   UNL     1       3.678   0.920  -1.770  0.00  0.00    +0.000 OA
ENDBRANCH  10  13
ENDBRANCH   1  10
TORSDOF 4
