REMARK  Name = *****
REMARK  2 active torsions:
REMARK  status: ('A' for Active; 'I' for Inactive)
REMARK    1  A    between atoms: C_4  and  C_7
REMARK    2  A    between atoms: C_8  and  C_9
REMARK                            x       y       z     vdW  Elec       q    Type
REMARK                         _______ _______ _______ _____ _____    ______ ____
ROOT
ATOM      1  C   UNL     1       5.550   0.333  -0.531  0.00  0.00    +0.000 A 
ATOM      2  C   UNL     1       6.318  -0.832  -0.601  0.00  0.00    +0.000 A 
ATOM      3  C   UNL     1       7.702  -0.735  -0.734  0.00  0.00    +0.000 A 
ATOM      4  C   UNL     1       8.323   0.504  -0.799  0.00  0.00    +0.000 A 
ATOM      5  C   UNL     1       7.554   1.658  -0.728  0.00  0.00    +0.000 A 
ATOM      6  C   UNL     1       6.170   1.584  -0.594  0.00  0.00    +0.000 A 
ATOM      7  F   UNL     1       8.141   2.862  -0.789  0.00  0.00    +0.000 F 
ATOM      8  F   UNL     1       9.655   0.587  -0.928  0.00  0.00    +0.000 F 
ATOM      9  F   UNL     1       8.431  -1.858  -0.801  0.00  0.00    +0.000 F 
ENDROOT
BRANCH   1  11
ATOM     10  C   UNL     1       2.935   0.173  -0.285  0.00  0.00    +0.000 C 
ATOM     11  C   UNL     1       4.129   0.245  -0.396  0.00  0.00    +0.000 C 
BRANCH  10  15
ATOM     12  C   UNL     1      -1.264  -0.078   0.093  0.00  0.00    +0.000 A 
ATOM     13  C   UNL     1      -0.643   1.170   0.029  0.00  0.00    +0.000 A 
ATOM     14  C   UNL     1       0.745   1.253  -0.095  0.00  0.00    +0.000 A 
ATOM     15  C   UNL     1       1.513   0.088  -0.155  0.00  0.00    +0.000 A 
ATOM     16  C   UNL     1       0.890  -1.160  -0.090  0.00  0.00    +0.000 A 
ATOM     17  C   UNL     1      -0.499  -1.242   0.034  0.00  0.00    +0.000 A 
ENDBRANCH  10  15
ENDBRANCH   1  11
TORSDOF 2
