REMARK  Name = *****
REMARK  4 active torsions:
REMARK  status: ('A' for Active; 'I' for Inactive)
REMARK    1  A    between atoms: C_1  and  C_2
REMARK    2  A    between atoms: C_5  and  O_8
REMARK    3  A    between atoms: O_8  and  C_9
REMARK    4  A    between atoms: C_9  and  C_11
REMARK                            x       y       z     vdW  Elec       q    Type
REMARK                         _______ _______ _______ _____ _____    ______ ____
ROOT
ATOM      1  O   UNL     1      -3.241   0.069  -0.079  0.00  0.00    +0.000 OA
ENDROOT
BRANCH   1   6
ATOM      2  C   UNL     1       2.500  -0.040   0.048  0.00  0.00    +0.000 C 
ATOM      3  C   UNL     1       1.001   0.038   0.019  0.00  0.00    +0.000 C 
ATOM      4  C   UNL     1       0.349   1.210  -0.077  0.00  0.00    +0.000 C 
ATOM      5  C   UNL     1      -1.148   1.333  -0.063  0.00  0.00    +0.000 C 
ATOM      6  C   UNL     1      -1.870   0.045   0.365  0.00  0.00    +0.000 C 
ATOM      7  C   UNL     1      -1.208  -1.175  -0.275  0.00  0.00    +0.000 C 
ATOM      8  C   UNL     1       0.268  -1.278   0.108  0.00  0.00    +0.000 C 
ENDBRANCH   1   6
BRANCH   1   9
ATOM      9  C   UNL     1      -4.096   0.804   0.673  0.00  0.00    +0.000 C 
ATOM     10  O   UNL     1      -3.806   1.432   1.679  0.00  0.00    +0.000 OA
BRANCH   9  11
ATOM     11  C   UNL     1      -5.470   0.754   0.103  0.00  0.00    +0.000 A 
ATOM     12  C   UNL     1      -6.488   1.452   0.768  0.00  0.00    +0.000 A 
ATOM     13  C   UNL     1      -7.793   1.438   0.271  0.00  0.00    +0.000 A 
ATOM     14  C   UNL     1      -8.088   0.727  -0.891  0.00  0.00    +0.000 A 
ATOM     15  C   UNL     1      -7.082   0.030  -1.559  0.00  0.00    +0.000 A 
ATOM     16  C   UNL     1      -5.775   0.041  -1.065  0.00  0.00    +0.000 A 
ENDBRANCH   9  11
ENDBRANCH   1   9
TORSDOF 3
