REMARK  Name = *****
REMARK  4 active torsions:
REMARK  status: ('A' for Active; 'I' for Inactive)
REMARK    1  A    between atoms: C_1  and  C_2
REMARK    2  A    between atoms: C_5  and  C_8
REMARK    3  A    between atoms: C_8  and  C_9
REMARK    4  A    between atoms: C_9  and  C_10
REMARK                            x       y       z     vdW  Elec       q    Type
REMARK                         _______ _______ _______ _____ _____    ______ ____
ROOT
ATOM      1  C   UNL     1      -3.015   0.163   0.039  0.00  0.00    +0.000 C 
ENDROOT
BRANCH   1   6
ATOM      2  C   UNL     1       2.709  -0.435   0.969  0.00  0.00    +0.000 C 
ATOM      3  C   UNL     1       1.240  -0.259   0.727  0.00  0.00    +0.000 A 
ATOM      4  C   UNL     1       0.362  -0.070   1.800  0.00  0.00    +0.000 A 
ATOM      5  C   UNL     1      -1.011   0.062   1.578  0.00  0.00    +0.000 A 
ATOM      6  C   UNL     1      -1.531  -0.007   0.280  0.00  0.00    +0.000 A 
ATOM      7  C   UNL     1      -0.653  -0.210  -0.792  0.00  0.00    +0.000 A 
ATOM      8  C   UNL     1       0.719  -0.340  -0.569  0.00  0.00    +0.000 A 
ENDBRANCH   1   6
BRANCH   1   9
ATOM      9  C   UNL     1      -3.433   1.638  -0.086  0.00  0.00    +0.000 C 
ATOM     10 CL   UNL     1      -5.224   1.769   0.042  0.00  0.00    +0.000 Cl
BRANCH   9  11
ATOM     11  C   UNL     1      -2.968   2.303  -1.369  0.00  0.00    +0.000 A 
ATOM     12  C   UNL     1      -3.431   1.888  -2.629  0.00  0.00    +0.000 A 
ATOM     13  C   UNL     1      -2.968   2.499  -3.796  0.00  0.00    +0.000 A 
ATOM     14  C   UNL     1      -2.033   3.528  -3.721  0.00  0.00    +0.000 A 
ATOM     15  C   UNL     1      -1.560   3.948  -2.480  0.00  0.00    +0.000 A 
ATOM     16  C   UNL     1      -2.023   3.340  -1.312  0.00  0.00    +0.000 A 
ENDBRANCH   9  11
ENDBRANCH   1   9
TORSDOF 3
