REMARK  Name = *****
REMARK  4 active torsions:
REMARK  status: ('A' for Active; 'I' for Inactive)
REMARK    1  A    between atoms: C_1  and  O_2
REMARK    2  A    between atoms: O_2  and  C_3
REMARK    3  A    between atoms: C_6  and  C_9
REMARK    4  A    between atoms: C_10  and  C_11
REMARK                            x       y       z     vdW  Elec       q    Type
REMARK                         _______ _______ _______ _____ _____    ______ ____
ROOT
ATOM      1  C   UNL     1       4.851   2.944  -4.149  0.00  0.00    +0.000 C 
ATOM      2  C   UNL     1       6.078   2.607  -4.582  0.00  0.00    +0.000 C 
ATOM      3 CL   UNL     1       3.915   4.220  -4.837  0.00  0.00    +0.000 Cl
ENDROOT
BRANCH   1   7
ATOM      4  C   UNL     1       3.076   0.858  -0.851  0.00  0.00    +0.000 A 
ATOM      5  C   UNL     1       3.437   2.199  -0.722  0.00  0.00    +0.000 A 
ATOM      6  C   UNL     1       4.013   2.880  -1.802  0.00  0.00    +0.000 A 
ATOM      7  C   UNL     1       4.234   2.229  -3.022  0.00  0.00    +0.000 A 
ATOM      8  C   UNL     1       3.869   0.883  -3.147  0.00  0.00    +0.000 A 
ATOM      9  C   UNL     1       3.294   0.207  -2.067  0.00  0.00    +0.000 A 
BRANCH   4  11
ATOM     10  C   UNL     1       2.233   0.707   1.366  0.00  0.00    +0.000 C 
ATOM     11  O   UNL     1       2.509   0.080   0.120  0.00  0.00    +0.000 OA
ENDBRANCH   4  11
ENDBRANCH   1   7
BRANCH   2  12
ATOM     12  C   UNL     1       6.841   3.232  -5.711  0.00  0.00    +0.000 C 
ATOM     13  S   UNL     1       8.306   4.115  -5.111  0.00  0.00    +0.000 S 
ATOM     14  C   UNL     1       9.356   2.736  -4.580  0.00  0.00    +0.000 C 
ATOM     15  C   UNL     1       9.663   1.754  -5.699  0.00  0.00    +0.000 C 
ATOM     16  C   UNL     1       8.446   0.980  -6.182  0.00  0.00    +0.000 C 
ATOM     17  S   UNL     1       7.213   2.022  -7.009  0.00  0.00    +0.000 S 
ENDBRANCH   2  12
TORSDOF 3
