REMARK  Name = *****
REMARK  3 active torsions:
REMARK  status: ('A' for Active; 'I' for Inactive)
REMARK    1  A    between atoms: C_4  and  C_7
REMARK    2  A    between atoms: C_8  and  C_16
REMARK    3  A    between atoms: C_9  and  C_10
REMARK                            x       y       z     vdW  Elec       q    Type
REMARK                         _______ _______ _______ _____ _____    ______ ____
ROOT
ATOM      1  C   UNL     1      -2.812   0.047  -0.657  0.00  0.00    +0.000 C 
ATOM      2  C   UNL     1      -2.772  -1.407  -0.794  0.00  0.00    +0.000 C 
ATOM      3  C   UNL     1      -3.748  -0.878  -0.053  0.00  0.00    +0.000 C 
ENDROOT
BRANCH   1   7
ATOM      4  C   UNL     1       0.130   2.209   1.696  0.00  0.00    +0.000 A 
ATOM      5  C   UNL     1       0.171   2.227   0.307  0.00  0.00    +0.000 A 
ATOM      6  C   UNL     1      -0.781   1.514  -0.428  0.00  0.00    +0.000 A 
ATOM      7  C   UNL     1      -1.800   0.770   0.197  0.00  0.00    +0.000 A 
ATOM      8  C   UNL     1      -1.819   0.782   1.605  0.00  0.00    +0.000 A 
ATOM      9  C   UNL     1      -0.863   1.484   2.346  0.00  0.00    +0.000 A 
ENDBRANCH   1   7
BRANCH   3  10
ATOM     10  C   UNL     1      -5.170  -1.061  -0.327  0.00  0.00    +0.000 A 
ATOM     11  C   UNL     1      -5.772  -2.298  -0.065  0.00  0.00    +0.000 A 
ATOM     12  C   UNL     1      -7.134  -2.490  -0.314  0.00  0.00    +0.000 A 
ATOM     13  C   UNL     1      -7.906  -1.444  -0.817  0.00  0.00    +0.000 A 
ATOM     14  C   UNL     1      -7.320  -0.205  -1.065  0.00  0.00    +0.000 A 
ATOM     15  C   UNL     1      -5.959  -0.013  -0.818  0.00  0.00    +0.000 A 
ENDBRANCH   3  10
BRANCH   2  16
ATOM     16  C   UNL     1      -1.727  -2.196  -0.254  0.00  0.00    +0.000 C 
ATOM     17  N   UNL     1      -0.884  -2.868   0.177  0.00  0.00    +0.000 NA
ENDBRANCH   2  16
TORSDOF 3
