REMARK  Name = *****
REMARK  4 active torsions:
REMARK  status: ('A' for Active; 'I' for Inactive)
REMARK    1  A    between atoms: C_1  and  C_2
REMARK    2  A    between atoms: C_2  and  C_3
REMARK    3  A    between atoms: C_2  and  C_10
REMARK    4  A    between atoms: C_3  and  C_4
REMARK                            x       y       z     vdW  Elec       q    Type
REMARK                         _______ _______ _______ _____ _____    ______ ____
ROOT
ATOM      1  C   UNL     1       0.880   0.159  -0.087  0.00  0.00    +0.000 C 
ATOM      2  C   UNL     1       2.408   0.080   0.019  0.00  0.00    +0.000 C 
ENDROOT
BRANCH   2   3
ATOM      3  C   UNL     1       3.036   1.439  -0.269  0.00  0.00    +0.000 A 
ATOM      4  C   UNL     1       3.794   2.082   0.725  0.00  0.00    +0.000 A 
ATOM      5  C   UNL     1       4.372   3.329   0.481  0.00  0.00    +0.000 A 
ATOM      6  C   UNL     1       4.197   3.937  -0.756  0.00  0.00    +0.000 A 
ATOM      7  C   UNL     1       3.455   3.320  -1.755  0.00  0.00    +0.000 A 
ATOM      8  C   UNL     1       2.876   2.074  -1.513  0.00  0.00    +0.000 A 
ATOM      9  F   UNL     1       4.751   5.134  -0.988  0.00  0.00    +0.000 F 
ENDBRANCH   2   3
BRANCH   2  10
ATOM     10  C   UNL     1       3.011  -1.008  -0.900  0.00  0.00    +0.000 C 
BRANCH  10  11
ATOM     11  C   UNL     1       2.551  -2.415  -0.591  0.00  0.00    +0.000 A 
ATOM     12  C   UNL     1       1.837  -3.152  -1.546  0.00  0.00    +0.000 A 
ATOM     13  C   UNL     1       1.409  -4.451  -1.267  0.00  0.00    +0.000 A 
ATOM     14  C   UNL     1       1.692  -5.028  -0.031  0.00  0.00    +0.000 A 
ATOM     15  C   UNL     1       2.408  -4.310   0.924  0.00  0.00    +0.000 A 
ATOM     16  C   UNL     1       2.841  -3.012   0.644  0.00  0.00    +0.000 A 
ENDBRANCH  10  11
ENDBRANCH   2  10
TORSDOF 3
