REMARK  Name = *****
REMARK  6 active torsions:
REMARK  status: ('A' for Active; 'I' for Inactive)
REMARK    1  A    between atoms: C_1  and  C_2
REMARK    2  A    between atoms: C_5  and  C_8
REMARK    3  A    between atoms: C_9  and  C_10
REMARK    4  A    between atoms: C_13  and  N_16
REMARK    5  A    between atoms: N_16  and  C_17
REMARK    6  A    between atoms: N_16  and  C_18
REMARK                            x       y       z     vdW  Elec       q    Type
REMARK                         _______ _______ _______ _____ _____    ______ ____
ROOT
ATOM      1  C   UNL     1       6.784   0.047  -0.972  0.00  0.00    +0.000 C 
ATOM      2  C   UNL     1       7.948   0.069  -1.269  0.00  0.00    +0.000 C 
ENDROOT
BRANCH   1   7
ATOM      3  C   UNL     1       1.219  -0.058   0.419  0.00  0.00    +0.000 C 
ATOM      4  C   UNL     1       2.681  -0.029   0.084  0.00  0.00    +0.000 A 
ATOM      5  C   UNL     1       3.329   1.188  -0.159  0.00  0.00    +0.000 A 
ATOM      6  C   UNL     1       4.683   1.214  -0.503  0.00  0.00    +0.000 A 
ATOM      7  C   UNL     1       5.398   0.021  -0.619  0.00  0.00    +0.000 A 
ATOM      8  C   UNL     1       4.756  -1.197  -0.393  0.00  0.00    +0.000 A 
ATOM      9  C   UNL     1       3.402  -1.223  -0.049  0.00  0.00    +0.000 A 
ENDBRANCH   1   7
BRANCH   2  10
ATOM     10  C   UNL     1       9.333   0.094  -1.622  0.00  0.00    +0.000 A 
ATOM     11  C   UNL     1       9.946   1.289  -1.978  0.00  0.00    +0.000 A 
ATOM     12  C   UNL     1      11.306   1.309  -2.324  0.00  0.00    +0.000 A 
ATOM     13  C   UNL     1      12.102   0.148  -2.316  0.00  0.00    +0.000 A 
ATOM     14  C   UNL     1      11.441  -1.044  -1.966  0.00  0.00    +0.000 A 
ATOM     15  C   UNL     1      10.082  -1.076  -1.619  0.00  0.00    +0.000 A 
BRANCH  13  16
ATOM     16  N   UNL     1      13.454   0.166  -2.677  0.00  0.00    +0.000 N 
ATOM     17  C   UNL     1      14.306  -0.947  -2.260  0.00  0.00    +0.000 C 
ATOM     18  C   UNL     1      14.132   1.449  -2.851  0.00  0.00    +0.000 C 
ENDBRANCH  13  16
ENDBRANCH   2  10
TORSDOF 3
