REMARK  Name = *****
REMARK  1 active torsions:
REMARK  status: ('A' for Active; 'I' for Inactive)
REMARK    1  A    between atoms: C_4  and  C_7
REMARK                            x       y       z     vdW  Elec       q    Type
REMARK                         _______ _______ _______ _____ _____    ______ ____
ROOT
ATOM      1  C   UNL     1      -2.840   0.411  -0.328  0.00  0.00    +0.000 A 
ATOM      2  C   UNL     1      -3.574   0.308   0.797  0.00  0.00    +0.000 A 
ATOM      3  C   UNL     1      -4.993   0.490   1.014  0.00  0.00    +0.000 A 
ATOM      4  C   UNL     1      -5.929   0.825   0.120  0.00  0.00    +0.000 A 
ATOM      5  C   UNL     1      -7.335   0.993   0.434  0.00  0.00    +0.000 A 
ATOM      6  C   UNL     1      -7.949   1.331  -0.712  0.00  0.00    +0.000 A 
ATOM      7  C   UNL     1      -6.965   1.385  -1.779  0.00  0.00    +0.000 A 
ATOM      8  C   UNL     1      -5.742   1.083  -1.300  0.00  0.00    +0.000 A 
ATOM      9  C   UNL     1      -4.549   1.038  -2.095  0.00  0.00    +0.000 A 
ATOM     10  C   UNL     1      -3.313   0.746  -1.664  0.00  0.00    +0.000 A 
ENDROOT
BRANCH   1  14
ATOM     11  C   UNL     1       1.343  -0.345   0.207  0.00  0.00    +0.000 A 
ATOM     12  C   UNL     1       0.465  -1.409   0.004  0.00  0.00    +0.000 A 
ATOM     13  C   UNL     1      -0.899  -1.165  -0.168  0.00  0.00    +0.000 A 
ATOM     14  C   UNL     1      -1.391   0.146  -0.133  0.00  0.00    +0.000 A 
ATOM     15  C   UNL     1      -0.502   1.210   0.067  0.00  0.00    +0.000 A 
ATOM     16  C   UNL     1       0.861   0.964   0.238  0.00  0.00    +0.000 A 
ENDBRANCH   1  14
TORSDOF 1
