REMARK  Name = *****
REMARK  4 active torsions:
REMARK  status: ('A' for Active; 'I' for Inactive)
REMARK    1  A    between atoms: C_4  and  C_7
REMARK    2  A    between atoms: C_7  and  C_8
REMARK    3  A    between atoms: C_7  and  S_11
REMARK    4  A    between atoms: S_11  and  C_12
REMARK                            x       y       z     vdW  Elec       q    Type
REMARK                         _______ _______ _______ _____ _____    ______ ____
ROOT
ATOM      1  C   UNL     1      -2.930   0.373  -0.217  0.00  0.00    +0.000 C 
ATOM      2  F   UNL     1      -3.243   1.089  -1.345  0.00  0.00    +0.000 F 
ENDROOT
BRANCH   1   6
ATOM      3  C   UNL     1       1.366  -0.241   0.022  0.00  0.00    +0.000 A 
ATOM      4  C   UNL     1       0.556  -0.619   1.090  0.00  0.00    +0.000 A 
ATOM      5  C   UNL     1      -0.825  -0.426   1.025  0.00  0.00    +0.000 A 
ATOM      6  C   UNL     1      -1.418   0.152  -0.115  0.00  0.00    +0.000 A 
ATOM      7  C   UNL     1      -0.583   0.522  -1.185  0.00  0.00    +0.000 A 
ATOM      8  C   UNL     1       0.798   0.328  -1.115  0.00  0.00    +0.000 A 
ENDBRANCH   1   6
BRANCH   1   9
ATOM      9  C   UNL     1      -3.445   1.139   0.947  0.00  0.00    +0.000 C 
ATOM     10  N   UNL     1      -3.842   1.723   1.873  0.00  0.00    +0.000 NA
ENDBRANCH   1   9
BRANCH   1  11
ATOM     11  S   UNL     1      -3.766  -1.284  -0.377  0.00  0.00    +0.000 S 
BRANCH  11  12
ATOM     12  C   UNL     1      -5.443  -0.760  -0.674  0.00  0.00    +0.000 A 
ATOM     13  C   UNL     1      -5.837  -0.318  -1.941  0.00  0.00    +0.000 A 
ATOM     14  C   UNL     1      -7.155   0.083  -2.167  0.00  0.00    +0.000 A 
ATOM     15  C   UNL     1      -8.086   0.037  -1.131  0.00  0.00    +0.000 A 
ATOM     16  C   UNL     1      -7.702  -0.415   0.130  0.00  0.00    +0.000 A 
ATOM     17  C   UNL     1      -6.385  -0.818   0.358  0.00  0.00    +0.000 A 
ENDBRANCH  11  12
ENDBRANCH   1  11
TORSDOF 4
