REMARK  Name = *****
REMARK  4 active torsions:
REMARK  status: ('A' for Active; 'I' for Inactive)
REMARK    1  A    between atoms: C_6  and  C_7
REMARK    2  A    between atoms: C_7  and  S_8
REMARK    3  A    between atoms: S_8  and  C_9
REMARK    4  A    between atoms: C_12  and  C_14
REMARK                            x       y       z     vdW  Elec       q    Type
REMARK                         _______ _______ _______ _____ _____    ______ ____
ROOT
ATOM      1  S   UNL     1      -4.038   1.999   0.018  0.00  0.00    +0.000 S 
ENDROOT
BRANCH   1   2
ATOM      2  C   UNL     1      -5.759   1.796   0.006  0.00  0.00    +0.000 A 
ATOM      3  N   UNL     1      -6.389   0.640  -0.016  0.00  0.00    +0.000 NA
ATOM      4  N   UNL     1      -7.740   0.917  -0.016  0.00  0.00    +0.000 NA
ATOM      5  C   UNL     1      -7.851   2.232   0.006  0.00  0.00    +0.000 A 
ATOM      6  O   UNL     1      -6.626   2.857   0.021  0.00  0.00    +0.000 OA
BRANCH   5   7
ATOM      7  C   UNL     1      -9.058   3.096   0.018  0.00  0.00    +0.000 C 
ATOM      8  F   UNL     1     -10.217   2.385   0.016  0.00  0.00    +0.000 F 
ATOM      9  F   UNL     1      -9.101   3.900   1.115  0.00  0.00    +0.000 F 
ATOM     10  F   UNL     1      -9.109   3.918  -1.065  0.00  0.00    +0.000 F 
ENDBRANCH   5   7
ENDBRANCH   1   2
BRANCH   1  11
ATOM     11  C   UNL     1      -3.509   0.262   0.006  0.00  0.00    +0.000 C 
BRANCH  11  17
ATOM     12  C   UNL     1      -1.273   0.117  -1.170  0.00  0.00    +0.000 A 
ATOM     13  C   UNL     1       0.119   0.027  -1.146  0.00  0.00    +0.000 A 
ATOM     14  C   UNL     1       0.783  -0.028   0.073  0.00  0.00    +0.000 A 
ATOM     15  C   UNL     1       0.080   0.007   1.272  0.00  0.00    +0.000 A 
ATOM     16  C   UNL     1      -1.312   0.098   1.252  0.00  0.00    +0.000 A 
ATOM     17  C   UNL     1      -2.004   0.148   0.029  0.00  0.00    +0.000 A 
ATOM     18  F   UNL     1       2.119  -0.114   0.094  0.00  0.00    +0.000 F 
ENDBRANCH  11  17
ENDBRANCH   1  11
TORSDOF 4
