REMARK  Name = *****
REMARK  4 active torsions:
REMARK  status: ('A' for Active; 'I' for Inactive)
REMARK    1  A    between atoms: C_1  and  C_2
REMARK    2  A    between atoms: C_2  and  C_17
REMARK    3  A    between atoms: C_5  and  C_7
REMARK    4  A    between atoms: C_8  and  C_9
REMARK                            x       y       z     vdW  Elec       q    Type
REMARK                         _______ _______ _______ _____ _____    ______ ____
ROOT
ATOM      1  C   UNL     1       2.353   1.886   0.087  0.00  0.00    +0.000 C 
ATOM      2  C   UNL     1       3.640   1.518  -0.002  0.00  0.00    +0.000 C 
ENDROOT
BRANCH   2   3
ATOM      3  C   UNL     1       4.767   2.462  -0.008  0.00  0.00    +0.000 A 
ATOM      4  C   UNL     1       5.910   2.141  -0.753  0.00  0.00    +0.000 A 
ATOM      5  C   UNL     1       7.020   2.995  -0.766  0.00  0.00    +0.000 A 
ATOM      6  C   UNL     1       7.000   4.177  -0.021  0.00  0.00    +0.000 A 
ATOM      7  C   UNL     1       5.871   4.496   0.738  0.00  0.00    +0.000 A 
ATOM      8  C   UNL     1       4.765   3.641   0.749  0.00  0.00    +0.000 A 
ATOM      9 CL   UNL     1       8.330   5.278   0.013  0.00  0.00    +0.000 Cl
ATOM     10 CL   UNL     1       8.382   2.526  -1.721  0.00  0.00    +0.000 Cl
ENDBRANCH   2   3
BRANCH   1  15
ATOM     11  C   UNL     1      -1.784  -0.179   1.108  0.00  0.00    +0.000 C 
ATOM     12  C   UNL     1      -0.701  -0.059   0.040  0.00  0.00    +0.000 C 
ATOM     13  C   UNL     1       0.402  -1.094   0.221  0.00  0.00    +0.000 C 
ATOM     14  O   UNL     1       1.599  -0.371  -0.039  0.00  0.00    +0.000 OA
ATOM     15  C   UNL     1       1.242   0.929   0.082  0.00  0.00    +0.000 C 
ATOM     16  N   UNL     1      -0.009   1.237   0.185  0.00  0.00    +0.000 NA
ATOM     17  C   UNL     1      -1.318  -0.119  -1.360  0.00  0.00    +0.000 C 
ENDBRANCH   1  15
TORSDOF 2
