REMARK  Name = *****
REMARK  4 active torsions:
REMARK  status: ('A' for Active; 'I' for Inactive)
REMARK    1  A    between atoms: C_1  and  O_2
REMARK    2  A    between atoms: O_2  and  C_3
REMARK    3  A    between atoms: C_6  and  C_9
REMARK    4  A    between atoms: C_10  and  C_11
REMARK                            x       y       z     vdW  Elec       q    Type
REMARK                         _______ _______ _______ _____ _____    ______ ____
ROOT
ATOM      1  C   UNL     1       5.596   2.584   3.809  0.00  0.00    +0.000 C 
ATOM      2  C   UNL     1       6.759   3.232   3.616  0.00  0.00    +0.000 C 
ATOM      3  F   UNL     1       7.265   3.329   2.362  0.00  0.00    +0.000 F 
ATOM      4  F   UNL     1       5.090   2.486   5.063  0.00  0.00    +0.000 F 
ENDROOT
BRANCH   2   5
ATOM      5  C   UNL     1       7.560   3.888   4.668  0.00  0.00    +0.000 A 
ATOM      6  C   UNL     1       7.618   3.425   5.992  0.00  0.00    +0.000 A 
ATOM      7  C   UNL     1       8.415   4.072   6.942  0.00  0.00    +0.000 A 
ATOM      8  C   UNL     1       9.166   5.179   6.569  0.00  0.00    +0.000 A 
ATOM      9  C   UNL     1       9.140   5.648   5.263  0.00  0.00    +0.000 A 
ATOM     10  C   UNL     1       8.343   5.001   4.315  0.00  0.00    +0.000 A 
ATOM     11  F   UNL     1       9.930   5.796   7.479  0.00  0.00    +0.000 F 
ENDBRANCH   2   5
BRANCH   1  15
ATOM     12  C   UNL     1       3.196   0.605   0.837  0.00  0.00    +0.000 A 
ATOM     13  C   UNL     1       3.235   0.147   2.152  0.00  0.00    +0.000 A 
ATOM     14  C   UNL     1       4.027   0.806   3.102  0.00  0.00    +0.000 A 
ATOM     15  C   UNL     1       4.800   1.925   2.757  0.00  0.00    +0.000 A 
ATOM     16  C   UNL     1       4.736   2.387   1.437  0.00  0.00    +0.000 A 
ATOM     17  C   UNL     1       3.945   1.729   0.488  0.00  0.00    +0.000 A 
BRANCH  12  19
ATOM     18  C   UNL     1       1.723  -1.113   0.110  0.00  0.00    +0.000 C 
ATOM     19  O   UNL     1       2.472   0.059  -0.186  0.00  0.00    +0.000 OA
ENDBRANCH  12  19
ENDBRANCH   1  15
TORSDOF 3
