REMARK  Name = *****
REMARK  1 active torsions:
REMARK  status: ('A' for Active; 'I' for Inactive)
REMARK    1  A    between atoms: C_6  and  C_7
REMARK                            x       y       z     vdW  Elec       q    Type
REMARK                         _______ _______ _______ _____ _____    ______ ____
ROOT
ATOM      1  C   UNL     1      -0.536  -1.534  -0.273  0.00  0.00    +0.000 C 
ATOM      2  C   UNL     1       0.804  -1.175   0.389  0.00  0.00    +0.000 C 
ATOM      3  C   UNL     1       1.144   0.284   0.378  0.00  0.00    +0.000 C 
ATOM      4  C   UNL     1      -0.052   1.296   0.448  0.00  0.00    +0.000 C 
ATOM      5  C   UNL     1       0.825   1.184  -0.660  0.00  0.00    +0.000 C 
ATOM      6  C   UNL     1       1.114   1.678  -1.848  0.00  0.00    +0.000 C 
ATOM      7  C   UNL     1      -1.395   0.721   0.332  0.00  0.00    +0.000 C 
ATOM      8  C   UNL     1      -1.647  -0.559   0.010  0.00  0.00    +0.000 C 
ENDROOT
BRANCH   6   9
ATOM      9  C   UNL     1       2.243   1.258  -2.686  0.00  0.00    +0.000 A 
ATOM     10  C   UNL     1       2.646  -0.078  -2.795  0.00  0.00    +0.000 A 
ATOM     11  C   UNL     1       3.709  -0.437  -3.628  0.00  0.00    +0.000 A 
ATOM     12  C   UNL     1       4.373   0.536  -4.372  0.00  0.00    +0.000 A 
ATOM     13  C   UNL     1       3.971   1.867  -4.287  0.00  0.00    +0.000 A 
ATOM     14  C   UNL     1       2.909   2.225  -3.453  0.00  0.00    +0.000 A 
ENDBRANCH   6   9
TORSDOF 1
