REMARK  Name = *****
REMARK  3 active torsions:
REMARK  status: ('A' for Active; 'I' for Inactive)
REMARK    1  A    between atoms: C_2  and  C_12
REMARK    2  A    between atoms: C_3  and  C_4
REMARK    3  A    between atoms: C_3  and  C_6
REMARK                            x       y       z     vdW  Elec       q    Type
REMARK                         _______ _______ _______ _____ _____    ______ ____
ROOT
ATOM      1  C   UNL     1       1.254  -0.766  -0.234  0.00  0.00    +0.000 C 
ATOM      2  C   UNL     1       1.443   0.722  -0.287  0.00  0.00    +0.000 C 
ATOM      3  C   UNL     1       0.233   0.128   0.469  0.00  0.00    +0.000 C 
ENDROOT
BRANCH   3   4
ATOM      4  C   UNL     1       0.224   0.086   2.007  0.00  0.00    +0.000 A 
ATOM      5  C   UNL     1       0.085   1.259   2.770  0.00  0.00    +0.000 A 
ATOM      6  C   UNL     1       0.052   1.227   4.167  0.00  0.00    +0.000 A 
ATOM      7  C   UNL     1       0.140   0.012   4.838  0.00  0.00    +0.000 A 
ATOM      8  C   UNL     1       0.255  -1.169   4.112  0.00  0.00    +0.000 A 
ATOM      9  C   UNL     1       0.289  -1.130   2.715  0.00  0.00    +0.000 A 
ENDBRANCH   3   4
BRANCH   2  10
ATOM     10  C   UNL     1       2.577   1.423   0.434  0.00  0.00    +0.000 A 
ATOM     11  C   UNL     1       3.777   0.783   0.789  0.00  0.00    +0.000 A 
ATOM     12  C   UNL     1       4.810   1.469   1.436  0.00  0.00    +0.000 A 
ATOM     13  C   UNL     1       4.672   2.821   1.732  0.00  0.00    +0.000 A 
ATOM     14  C   UNL     1       3.505   3.488   1.374  0.00  0.00    +0.000 A 
ATOM     15  C   UNL     1       2.477   2.796   0.728  0.00  0.00    +0.000 A 
ENDBRANCH   2  10
BRANCH   3  16
ATOM     16  C   UNL     1      -1.040   0.284  -0.222  0.00  0.00    +0.000 C 
ATOM     17  N   UNL     1      -2.042   0.411  -0.795  0.00  0.00    +0.000 NA
ENDBRANCH   3  16
TORSDOF 3
