REMARK  Name = *****
REMARK  4 active torsions:
REMARK  status: ('A' for Active; 'I' for Inactive)
REMARK    1  A    between atoms: C_1  and  C_2
REMARK    2  A    between atoms: C_5  and  C_8
REMARK    3  A    between atoms: C_8  and  N_9
REMARK    4  A    between atoms: N_9  and  C_10
REMARK                            x       y       z     vdW  Elec       q    Type
REMARK                         _______ _______ _______ _____ _____    ______ ____
ROOT
ATOM      1  N   UNL     1      -3.887   1.184  -0.085  0.00  0.00    +0.000 N 
ATOM      2  O   UNL     1      -5.155   1.047  -0.117  0.00  0.00    +0.000 OA
ENDROOT
BRANCH   1   3
ATOM      3  C   UNL     1      -3.331   2.520  -0.204  0.00  0.00    +0.000 A 
ATOM      4  C   UNL     1      -2.507   2.852  -1.285  0.00  0.00    +0.000 A 
ATOM      5  C   UNL     1      -2.003   4.150  -1.387  0.00  0.00    +0.000 A 
ATOM      6  C   UNL     1      -2.340   5.104  -0.425  0.00  0.00    +0.000 A 
ATOM      7  C   UNL     1      -3.186   4.778   0.637  0.00  0.00    +0.000 A 
ATOM      8  C   UNL     1      -3.692   3.482   0.746  0.00  0.00    +0.000 A 
ATOM      9 CL   UNL     1      -1.715   6.702  -0.554  0.00  0.00    +0.000 Cl
ENDBRANCH   1   3
BRANCH   1  10
ATOM     10  C   UNL     1      -3.129   0.119   0.035  0.00  0.00    +0.000 C 
BRANCH  10  15
ATOM     11  C   UNL     1       2.603  -0.293   0.455  0.00  0.00    +0.000 C 
ATOM     12  C   UNL     1       1.114  -0.151   0.332  0.00  0.00    +0.000 A 
ATOM     13  C   UNL     1       0.423   0.771   1.130  0.00  0.00    +0.000 A 
ATOM     14  C   UNL     1      -0.966   0.883   1.045  0.00  0.00    +0.000 A 
ATOM     15  C   UNL     1      -1.670   0.077   0.150  0.00  0.00    +0.000 A 
ATOM     16  C   UNL     1      -0.999  -0.877  -0.617  0.00  0.00    +0.000 A 
ATOM     17  C   UNL     1       0.390  -0.986  -0.527  0.00  0.00    +0.000 A 
ENDBRANCH  10  15
ENDBRANCH   1  10
TORSDOF 3
