REMARK  Name = *****
REMARK  4 active torsions:
REMARK  status: ('A' for Active; 'I' for Inactive)
REMARK    1  A    between atoms: C_4  and  C_7
REMARK    2  A    between atoms: C_7  and  C_8
REMARK    3  A    between atoms: C_8  and  C_10
REMARK    4  A    between atoms: C_14  and  C_16
REMARK                            x       y       z     vdW  Elec       q    Type
REMARK                         _______ _______ _______ _____ _____    ______ ____
ROOT
ATOM      1  C   UNL     1      -3.551  -1.057  -0.163  0.00  0.00    +0.000 C 
ATOM      2  O   UNL     1      -3.137  -2.182   0.121  0.00  0.00    +0.000 OA
ENDROOT
BRANCH   1   3
ATOM      3  C   UNL     1      -4.992  -0.883  -0.519  0.00  0.00    +0.000 A 
ATOM      4  C   UNL     1      -5.614   0.369  -0.563  0.00  0.00    +0.000 A 
ATOM      5  C   UNL     1      -6.963   0.469  -0.910  0.00  0.00    +0.000 A 
ATOM      6  C   UNL     1      -7.700  -0.677  -1.211  0.00  0.00    +0.000 A 
ATOM      7  C   UNL     1      -7.100  -1.941  -1.159  0.00  0.00    +0.000 A 
ATOM      8  C   UNL     1      -5.742  -2.032  -0.816  0.00  0.00    +0.000 A 
BRANCH   7   9
ATOM      9  C   UNL     1      -7.886  -3.178  -1.496  0.00  0.00    +0.000 C 
ATOM     10 CL   UNL     1      -7.872  -3.460  -3.248  0.00  0.00    +0.000 Cl
ENDBRANCH   7   9
ENDBRANCH   1   3
BRANCH   1  11
ATOM     11  C   UNL     1      -2.621   0.142  -0.168  0.00  0.00    +0.000 C 
BRANCH  11  15
ATOM     12  C   UNL     1      -2.551   2.442   3.485  0.00  0.00    +0.000 A 
ATOM     13  C   UNL     1      -2.532   1.051   3.542  0.00  0.00    +0.000 A 
ATOM     14  C   UNL     1      -2.559   0.302   2.364  0.00  0.00    +0.000 A 
ATOM     15  C   UNL     1      -2.620   0.937   1.116  0.00  0.00    +0.000 A 
ATOM     16  C   UNL     1      -2.617   2.339   1.072  0.00  0.00    +0.000 A 
ATOM     17  C   UNL     1      -2.589   3.087   2.251  0.00  0.00    +0.000 A 
ENDBRANCH  11  15
ENDBRANCH   1  11
TORSDOF 4
