REMARK  Name = *****
REMARK  2 active torsions:
REMARK  status: ('A' for Active; 'I' for Inactive)
REMARK    1  A    between atoms: C_9  and  C_11
REMARK    2  A    between atoms: C_11  and  C_12
REMARK                            x       y       z     vdW  Elec       q    Type
REMARK                         _______ _______ _______ _____ _____    ______ ____
ROOT
ATOM      1  C   UNL     1       2.497   0.810  -0.201  0.00  0.00    +0.000 C 
ATOM      2  C   UNL     1       1.240   1.524   0.291  0.00  0.00    +0.000 C 
ATOM      3  C   UNL     1      -0.015   0.735   0.018  0.00  0.00    +0.000 A 
ATOM      4  C   UNL     1      -1.236   1.416  -0.126  0.00  0.00    +0.000 A 
ATOM      5  C   UNL     1      -2.418   0.708  -0.320  0.00  0.00    +0.000 A 
ATOM      6  C   UNL     1      -2.391  -0.681  -0.359  0.00  0.00    +0.000 A 
ATOM      7  C   UNL     1      -1.182  -1.366  -0.201  0.00  0.00    +0.000 A 
ATOM      8  C   UNL     1       0.025  -0.677  -0.010  0.00  0.00    +0.000 A 
ATOM      9  C   UNL     1       1.327  -1.378   0.169  0.00  0.00    +0.000 C 
ATOM     10  C   UNL     1       2.467  -0.662   0.076  0.00  0.00    +0.000 C 
ENDROOT
BRANCH   9  11
ATOM     11  C   UNL     1       1.375  -2.863   0.472  0.00  0.00    +0.000 C 
BRANCH  11  12
ATOM     12  C   UNL     1       1.144  -3.793  -0.704  0.00  0.00    +0.000 A 
ATOM     13  C   UNL     1       1.696  -3.542  -1.969  0.00  0.00    +0.000 A 
ATOM     14  C   UNL     1       1.495  -4.434  -3.024  0.00  0.00    +0.000 A 
ATOM     15  C   UNL     1       0.752  -5.596  -2.826  0.00  0.00    +0.000 A 
ATOM     16  C   UNL     1       0.214  -5.869  -1.571  0.00  0.00    +0.000 A 
ATOM     17  C   UNL     1       0.414  -4.978  -0.515  0.00  0.00    +0.000 A 
ENDBRANCH  11  12
ENDBRANCH   9  11
TORSDOF 2
