REMARK  Name = *****
REMARK  5 active torsions:
REMARK  status: ('A' for Active; 'I' for Inactive)
REMARK    1  A    between atoms: C_1  and  C_2
REMARK    2  A    between atoms: C_3  and  C_18
REMARK    3  A    between atoms: C_4  and  O_8
REMARK    4  A    between atoms: O_8  and  C_9
REMARK    5  A    between atoms: C_9  and  C_11
REMARK                            x       y       z     vdW  Elec       q    Type
REMARK                         _______ _______ _______ _____ _____    ______ ____
ROOT
ATOM      1  O   UNL     1      -1.401  -2.232   0.898  0.00  0.00    +0.000 OA
ENDROOT
BRANCH   1   5
ATOM      2  C   UNL     1       2.002   1.148  -0.443  0.00  0.00    +0.000 C 
ATOM      3  C   UNL     1       0.586   0.686  -0.227  0.00  0.00    +0.000 A 
ATOM      4  C   UNL     1       0.286  -0.605   0.259  0.00  0.00    +0.000 A 
ATOM      5  C   UNL     1      -1.066  -0.965   0.399  0.00  0.00    +0.000 A 
ATOM      6  C   UNL     1      -2.102  -0.066   0.135  0.00  0.00    +0.000 A 
ATOM      7  C   UNL     1      -1.797   1.209  -0.325  0.00  0.00    +0.000 A 
ATOM      8  C   UNL     1      -0.464   1.579  -0.509  0.00  0.00    +0.000 A 
ATOM      9  C   UNL     1       1.355  -1.608   0.597  0.00  0.00    +0.000 C 
ENDBRANCH   1   5
BRANCH   1  10
ATOM     10  C   UNL     1      -1.868  -3.092  -0.075  0.00  0.00    +0.000 C 
ATOM     11  O   UNL     1      -1.975  -2.898  -1.276  0.00  0.00    +0.000 OA
BRANCH  10  12
ATOM     12  C   UNL     1      -2.424  -4.287   0.586  0.00  0.00    +0.000 A 
ATOM     13  C   UNL     1      -3.761  -4.601   0.295  0.00  0.00    +0.000 A 
ATOM     14  C   UNL     1      -4.367  -5.710   0.887  0.00  0.00    +0.000 A 
ATOM     15  C   UNL     1      -3.639  -6.513   1.762  0.00  0.00    +0.000 A 
ATOM     16  C   UNL     1      -2.302  -6.216   2.037  0.00  0.00    +0.000 A 
ATOM     17  C   UNL     1      -1.687  -5.106   1.446  0.00  0.00    +0.000 A 
ATOM     18 CL   UNL     1      -0.014  -4.854   1.781  0.00  0.00    +0.000 Cl
ENDBRANCH  10  12
ENDBRANCH   1  10
TORSDOF 3
