REMARK  Name = *****
REMARK  3 active torsions:
REMARK  status: ('A' for Active; 'I' for Inactive)
REMARK    1  A    between atoms: S_4  and  C_6
REMARK    2  A    between atoms: C_6  and  C_7
REMARK    3  A    between atoms: C_7  and  C_9
REMARK                            x       y       z     vdW  Elec       q    Type
REMARK                         _______ _______ _______ _____ _____    ______ ____
ROOT
ATOM      1  C   UNL     1       0.373   2.549   2.137  0.00  0.00    +0.000 C 
ATOM      2  O   UNL     1       0.568   1.410   2.553  0.00  0.00    +0.000 OA
ENDROOT
BRANCH   1   3
ATOM      3  C   UNL     1       0.403   3.684   3.113  0.00  0.00    +0.000 A 
ATOM      4  C   UNL     1       0.260   5.020   2.716  0.00  0.00    +0.000 A 
ATOM      5  C   UNL     1       0.295   6.043   3.669  0.00  0.00    +0.000 A 
ATOM      6  C   UNL     1       0.473   5.741   5.018  0.00  0.00    +0.000 A 
ATOM      7  C   UNL     1       0.617   4.415   5.420  0.00  0.00    +0.000 A 
ATOM      8  C   UNL     1       0.584   3.391   4.472  0.00  0.00    +0.000 A 
ENDBRANCH   1   3
BRANCH   1   9
ATOM      9  C   UNL     1       0.104   2.869   0.684  0.00  0.00    +0.000 C 
BRANCH   9  13
ATOM     10  C   UNL     1      -0.552  -1.035  -0.068  0.00  0.00    +0.000 C 
ATOM     11  C   UNL     1       0.917  -0.863   0.335  0.00  0.00    +0.000 C 
ATOM     12  C   UNL     1       1.422   0.437  -0.296  0.00  0.00    +0.000 C 
ATOM     13  S   UNL     1      -0.007   1.480  -0.408  0.00  0.00    +0.000 S 
ATOM     14  C   UNL     1      -1.229   0.320   0.131  0.00  0.00    +0.000 C 
ATOM     15 BR   UNL     1      -0.361   2.094  -2.420  0.00  0.00    +0.000 Br
ENDBRANCH   9  13
ENDBRANCH   1   9
TORSDOF 3
