REMARK  Name = *****
REMARK  3 active torsions:
REMARK  status: ('A' for Active; 'I' for Inactive)
REMARK    1  A    between atoms: C_4  and  C_7
REMARK    2  A    between atoms: C_7  and  C_8
REMARK    3  A    between atoms: C_9  and  C_10
REMARK                            x       y       z     vdW  Elec       q    Type
REMARK                         _______ _______ _______ _____ _____    ______ ____
ROOT
ATOM      1  C   UNL     1      -5.735  -2.129  -0.535  0.00  0.00    +0.000 A 
ATOM      2  C   UNL     1      -6.222  -2.753   0.619  0.00  0.00    +0.000 A 
ATOM      3  C   UNL     1      -6.918  -3.957   0.537  0.00  0.00    +0.000 A 
ATOM      4  C   UNL     1      -7.135  -4.552  -0.697  0.00  0.00    +0.000 A 
ATOM      5  C   UNL     1      -6.660  -3.945  -1.851  0.00  0.00    +0.000 A 
ATOM      6  C   UNL     1      -5.964  -2.742  -1.772  0.00  0.00    +0.000 A 
ATOM      7  F   UNL     1      -5.517  -2.170  -2.900  0.00  0.00    +0.000 F 
ATOM      8  F   UNL     1      -6.874  -4.516  -3.045  0.00  0.00    +0.000 F 
ATOM      9  F   UNL     1      -7.808  -5.709  -0.775  0.00  0.00    +0.000 F 
ATOM     10  F   UNL     1      -7.380  -4.539   1.653  0.00  0.00    +0.000 F 
ATOM     11  F   UNL     1      -6.030  -2.190   1.821  0.00  0.00    +0.000 F 
ENDROOT
BRANCH   1  13
ATOM     12  C   UNL     1      -3.661  -0.839  -0.323  0.00  0.00    +0.000 C 
ATOM     13  C   UNL     1      -4.997  -0.869  -0.445  0.00  0.00    +0.000 C 
BRANCH  12  14
ATOM     14  C   UNL     1      -2.865   0.431  -0.201  0.00  0.00    +0.000 C 
BRANCH  14  18
ATOM     15  C   UNL     1      -0.585   0.635   3.460  0.00  0.00    +0.000 A 
ATOM     16  C   UNL     1       0.071   0.581   2.232  0.00  0.00    +0.000 A 
ATOM     17  C   UNL     1      -0.664   0.511   1.047  0.00  0.00    +0.000 A 
ATOM     18  C   UNL     1      -2.066   0.495   1.080  0.00  0.00    +0.000 A 
ATOM     19  C   UNL     1      -2.715   0.553   2.323  0.00  0.00    +0.000 A 
ATOM     20  C   UNL     1      -1.977   0.620   3.506  0.00  0.00    +0.000 A 
ENDBRANCH  14  18
ENDBRANCH  12  14
ENDBRANCH   1  13
TORSDOF 3
