REMARK  Name = *****
REMARK  4 active torsions:
REMARK  status: ('A' for Active; 'I' for Inactive)
REMARK    1  A    between atoms: C_3  and  C_17
REMARK    2  A    between atoms: C_5  and  O_7
REMARK    3  A    between atoms: O_7  and  C_8
REMARK    4  A    between atoms: C_8  and  C_9
REMARK                            x       y       z     vdW  Elec       q    Type
REMARK                         _______ _______ _______ _____ _____    ______ ____
ROOT
ATOM      1  O   UNL     1      -1.305   2.283  -0.403  0.00  0.00    +0.000 OA
ENDROOT
BRANCH   1   6
ATOM      2  C   UNL     1      -0.848  -1.146   0.934  0.00  0.00    +0.000 A 
ATOM      3  C   UNL     1       0.265  -1.530   0.182  0.00  0.00    +0.000 A 
ATOM      4  C   UNL     1       0.829  -0.640  -0.741  0.00  0.00    +0.000 A 
ATOM      5  C   UNL     1       0.258   0.632  -0.895  0.00  0.00    +0.000 A 
ATOM      6  C   UNL     1      -0.859   1.017  -0.147  0.00  0.00    +0.000 A 
ATOM      7  C   UNL     1      -1.408   0.123   0.771  0.00  0.00    +0.000 A 
BRANCH   4   8
ATOM      8  C   UNL     1       2.024  -1.005  -1.571  0.00  0.00    +0.000 C 
ATOM      9  O   UNL     1       2.461  -0.152  -2.342  0.00  0.00    +0.000 OA
ATOM     10 CL   UNL     1       2.741  -2.596  -1.415  0.00  0.00    +0.000 Cl
ENDBRANCH   4   8
ENDBRANCH   1   6
BRANCH   1  11
ATOM     11  C   UNL     1      -2.515   2.693   0.232  0.00  0.00    +0.000 C 
BRANCH  11  12
ATOM     12  C   UNL     1      -2.872   4.060  -0.286  0.00  0.00    +0.000 A 
ATOM     13  C   UNL     1      -2.638   5.182   0.517  0.00  0.00    +0.000 A 
ATOM     14  C   UNL     1      -2.930   6.472   0.080  0.00  0.00    +0.000 A 
ATOM     15  C   UNL     1      -3.464   6.667  -1.189  0.00  0.00    +0.000 A 
ATOM     16  C   UNL     1      -3.703   5.566  -2.011  0.00  0.00    +0.000 A 
ATOM     17  C   UNL     1      -3.408   4.272  -1.564  0.00  0.00    +0.000 A 
ATOM     18 CL   UNL     1      -3.739   2.961  -2.641  0.00  0.00    +0.000 Cl
ATOM     19  F   UNL     1      -2.126   5.028   1.747  0.00  0.00    +0.000 F 
ENDBRANCH  11  12
ENDBRANCH   1  11
TORSDOF 4
