REMARK  Name = *****
REMARK  3 active torsions:
REMARK  status: ('A' for Active; 'I' for Inactive)
REMARK    1  A    between atoms: C_4  and  C_7
REMARK    2  A    between atoms: C_7  and  C_9
REMARK    3  A    between atoms: C_9  and  C_10
REMARK                            x       y       z     vdW  Elec       q    Type
REMARK                         _______ _______ _______ _____ _____    ______ ____
ROOT
ATOM      1  C   UNL     1      -3.820  -0.769  -0.229  0.00  0.00    +0.000 C 
ATOM      2  F   UNL     1      -3.651  -1.611   0.842  0.00  0.00    +0.000 F 
ATOM      3  F   UNL     1      -5.149  -0.432  -0.165  0.00  0.00    +0.000 F 
ENDROOT
BRANCH   1   4
ATOM      4  C   UNL     1      -3.486  -1.510  -1.522  0.00  0.00    +0.000 A 
ATOM      5  C   UNL     1      -2.182  -1.979  -1.760  0.00  0.00    +0.000 A 
ATOM      6  C   UNL     1      -1.876  -2.667  -2.937  0.00  0.00    +0.000 A 
ATOM      7  C   UNL     1      -2.872  -2.903  -3.881  0.00  0.00    +0.000 A 
ATOM      8  C   UNL     1      -4.174  -2.464  -3.654  0.00  0.00    +0.000 A 
ATOM      9  C   UNL     1      -4.482  -1.775  -2.478  0.00  0.00    +0.000 A 
ATOM     10 CL   UNL     1      -2.496  -3.751  -5.329  0.00  0.00    +0.000 Cl
ENDBRANCH   1   4
BRANCH   1  11
ATOM     11  C   UNL     1      -2.929   0.476  -0.060  0.00  0.00    +0.000 C 
ATOM     12  O   UNL     1      -1.839   0.427   0.521  0.00  0.00    +0.000 OA
BRANCH  11  16
ATOM     13  C   UNL     1      -4.009   4.309  -1.698  0.00  0.00    +0.000 A 
ATOM     14  C   UNL     1      -4.741   3.182  -2.069  0.00  0.00    +0.000 A 
ATOM     15  C   UNL     1      -4.413   1.925  -1.550  0.00  0.00    +0.000 A 
ATOM     16  C   UNL     1      -3.349   1.786  -0.651  0.00  0.00    +0.000 A 
ATOM     17  C   UNL     1      -2.616   2.930  -0.290  0.00  0.00    +0.000 A 
ATOM     18  C   UNL     1      -2.946   4.183  -0.809  0.00  0.00    +0.000 A 
ENDBRANCH  11  16
ENDBRANCH   1  11
TORSDOF 3
