REMARK  Name = *****
REMARK  7 active torsions:
REMARK  status: ('A' for Active; 'I' for Inactive)
REMARK    1  A    between atoms: C_1  and  C_2
REMARK    2  A    between atoms: C_5  and  N_8
REMARK    3  A    between atoms: N_8  and  C_9
REMARK    4  A    between atoms: C_9  and  C_11
REMARK    5  A    between atoms: C_14  and  N_17
REMARK    6  A    between atoms: N_17  and  C_18
REMARK    7  A    between atoms: N_17  and  C_19
REMARK                            x       y       z     vdW  Elec       q    Type
REMARK                         _______ _______ _______ _____ _____    ______ ____
ROOT
ATOM      1  C   UNL     1      -4.583   0.867  -1.152  0.00  0.00    +0.000 C 
ATOM      2  S   UNL     1      -6.231   0.644  -1.367  0.00  0.00    +0.000 S 
ENDROOT
BRANCH   1   3
ATOM      3  C   UNL     1      -3.934   2.093  -1.705  0.00  0.00    +0.000 A 
ATOM      4  C   UNL     1      -2.936   1.963  -2.669  0.00  0.00    +0.000 A 
ATOM      5  C   UNL     1      -2.293   3.105  -3.166  0.00  0.00    +0.000 A 
ATOM      6  C   UNL     1      -2.623   4.403  -2.733  0.00  0.00    +0.000 A 
ATOM      7  C   UNL     1      -3.623   4.489  -1.744  0.00  0.00    +0.000 A 
ATOM      8  C   UNL     1      -4.276   3.358  -1.235  0.00  0.00    +0.000 A 
BRANCH   6   9
ATOM      9  N   UNL     1      -1.967   5.542  -3.217  0.00  0.00    +0.000 N 
ATOM     10  C   UNL     1      -2.646   6.834  -3.106  0.00  0.00    +0.000 C 
ATOM     11  C   UNL     1      -1.046   5.415  -4.345  0.00  0.00    +0.000 C 
ENDBRANCH   6   9
ENDBRANCH   1   3
BRANCH   1  12
ATOM     12  N   UNL     1      -3.664   0.074  -0.475  0.00  0.00    +0.000 N 
ATOM     13  H   UNL     1      -2.774   0.487  -0.394  0.00  0.00    +0.000 HD
BRANCH  12  18
ATOM     14  C   UNL     1      -3.650  -5.077   2.063  0.00  0.00    +0.000 C 
ATOM     15  C   UNL     1      -3.666  -3.748   1.368  0.00  0.00    +0.000 A 
ATOM     16  C   UNL     1      -4.776  -3.351   0.619  0.00  0.00    +0.000 A 
ATOM     17  C   UNL     1      -4.811  -2.096  -0.006  0.00  0.00    +0.000 A 
ATOM     18  C   UNL     1      -3.747  -1.207   0.120  0.00  0.00    +0.000 A 
ATOM     19  C   UNL     1      -2.636  -1.611   0.875  0.00  0.00    +0.000 A 
ATOM     20  C   UNL     1      -2.597  -2.861   1.501  0.00  0.00    +0.000 A 
ENDBRANCH  12  18
ENDBRANCH   1  12
TORSDOF 4
