REMARK  Name = *****
REMARK  2 active torsions:
REMARK  status: ('A' for Active; 'I' for Inactive)
REMARK    1  A    between atoms: C_2  and  C_9
REMARK    2  A    between atoms: C_3  and  C_4
REMARK                            x       y       z     vdW  Elec       q    Type
REMARK                         _______ _______ _______ _____ _____    ______ ____
ROOT
ATOM      1  C   UNL     1       0.133   0.822  -0.141  0.00  0.00    +0.000 C 
ATOM      2  C   UNL     1       0.811  -0.512  -0.054  0.00  0.00    +0.000 C 
ATOM      3  C   UNL     1      -0.714  -0.423  -0.043  0.00  0.00    +0.000 C 
ENDROOT
BRANCH   2   4
ATOM      4  C   UNL     1       1.548  -0.906   1.205  0.00  0.00    +0.000 A 
ATOM      5  C   UNL     1       1.230  -2.083   1.903  0.00  0.00    +0.000 A 
ATOM      6  C   UNL     1       1.924  -2.456   3.057  0.00  0.00    +0.000 A 
ATOM      7  C   UNL     1       2.962  -1.660   3.533  0.00  0.00    +0.000 A 
ATOM      8  C   UNL     1       3.305  -0.495   2.854  0.00  0.00    +0.000 A 
ATOM      9  C   UNL     1       2.606  -0.126   1.702  0.00  0.00    +0.000 A 
ENDBRANCH   2   4
BRANCH   3  10
ATOM     10  C   UNL     1      -1.492  -0.898  -1.266  0.00  0.00    +0.000 A 
ATOM     11  C   UNL     1      -1.084  -0.789  -2.576  0.00  0.00    +0.000 A 
ATOM     12  S   UNL     1      -2.238  -1.443  -3.660  0.00  0.00    +0.000 S 
ATOM     13  C   UNL     1      -3.285  -1.869  -2.374  0.00  0.00    +0.000 A 
ATOM     14  C   UNL     1      -2.766  -1.521  -1.145  0.00  0.00    +0.000 A 
ENDBRANCH   3  10
TORSDOF 2
