REMARK  Name = *****
REMARK  3 active torsions:
REMARK  status: ('A' for Active; 'I' for Inactive)
REMARK    1  A    between atoms: C_4  and  S_7
REMARK    2  A    between atoms: S_7  and  C_9
REMARK    3  A    between atoms: C_9  and  C_10
REMARK                            x       y       z     vdW  Elec       q    Type
REMARK                         _______ _______ _______ _____ _____    ______ ____
ROOT
ATOM      1  S   UNL     1       3.135  -0.461  -0.673  0.00  0.00    +0.000 S 
ATOM      2  O   UNL     1       3.950   0.671  -0.116  0.00  0.00    +0.000 OA
ENDROOT
BRANCH   1   6
ATOM      3  C   UNL     1      -1.429   0.263  -0.154  0.00  0.00    +0.000 C 
ATOM      4  C   UNL     1      -0.929  -1.176  -0.084  0.00  0.00    +0.000 C 
ATOM      5  C   UNL     1       0.493  -1.307  -0.628  0.00  0.00    +0.000 C 
ATOM      6  C   UNL     1       1.460  -0.355   0.085  0.00  0.00    +0.000 C 
ATOM      7  C   UNL     1       0.951   1.091  -0.001  0.00  0.00    +0.000 C 
ATOM      8  C   UNL     1      -0.470   1.222   0.543  0.00  0.00    +0.000 C 
ENDBRANCH   1   6
BRANCH   1   9
ATOM      9  C   UNL     1       3.662  -1.982   0.190  0.00  0.00    +0.000 C 
BRANCH   9  10
ATOM     10  C   UNL     1       5.003  -2.469  -0.299  0.00  0.00    +0.000 A 
ATOM     11  C   UNL     1       6.184  -1.838   0.123  0.00  0.00    +0.000 A 
ATOM     12  C   UNL     1       7.428  -2.281  -0.332  0.00  0.00    +0.000 A 
ATOM     13  C   UNL     1       7.499  -3.355  -1.215  0.00  0.00    +0.000 A 
ATOM     14  C   UNL     1       6.336  -3.988  -1.650  0.00  0.00    +0.000 A 
ATOM     15  C   UNL     1       5.091  -3.545  -1.195  0.00  0.00    +0.000 A 
ATOM     16 CL   UNL     1       9.030  -3.903  -1.777  0.00  0.00    +0.000 Cl
ENDBRANCH   9  10
ENDBRANCH   1   9
TORSDOF 3
