REMARK  Name = *****
REMARK  2 active torsions:
REMARK  status: ('A' for Active; 'I' for Inactive)
REMARK    1  A    between atoms: C_5  and  C_6
REMARK    2  A    between atoms: C_7  and  C_8
REMARK                            x       y       z     vdW  Elec       q    Type
REMARK                         _______ _______ _______ _____ _____    ______ ____
ROOT
ATOM      1  C   UNL     1       2.612  -1.467  -0.015  0.00  0.00    +0.000 C 
ATOM      2  C   UNL     1       3.879  -1.019   0.042  0.00  0.00    +0.000 C 
ENDROOT
BRANCH   1   7
ATOM      3  C   UNL     1       1.348   0.769   0.057  0.00  0.00    +0.000 A 
ATOM      4  C   UNL     1       0.047   1.226   0.040  0.00  0.00    +0.000 A 
ATOM      5  S   UNL     1      -1.082  -0.052  -0.057  0.00  0.00    +0.000 S 
ATOM      6  C   UNL     1       0.167  -1.222  -0.077  0.00  0.00    +0.000 A 
ATOM      7  C   UNL     1       1.426  -0.657  -0.011  0.00  0.00    +0.000 A 
ENDBRANCH   1   7
BRANCH   2   8
ATOM      8  C   UNL     1       5.074  -1.816   0.038  0.00  0.00    +0.000 A 
ATOM      9  C   UNL     1       5.123  -3.195  -0.007  0.00  0.00    +0.000 A 
ATOM     10  S   UNL     1       6.727  -3.797   0.002  0.00  0.00    +0.000 S 
ATOM     11  C   UNL     1       7.376  -2.218   0.066  0.00  0.00    +0.000 A 
ATOM     12  C   UNL     1       6.390  -1.255   0.081  0.00  0.00    +0.000 A 
ENDBRANCH   2   8
TORSDOF 2
