REMARK  Name = *****
REMARK  3 active torsions:
REMARK  status: ('A' for Active; 'I' for Inactive)
REMARK    1  A    between atoms: C_4  and  S_7
REMARK    2  A    between atoms: S_7  and  C_8
REMARK    3  A    between atoms: C_9  and  C_10
REMARK                            x       y       z     vdW  Elec       q    Type
REMARK                         _______ _______ _______ _____ _____    ______ ____
ROOT
ATOM      1  S   UNL     1      -3.226   0.643  -0.100  0.00  0.00    +0.000 S 
ENDROOT
BRANCH   1   5
ATOM      2  C   UNL     1       1.218  -0.448   0.109  0.00  0.00    +0.000 A 
ATOM      3  C   UNL     1       0.545  -0.504  -1.110  0.00  0.00    +0.000 A 
ATOM      4  C   UNL     1      -0.810  -0.172  -1.176  0.00  0.00    +0.000 A 
ATOM      5  C   UNL     1      -1.498   0.212  -0.020  0.00  0.00    +0.000 A 
ATOM      6  C   UNL     1      -0.815   0.273   1.199  0.00  0.00    +0.000 A 
ATOM      7  C   UNL     1       0.540  -0.059   1.264  0.00  0.00    +0.000 A 
ENDBRANCH   1   5
BRANCH   1   8
ATOM      8  C   UNL     1      -3.912  -0.945   0.032  0.00  0.00    +0.000 C 
ATOM      9  C   UNL     1      -5.239  -1.127  -0.002  0.00  0.00    +0.000 C 
BRANCH   9  10
ATOM     10  C   UNL     1      -5.804  -2.428   0.104  0.00  0.00    +0.000 A 
ATOM     11  C   UNL     1      -7.146  -2.792   0.096  0.00  0.00    +0.000 A 
ATOM     12  C   UNL     1      -7.220  -4.199   0.226  0.00  0.00    +0.000 A 
ATOM     13  C   UNL     1      -5.923  -4.634   0.309  0.00  0.00    +0.000 A 
ATOM     14  O   UNL     1      -5.067  -3.586   0.238  0.00  0.00    +0.000 OA
ENDBRANCH   9  10
ENDBRANCH   1   8
TORSDOF 3
