REMARK  Name = *****
REMARK  4 active torsions:
REMARK  status: ('A' for Active; 'I' for Inactive)
REMARK    1  A    between atoms: C_1  and  C_2
REMARK    2  A    between atoms: C_5  and  N_8
REMARK    3  A    between atoms: N_8  and  S_9
REMARK    4  A    between atoms: S_9  and  C_10
REMARK                            x       y       z     vdW  Elec       q    Type
REMARK                         _______ _______ _______ _____ _____    ______ ____
ROOT
ATOM      1  N   UNL     1      -3.195  -0.324  -0.142  0.00  0.00    +0.000 N 
ATOM      2  H   UNL     1      -3.750   0.344   0.321  0.00  0.00    +0.000 HD
ENDROOT
BRANCH   1   7
ATOM      3  C   UNL     1       2.493   0.411   0.252  0.00  0.00    +0.000 C 
ATOM      4  C   UNL     1       1.013   0.215   0.108  0.00  0.00    +0.000 A 
ATOM      5  C   UNL     1       0.127   1.258   0.383  0.00  0.00    +0.000 A 
ATOM      6  C   UNL     1      -1.255   1.059   0.282  0.00  0.00    +0.000 A 
ATOM      7  C   UNL     1      -1.789  -0.180  -0.105  0.00  0.00    +0.000 A 
ATOM      8  C   UNL     1      -0.890  -1.231  -0.331  0.00  0.00    +0.000 A 
ATOM      9  C   UNL     1       0.493  -1.037  -0.232  0.00  0.00    +0.000 A 
ENDBRANCH   1   7
BRANCH   1  10
ATOM     10  S   UNL     1      -3.953  -1.578  -0.938  0.00  0.00    +0.000 S 
BRANCH  10  11
ATOM     11  C   UNL     1      -4.490  -0.722  -2.411  0.00  0.00    +0.000 A 
ATOM     12  C   UNL     1      -3.570  -0.126  -3.280  0.00  0.00    +0.000 A 
ATOM     13  C   UNL     1      -4.010   0.537  -4.427  0.00  0.00    +0.000 A 
ATOM     14  C   UNL     1      -5.373   0.603  -4.714  0.00  0.00    +0.000 A 
ATOM     15  C   UNL     1      -6.295   0.005  -3.857  0.00  0.00    +0.000 A 
ATOM     16  C   UNL     1      -5.855  -0.658  -2.709  0.00  0.00    +0.000 A 
ENDBRANCH  10  11
ENDBRANCH   1  10
TORSDOF 3
