REMARK  Name = *****
REMARK  2 active torsions:
REMARK  status: ('A' for Active; 'I' for Inactive)
REMARK    1  A    between atoms: C_1  and  C_11
REMARK    2  A    between atoms: C_2  and  C_3
REMARK                            x       y       z     vdW  Elec       q    Type
REMARK                         _______ _______ _______ _____ _____    ______ ____
ROOT
ATOM      1  C   UNL     1       1.621  -0.055  -0.968  0.00  0.00    +0.000 C 
ATOM      2  C   UNL     1       0.496   0.087  -1.363  0.00  0.00    +0.000 C 
ENDROOT
BRANCH   2   3
ATOM      3  C   UNL     1      -0.828   0.255  -1.833  0.00  0.00    +0.000 C 
ATOM      4  C   UNL     1      -2.028  -0.568  -1.373  0.00  0.00    +0.000 C 
ATOM      5  C   UNL     1      -2.480  -0.719  -2.835  0.00  0.00    +0.000 C 
ATOM      6  C   UNL     1      -1.262   0.104  -3.288  0.00  0.00    +0.000 C 
ATOM      7  C   UNL     1      -2.093   1.392  -3.170  0.00  0.00    +0.000 C 
ATOM      8  C   UNL     1      -3.306   0.569  -2.714  0.00  0.00    +0.000 C 
ATOM      9  C   UNL     1      -2.860   0.719  -1.253  0.00  0.00    +0.000 C 
ATOM     10  C   UNL     1      -1.642   1.540  -1.707  0.00  0.00    +0.000 C 
ENDBRANCH   2   3
BRANCH   1  11
ATOM     11  C   UNL     1       2.951  -0.221  -0.504  0.00  0.00    +0.000 C 
ATOM     12  C   UNL     1       3.808   0.921   0.050  0.00  0.00    +0.000 C 
ATOM     13  C   UNL     1       5.008   0.468  -0.797  0.00  0.00    +0.000 C 
ATOM     14  C   UNL     1       4.100  -0.719  -1.378  0.00  0.00    +0.000 C 
ATOM     15  C   UNL     1       4.563  -1.695  -0.205  0.00  0.00    +0.000 C 
ATOM     16  C   UNL     1       5.511  -0.449   0.404  0.00  0.00    +0.000 C 
ATOM     17  C   UNL     1       4.250   0.051   1.237  0.00  0.00    +0.000 C 
ATOM     18  C   UNL     1       3.342  -1.136   0.654  0.00  0.00    +0.000 C 
ENDBRANCH   1  11
TORSDOF 2
