REMARK  Name = *****
REMARK  5 active torsions:
REMARK  status: ('A' for Active; 'I' for Inactive)
REMARK    1  A    between atoms: C_4  and  C_7
REMARK    2  A    between atoms: C_7  and  C_8
REMARK    3  A    between atoms: C_8  and  C_9
REMARK    4  A    between atoms: C_9  and  C_10
REMARK    5  A    between atoms: C_10  and  C_12
REMARK                            x       y       z     vdW  Elec       q    Type
REMARK                         _______ _______ _______ _____ _____    ______ ____
ROOT
ATOM      1  C   UNL     1      -5.077  -0.702  -0.455  0.00  0.00    +0.000 C 
ENDROOT
BRANCH   1   2
ATOM      2  C   UNL     1      -5.827  -2.018  -0.580  0.00  0.00    +0.000 C 
ATOM      3  O   UNL     1      -5.254  -3.106  -0.539  0.00  0.00    +0.000 OA
BRANCH   2   4
ATOM      4  C   UNL     1      -7.312  -1.982  -0.761  0.00  0.00    +0.000 A 
ATOM      5  C   UNL     1      -8.033  -0.782  -0.813  0.00  0.00    +0.000 A 
ATOM      6  C   UNL     1      -9.420  -0.804  -0.983  0.00  0.00    +0.000 A 
ATOM      7  C   UNL     1     -10.094  -2.019  -1.102  0.00  0.00    +0.000 A 
ATOM      8  C   UNL     1      -9.384  -3.216  -1.051  0.00  0.00    +0.000 A 
ATOM      9  C   UNL     1      -7.998  -3.199  -0.881  0.00  0.00    +0.000 A 
ENDBRANCH   2   4
ENDBRANCH   1   2
BRANCH   1  10
ATOM     10  C   UNL     1      -3.573  -0.907  -0.265  0.00  0.00    +0.000 C 
BRANCH  10  11
ATOM     11  C   UNL     1      -2.845   0.432  -0.149  0.00  0.00    +0.000 C 
BRANCH  11  15
ATOM     12  C   UNL     1       1.391  -0.127   0.433  0.00  0.00    +0.000 A 
ATOM     13  C   UNL     1       0.870  -0.040  -0.856  0.00  0.00    +0.000 A 
ATOM     14  C   UNL     1      -0.501   0.145  -1.046  0.00  0.00    +0.000 A 
ATOM     15  C   UNL     1      -1.362   0.250   0.054  0.00  0.00    +0.000 A 
ATOM     16  C   UNL     1      -0.829   0.153   1.346  0.00  0.00    +0.000 A 
ATOM     17  C   UNL     1       0.542  -0.032   1.534  0.00  0.00    +0.000 A 
ENDBRANCH  11  15
ENDBRANCH  10  11
ENDBRANCH   1  10
TORSDOF 5
