REMARK  Name = *****
REMARK  3 active torsions:
REMARK  status: ('A' for Active; 'I' for Inactive)
REMARK    1  A    between atoms: C_3  and  S_8
REMARK    2  A    between atoms: S_8  and  S_11
REMARK    3  A    between atoms: S_11  and  C_12
REMARK                            x       y       z     vdW  Elec       q    Type
REMARK                         _______ _______ _______ _____ _____    ______ ____
ROOT
ATOM      1  S   UNL     1      -3.829   0.026  -0.067  0.00  0.00    +0.000 S 
ATOM      2  O   UNL     1      -4.243  -0.619  -1.297  0.00  0.00    +0.000 OA
ATOM      3  O   UNL     1      -4.238  -0.482   1.228  0.00  0.00    +0.000 OA
ENDROOT
BRANCH   1   6
ATOM      4  C   UNL     1       0.028   0.131  -1.303  0.00  0.00    +0.000 A 
ATOM      5  C   UNL     1      -1.367   0.095  -1.299  0.00  0.00    +0.000 A 
ATOM      6  C   UNL     1      -2.050   0.098  -0.076  0.00  0.00    +0.000 A 
ATOM      7  C   UNL     1      -1.351   0.112   1.137  0.00  0.00    +0.000 A 
ATOM      8  C   UNL     1       0.044   0.148   1.122  0.00  0.00    +0.000 A 
ATOM      9  C   UNL     1       0.720   0.159  -0.095  0.00  0.00    +0.000 A 
ATOM     10  F   UNL     1       2.058   0.193  -0.104  0.00  0.00    +0.000 F 
ENDBRANCH   1   6
BRANCH   1  11
ATOM     11  S   UNL     1      -4.371   2.046  -0.176  0.00  0.00    +0.000 S 
BRANCH  11  12
ATOM     12  C   UNL     1      -6.141   1.945  -0.022  0.00  0.00    +0.000 A 
ATOM     13  C   UNL     1      -6.764   2.439   1.130  0.00  0.00    +0.000 A 
ATOM     14  C   UNL     1      -8.155   2.382   1.260  0.00  0.00    +0.000 A 
ATOM     15  C   UNL     1      -8.924   1.839   0.233  0.00  0.00    +0.000 A 
ATOM     16  C   UNL     1      -8.315   1.353  -0.922  0.00  0.00    +0.000 A 
ATOM     17  C   UNL     1      -6.924   1.411  -1.051  0.00  0.00    +0.000 A 
ATOM     18 CL   UNL     1     -10.636   1.771   0.391  0.00  0.00    +0.000 Cl
ENDBRANCH  11  12
ENDBRANCH   1  11
TORSDOF 3
