REMARK  Name = *****
REMARK  4 active torsions:
REMARK  status: ('A' for Active; 'I' for Inactive)
REMARK    1  A    between atoms: C_2  and  C_3
REMARK    2  A    between atoms: C_7  and  C_9
REMARK    3  A    between atoms: C_9  and  S_10
REMARK    4  A    between atoms: S_10  and  C_11
REMARK                            x       y       z     vdW  Elec       q    Type
REMARK                         _______ _______ _______ _____ _____    ______ ____
ROOT
ATOM      1  C   UNL     1       3.261   0.279  -1.321  0.00  0.00    +0.000 A 
ATOM      2  C   UNL     1       2.635   1.278  -2.078  0.00  0.00    +0.000 A 
ATOM      3  C   UNL     1       3.169   1.682  -3.303  0.00  0.00    +0.000 A 
ATOM      4  C   UNL     1       4.340   1.098  -3.783  0.00  0.00    +0.000 A 
ATOM      5  C   UNL     1       4.989   0.101  -3.042  0.00  0.00    +0.000 A 
ATOM      6  C   UNL     1       4.446  -0.291  -1.806  0.00  0.00    +0.000 A 
ENDROOT
BRANCH   1   8
ATOM      7  C   UNL     1       2.723  -1.317   0.510  0.00  0.00    +0.000 C 
ATOM      8  C   UNL     1       2.686  -0.087  -0.020  0.00  0.00    +0.000 C 
ENDBRANCH   1   8
BRANCH   5   9
ATOM      9  C   UNL     1       6.268  -0.518  -3.546  0.00  0.00    +0.000 C 
BRANCH   9  10
ATOM     10  S   UNL     1       7.730   0.399  -2.960  0.00  0.00    +0.000 S 
BRANCH  10  11
ATOM     11  C   UNL     1       9.008  -0.633  -3.651  0.00  0.00    +0.000 A 
ATOM     12  C   UNL     1       9.214  -0.696  -5.032  0.00  0.00    +0.000 A 
ATOM     13  C   UNL     1      10.224  -1.506  -5.557  0.00  0.00    +0.000 A 
ATOM     14  C   UNL     1      11.036  -2.250  -4.703  0.00  0.00    +0.000 A 
ATOM     15  C   UNL     1      10.843  -2.181  -3.324  0.00  0.00    +0.000 A 
ATOM     16  C   UNL     1       9.834  -1.371  -2.798  0.00  0.00    +0.000 A 
ENDBRANCH  10  11
ENDBRANCH   9  10
ENDBRANCH   5   9
TORSDOF 4
