REMARK  Name = *****
REMARK  4 active torsions:
REMARK  status: ('A' for Active; 'I' for Inactive)
REMARK    1  A    between atoms: C_1  and  C_2
REMARK    2  A    between atoms: C_5  and  S_8
REMARK    3  A    between atoms: S_8  and  C_9
REMARK    4  A    between atoms: C_9  and  C_11
REMARK                            x       y       z     vdW  Elec       q    Type
REMARK                         _______ _______ _______ _____ _____    ______ ____
ROOT
ATOM      1  S   UNL     1      -3.627   0.240   0.551  0.00  0.00    +0.000 S 
ENDROOT
BRANCH   1   6
ATOM      2  C   UNL     1       2.414  -0.023  -0.207  0.00  0.00    +0.000 C 
ATOM      3  C   UNL     1       0.924   0.058  -0.052  0.00  0.00    +0.000 A 
ATOM      4  C   UNL     1       0.326   1.220   0.449  0.00  0.00    +0.000 A 
ATOM      5  C   UNL     1      -1.060   1.286   0.622  0.00  0.00    +0.000 A 
ATOM      6  C   UNL     1      -1.866   0.192   0.297  0.00  0.00    +0.000 A 
ATOM      7  C   UNL     1      -1.268  -0.979  -0.179  0.00  0.00    +0.000 A 
ATOM      8  C   UNL     1       0.118  -1.046  -0.351  0.00  0.00    +0.000 A 
ENDBRANCH   1   6
BRANCH   1   9
ATOM      9  C   UNL     1      -4.166   1.369  -0.705  0.00  0.00    +0.000 C 
ATOM     10  O   UNL     1      -3.363   1.915  -1.454  0.00  0.00    +0.000 OA
BRANCH   9  11
ATOM     11  C   UNL     1      -5.612   1.570  -0.737  0.00  0.00    +0.000 A 
ATOM     12  C   UNL     1      -6.637   1.021   0.020  0.00  0.00    +0.000 A 
ATOM     13  C   UNL     1      -7.926   1.506  -0.353  0.00  0.00    +0.000 A 
ATOM     14  C   UNL     1      -7.856   2.412  -1.385  0.00  0.00    +0.000 A 
ATOM     15  S   UNL     1      -6.250   2.673  -1.898  0.00  0.00    +0.000 S 
ENDBRANCH   9  11
ENDBRANCH   1   9
TORSDOF 3
