REMARK  Name = *****
REMARK  5 active torsions:
REMARK  status: ('A' for Active; 'I' for Inactive)
REMARK    1  A    between atoms: C_1  and  C_2
REMARK    2  A    between atoms: C_4  and  C_16
REMARK    3  A    between atoms: C_5  and  C_8
REMARK    4  A    between atoms: C_8  and  C_9
REMARK    5  A    between atoms: C_9  and  C_10
REMARK                            x       y       z     vdW  Elec       q    Type
REMARK                         _______ _______ _______ _____ _____    ______ ____
ROOT
ATOM      1  C   UNL     1       2.507   1.210   0.005  0.00  0.00    +0.000 C 
ATOM      2  C   UNL     1       1.252   0.400  -0.129  0.00  0.00    +0.000 A 
ATOM      3  C   UNL     1       0.030   0.902   0.334  0.00  0.00    +0.000 A 
ATOM      4  C   UNL     1      -1.152   0.145   0.251  0.00  0.00    +0.000 A 
ATOM      5  C   UNL     1      -1.104  -1.144  -0.316  0.00  0.00    +0.000 A 
ATOM      6  C   UNL     1       0.129  -1.650  -0.760  0.00  0.00    +0.000 A 
ATOM      7  C   UNL     1       1.295  -0.889  -0.664  0.00  0.00    +0.000 A 
ATOM      8  C   UNL     1      -2.437   0.749   0.747  0.00  0.00    +0.000 C 
ENDROOT
BRANCH   5   9
ATOM      9  C   UNL     1      -2.328  -2.027  -0.433  0.00  0.00    +0.000 C 
BRANCH   9  10
ATOM     10  C   UNL     1      -2.483  -2.944   0.784  0.00  0.00    +0.000 C 
BRANCH  10  11
ATOM     11  C   UNL     1      -3.727  -3.793   0.686  0.00  0.00    +0.000 A 
ATOM     12  C   UNL     1      -3.695  -5.027   0.023  0.00  0.00    +0.000 A 
ATOM     13  C   UNL     1      -4.851  -5.801  -0.085  0.00  0.00    +0.000 A 
ATOM     14  C   UNL     1      -6.049  -5.347   0.464  0.00  0.00    +0.000 A 
ATOM     15  C   UNL     1      -6.092  -4.119   1.121  0.00  0.00    +0.000 A 
ATOM     16  C   UNL     1      -4.937  -3.343   1.229  0.00  0.00    +0.000 A 
ENDBRANCH  10  11
ENDBRANCH   9  10
ENDBRANCH   5   9
TORSDOF 3
