REMARK  Name = *****
REMARK  3 active torsions:
REMARK  status: ('A' for Active; 'I' for Inactive)
REMARK    1  A    between atoms: C_1  and  C_2
REMARK    2  A    between atoms: C_5  and  N_8
REMARK    3  A    between atoms: C_9  and  C_10
REMARK                            x       y       z     vdW  Elec       q    Type
REMARK                         _______ _______ _______ _____ _____    ______ ____
ROOT
ATOM      1  N   UNL     1      -3.214   0.168   0.160  0.00  0.00    +0.000 NA
ATOM      2  C   UNL     1      -3.915   1.002  -0.555  0.00  0.00    +0.000 C 
ATOM      3 CL   UNL     1      -3.146   2.116  -1.653  0.00  0.00    +0.000 Cl
ENDROOT
BRANCH   1   8
ATOM      4  C   UNL     1       2.488  -0.063  -0.093  0.00  0.00    +0.000 C 
ATOM      5  C   UNL     1       0.992   0.021  -0.051  0.00  0.00    +0.000 A 
ATOM      6  C   UNL     1       0.356   0.873   0.861  0.00  0.00    +0.000 A 
ATOM      7  C   UNL     1      -1.039   0.927   0.923  0.00  0.00    +0.000 A 
ATOM      8  C   UNL     1      -1.817   0.136   0.076  0.00  0.00    +0.000 A 
ATOM      9  C   UNL     1      -1.185  -0.740  -0.809  0.00  0.00    +0.000 A 
ATOM     10  C   UNL     1       0.210  -0.798  -0.874  0.00  0.00    +0.000 A 
ENDBRANCH   1   8
BRANCH   2  11
ATOM     11  C   UNL     1      -5.410   0.980  -0.412  0.00  0.00    +0.000 A 
ATOM     12  C   UNL     1      -6.229   1.877  -1.112  0.00  0.00    +0.000 A 
ATOM     13  C   UNL     1      -7.618   1.833  -0.959  0.00  0.00    +0.000 A 
ATOM     14  C   UNL     1      -8.200   0.895  -0.108  0.00  0.00    +0.000 A 
ATOM     15  C   UNL     1      -7.396  -0.002   0.593  0.00  0.00    +0.000 A 
ATOM     16  C   UNL     1      -6.008   0.040   0.443  0.00  0.00    +0.000 A 
ENDBRANCH   2  11
TORSDOF 2
