REMARK  Name = *****
REMARK  4 active torsions:
REMARK  status: ('A' for Active; 'I' for Inactive)
REMARK    1  A    between atoms: C_4  and  C_7
REMARK    2  A    between atoms: C_7  and  S_8
REMARK    3  A    between atoms: S_8  and  C_9
REMARK    4  A    between atoms: C_12  and  C_15
REMARK                            x       y       z     vdW  Elec       q    Type
REMARK                         _______ _______ _______ _____ _____    ______ ____
ROOT
ATOM      1  C   UNL     1      -5.434  -0.596  -0.395  0.00  0.00    +0.000 A 
ATOM      2  N   UNL     1      -5.643   0.708  -0.684  0.00  0.00    +0.000 NA
ATOM      3  C   UNL     1      -6.920   1.109  -0.886  0.00  0.00    +0.000 A 
ATOM      4  C   UNL     1      -8.020   0.267  -0.820  0.00  0.00    +0.000 A 
ATOM      5  C   UNL     1      -7.781  -1.074  -0.510  0.00  0.00    +0.000 A 
ATOM      6  C   UNL     1      -6.474  -1.512  -0.299  0.00  0.00    +0.000 A 
ENDROOT
BRANCH   4   7
ATOM      7  C   UNL     1      -9.400   0.806  -1.033  0.00  0.00    +0.000 C 
ATOM      8  F   UNL     1      -9.433   1.871  -1.881  0.00  0.00    +0.000 F 
ATOM      9  F   UNL     1     -10.255  -0.113  -1.560  0.00  0.00    +0.000 F 
ATOM     10  F   UNL     1      -9.974   1.231   0.125  0.00  0.00    +0.000 F 
ENDBRANCH   4   7
BRANCH   1  11
ATOM     11  S   UNL     1      -3.766  -1.161  -0.129  0.00  0.00    +0.000 S 
BRANCH  11  12
ATOM     12  C   UNL     1      -2.858   0.410  -0.281  0.00  0.00    +0.000 C 
BRANCH  12  16
ATOM     13  C   UNL     1       1.374  -0.198   0.310  0.00  0.00    +0.000 A 
ATOM     14  C   UNL     1       0.835  -0.249  -0.974  0.00  0.00    +0.000 A 
ATOM     15  C   UNL     1      -0.533  -0.051  -1.167  0.00  0.00    +0.000 A 
ATOM     16  C   UNL     1      -1.376   0.207  -0.076  0.00  0.00    +0.000 A 
ATOM     17  C   UNL     1      -0.823   0.247   1.213  0.00  0.00    +0.000 A 
ATOM     18  C   UNL     1       0.546   0.048   1.403  0.00  0.00    +0.000 A 
ENDBRANCH  12  16
ENDBRANCH  11  12
ENDBRANCH   1  11
TORSDOF 4
