REMARK  Name = *****
REMARK  4 active torsions:
REMARK  status: ('A' for Active; 'I' for Inactive)
REMARK    1  A    between atoms: C_4  and  N_7
REMARK    2  A    between atoms: N_7  and  S_8
REMARK    3  A    between atoms: S_8  and  C_10
REMARK    4  A    between atoms: S_8  and  C_16
REMARK                            x       y       z     vdW  Elec       q    Type
REMARK                         _______ _______ _______ _____ _____    ______ ____
ROOT
ATOM      1  S   UNL     1      -3.778  -0.830  -0.412  0.00  0.00    +0.000 S 
ATOM      2  O   UNL     1      -3.643  -1.787  -1.504  0.00  0.00    +0.000 OA
ENDROOT
BRANCH   1   3
ATOM      3  C   UNL     1      -3.875  -1.813   1.088  0.00  0.00    +0.000 A 
ATOM      4  C   UNL     1      -3.844  -1.176   2.333  0.00  0.00    +0.000 A 
ATOM      5  C   UNL     1      -3.914  -1.942   3.497  0.00  0.00    +0.000 A 
ATOM      6  C   UNL     1      -4.009  -3.332   3.414  0.00  0.00    +0.000 A 
ATOM      7  C   UNL     1      -4.030  -3.963   2.169  0.00  0.00    +0.000 A 
ATOM      8  C   UNL     1      -3.959  -3.206   1.000  0.00  0.00    +0.000 A 
ENDBRANCH   1   3
BRANCH   1   9
ATOM      9  C   UNL     1      -5.459  -0.111  -0.460  0.00  0.00    +0.000 C 
ATOM     10  F   UNL     1      -6.430  -1.071  -0.479  0.00  0.00    +0.000 F 
ATOM     11  F   UNL     1      -5.726   0.678   0.622  0.00  0.00    +0.000 F 
ATOM     12  F   UNL     1      -5.664   0.664  -1.564  0.00  0.00    +0.000 F 
ENDBRANCH   1   9
BRANCH   1  13
ATOM     13  N   UNL     1      -2.716   0.268  -0.117  0.00  0.00    +0.000 NA
BRANCH  13  17
ATOM     14  C   UNL     1       1.497  -0.144  -0.022  0.00  0.00    +0.000 A 
ATOM     15  C   UNL     1       0.725  -1.249  -0.376  0.00  0.00    +0.000 A 
ATOM     16  C   UNL     1      -0.671  -1.148  -0.422  0.00  0.00    +0.000 A 
ATOM     17  C   UNL     1      -1.302   0.058  -0.113  0.00  0.00    +0.000 A 
ATOM     18  C   UNL     1      -0.518   1.161   0.237  0.00  0.00    +0.000 A 
ATOM     19  C   UNL     1       0.876   1.064   0.284  0.00  0.00    +0.000 A 
ENDBRANCH  13  17
ENDBRANCH   1  13
TORSDOF 4
