REMARK  Name = *****
REMARK  2 active torsions:
REMARK  status: ('A' for Active; 'I' for Inactive)
REMARK    1  A    between atoms: C_3  and  C_11
REMARK    2  A    between atoms: C_4  and  C_5
REMARK                            x       y       z     vdW  Elec       q    Type
REMARK                         _______ _______ _______ _____ _____    ______ ____
ROOT
ATOM      1  C   UNL     1       0.104   1.340   0.109  0.00  0.00    +0.000 C 
ATOM      2  C   UNL     1      -1.244   0.614   0.013  0.00  0.00    +0.000 C 
ATOM      3  C   UNL     1      -0.494  -0.716  -0.249  0.00  0.00    +0.000 C 
ATOM      4  C   UNL     1       0.816  -0.026   0.266  0.00  0.00    +0.000 C 
ENDROOT
BRANCH   4   5
ATOM      5  C   UNL     1       1.364  -0.467   1.702  0.00  0.00    +0.000 A 
ATOM      6  C   UNL     1       2.553  -1.215   1.821  0.00  0.00    +0.000 A 
ATOM      7  C   UNL     1       3.057  -1.623   3.060  0.00  0.00    +0.000 A 
ATOM      8  C   UNL     1       2.378  -1.295   4.228  0.00  0.00    +0.000 A 
ATOM      9  C   UNL     1       1.199  -0.562   4.152  0.00  0.00    +0.000 A 
ATOM     10  C   UNL     1       0.704  -0.157   2.908  0.00  0.00    +0.000 A 
ENDBRANCH   4   5
BRANCH   3  11
ATOM     11  C   UNL     1      -0.467  -1.330  -1.725  0.00  0.00    +0.000 A 
ATOM     12  C   UNL     1      -0.448  -0.539  -2.890  0.00  0.00    +0.000 A 
ATOM     13  C   UNL     1      -0.417  -1.101  -4.171  0.00  0.00    +0.000 A 
ATOM     14  C   UNL     1      -0.402  -2.482  -4.325  0.00  0.00    +0.000 A 
ATOM     15  C   UNL     1      -0.416  -3.297  -3.199  0.00  0.00    +0.000 A 
ATOM     16  C   UNL     1      -0.447  -2.726  -1.924  0.00  0.00    +0.000 A 
ENDBRANCH   3  11
TORSDOF 2
