REMARK  Name = *****
REMARK  5 active torsions:
REMARK  status: ('A' for Active; 'I' for Inactive)
REMARK    1  A    between atoms: C_1  and  C_2
REMARK    2  A    between atoms: C_2  and  C_3
REMARK    3  A    between atoms: C_3  and  C_4
REMARK    4  A    between atoms: C_3  and  C_11
REMARK    5  A    between atoms: C_4  and  C_5
REMARK                            x       y       z     vdW  Elec       q    Type
REMARK                         _______ _______ _______ _____ _____    ______ ____
ROOT
ATOM      1  C   UNL     1       3.243   1.035   1.021  0.00  0.00    +0.000 C 
ENDROOT
BRANCH   1   2
ATOM      2  C   UNL     1       4.764   0.998   1.132  0.00  0.00    +0.000 A 
ATOM      3  C   UNL     1       5.499   2.161   0.848  0.00  0.00    +0.000 A 
ATOM      4  C   UNL     1       6.892   2.172   0.944  0.00  0.00    +0.000 A 
ATOM      5  C   UNL     1       7.572   1.020   1.329  0.00  0.00    +0.000 A 
ATOM      6  C   UNL     1       6.860  -0.140   1.620  0.00  0.00    +0.000 A 
ATOM      7  C   UNL     1       5.466  -0.151   1.524  0.00  0.00    +0.000 A 
ENDBRANCH   1   2
BRANCH   1   9
ATOM      8  C   UNL     1       2.620   0.115   3.378  0.00  0.00    +0.000 C 
ATOM      9  C   UNL     1       2.580   1.280   2.397  0.00  0.00    +0.000 C 
ENDBRANCH   1   9
BRANCH   1  10
ATOM     10  C   UNL     1       2.618  -0.170   0.278  0.00  0.00    +0.000 C 
BRANCH  10  11
ATOM     11  C   UNL     1       2.903  -0.172  -1.209  0.00  0.00    +0.000 A 
ATOM     12  C   UNL     1       3.935  -0.956  -1.739  0.00  0.00    +0.000 A 
ATOM     13  C   UNL     1       4.201  -0.945  -3.109  0.00  0.00    +0.000 A 
ATOM     14  C   UNL     1       3.440  -0.149  -3.962  0.00  0.00    +0.000 A 
ATOM     15  C   UNL     1       2.412   0.638  -3.446  0.00  0.00    +0.000 A 
ATOM     16  C   UNL     1       2.145   0.628  -2.076  0.00  0.00    +0.000 A 
ENDBRANCH  10  11
ENDBRANCH   1  10
TORSDOF 4
