REMARK  Name = *****
REMARK  2 active torsions:
REMARK  status: ('A' for Active; 'I' for Inactive)
REMARK    1  A    between atoms: C_3  and  C_6
REMARK    2  A    between atoms: C_9  and  C_11
REMARK                            x       y       z     vdW  Elec       q    Type
REMARK                         _______ _______ _______ _____ _____    ______ ____
ROOT
ATOM      1  C   UNL     1       0.154  -2.040   1.340  0.00  0.00    +0.000 A 
ATOM      2  C   UNL     1       0.096  -1.588   2.645  0.00  0.00    +0.000 A 
ATOM      3  C   UNL     1       0.157  -2.648   3.592  0.00  0.00    +0.000 A 
ATOM      4  C   UNL     1       0.265  -3.888   2.990  0.00  0.00    +0.000 A 
ATOM      5  S   UNL     1       0.288  -3.747   1.282  0.00  0.00    +0.000 S 
ENDROOT
BRANCH   1   8
ATOM      6  C   UNL     1       0.705   1.013  -0.236  0.00  0.00    +0.000 C 
ATOM      7  C   UNL     1       1.222  -0.215  -0.067  0.00  0.00    +0.000 C 
ATOM      8  C   UNL     1       0.113  -1.237   0.064  0.00  0.00    +0.000 C 
ATOM      9  C   UNL     1      -1.106  -0.349  -0.077  0.00  0.00    +0.000 C 
ATOM     10  C   UNL     1      -0.733   0.929  -0.242  0.00  0.00    +0.000 C 
ENDBRANCH   1   8
BRANCH   4  11
ATOM     11  C   UNL     1       0.349  -5.246   3.641  0.00  0.00    +0.000 C 
ATOM     12  C   UNL     1      -0.865  -5.617   4.465  0.00  0.00    +0.000 C 
ATOM     13  C   UNL     1      -0.504  -5.890   5.729  0.00  0.00    +0.000 C 
ATOM     14  C   UNL     1       0.923  -5.742   5.860  0.00  0.00    +0.000 C 
ATOM     15  C   UNL     1       1.444  -5.378   4.679  0.00  0.00    +0.000 C 
ENDBRANCH   4  11
TORSDOF 2
