REMARK  Name = *****
REMARK  3 active torsions:
REMARK  status: ('A' for Active; 'I' for Inactive)
REMARK    1  A    between atoms: C_4  and  C_7
REMARK    2  A    between atoms: C_7  and  O_9
REMARK    3  A    between atoms: O_9  and  C_10
REMARK                            x       y       z     vdW  Elec       q    Type
REMARK                         _______ _______ _______ _____ _____    ______ ____
ROOT
ATOM      1  C   UNL     1      -2.704   0.152   0.512  0.00  0.00    +0.000 C 
ATOM      2  O   UNL     1      -3.337   1.188   0.371  0.00  0.00    +0.000 OA
ENDROOT
BRANCH   1   6
ATOM      3  C   UNL     1       1.411  -0.140  -0.669  0.00  0.00    +0.000 A 
ATOM      4  C   UNL     1       0.775  -1.262  -0.139  0.00  0.00    +0.000 A 
ATOM      5  C   UNL     1      -0.564  -1.190   0.252  0.00  0.00    +0.000 A 
ATOM      6  C   UNL     1      -1.275   0.011   0.113  0.00  0.00    +0.000 A 
ATOM      7  C   UNL     1      -0.627   1.133  -0.421  0.00  0.00    +0.000 A 
ATOM      8  C   UNL     1       0.711   1.058  -0.810  0.00  0.00    +0.000 A 
ENDBRANCH   1   6
BRANCH   1   9
ATOM      9  O   UNL     1      -3.161  -1.038   1.045  0.00  0.00    +0.000 OA
BRANCH   9  10
ATOM     10  C   UNL     1      -4.494  -0.978   1.455  0.00  0.00    +0.000 A 
ATOM     11  C   UNL     1      -4.797  -0.542   2.742  0.00  0.00    +0.000 A 
ATOM     12  C   UNL     1      -6.126  -0.539   3.143  0.00  0.00    +0.000 A 
ATOM     13  C   UNL     1      -7.139  -0.973   2.290  0.00  0.00    +0.000 A 
ATOM     14  C   UNL     1      -6.819  -1.424   1.008  0.00  0.00    +0.000 A 
ATOM     15  C   UNL     1      -5.488  -1.435   0.588  0.00  0.00    +0.000 A 
ATOM     16  F   UNL     1      -6.441  -0.118   4.375  0.00  0.00    +0.000 F 
ENDBRANCH   9  10
ENDBRANCH   1   9
TORSDOF 3
