REMARK  Name = *****
REMARK  3 active torsions:
REMARK  status: ('A' for Active; 'I' for Inactive)
REMARK    1  A    between atoms: C_3  and  C_9
REMARK    2  A    between atoms: C_9  and  O_11
REMARK    3  A    between atoms: O_11  and  C_12
REMARK                            x       y       z     vdW  Elec       q    Type
REMARK                         _______ _______ _______ _____ _____    ______ ____
ROOT
ATOM      1  C   UNL     1      -2.757  -0.374   0.148  0.00  0.00    +0.000 C 
ATOM      2  O   UNL     1      -3.219  -1.440  -0.233  0.00  0.00    +0.000 OA
ENDROOT
BRANCH   1   5
ATOM      3  C   UNL     1       1.048  -0.835  -0.504  0.00  0.00    +0.000 C 
ATOM      4  C   UNL     1      -0.444  -1.191  -0.463  0.00  0.00    +0.000 C 
ATOM      5  C   UNL     1      -1.274  -0.016   0.109  0.00  0.00    +0.000 C 
ATOM      6  C   UNL     1      -1.030   1.218  -0.788  0.00  0.00    +0.000 C 
ATOM      7  C   UNL     1       0.464   1.570  -0.825  0.00  0.00    +0.000 C 
ATOM      8  C   UNL     1       1.269   0.585   0.037  0.00  0.00    +0.000 C 
ATOM      9  C   UNL     1       0.748   0.647   1.481  0.00  0.00    +0.000 C 
ATOM     10  C   UNL     1      -0.745   0.291   1.528  0.00  0.00    +0.000 C 
ENDBRANCH   1   5
BRANCH   1  11
ATOM     11  O   UNL     1      -3.480   0.657   0.665  0.00  0.00    +0.000 OA
BRANCH  11  12
ATOM     12  C   UNL     1      -4.909   0.552   0.813  0.00  0.00    +0.000 C 
ATOM     13  C   UNL     1      -5.333  -0.566   1.788  0.00  0.00    +0.000 C 
ATOM     14  C   UNL     1      -6.855  -0.559   1.982  0.00  0.00    +0.000 C 
ATOM     15  C   UNL     1      -7.495   0.582   1.173  0.00  0.00    +0.000 C 
ATOM     16  C   UNL     1      -7.164   0.384  -0.316  0.00  0.00    +0.000 C 
ATOM     17  C   UNL     1      -5.644   0.387  -0.534  0.00  0.00    +0.000 C 
ATOM     18  C   UNL     1      -6.887   1.913   1.637  0.00  0.00    +0.000 C 
ATOM     19  C   UNL     1      -5.370   1.897   1.426  0.00  0.00    +0.000 C 
ENDBRANCH  11  12
ENDBRANCH   1  11
TORSDOF 3
