REMARK  Name = *****
REMARK  5 active torsions:
REMARK  status: ('A' for Active; 'I' for Inactive)
REMARK    1  A    between atoms: C_2  and  C_3
REMARK    2  A    between atoms: C_6  and  O_9
REMARK    3  A    between atoms: O_9  and  C_10
REMARK    4  A    between atoms: C_10  and  O_12
REMARK    5  A    between atoms: O_12  and  C_13
REMARK                            x       y       z     vdW  Elec       q    Type
REMARK                         _______ _______ _______ _____ _____    ______ ____
ROOT
ATOM      1  C   UNL     1       5.516  -1.951  -5.233  0.00  0.00    +0.000 C 
ATOM      2  O   UNL     1       5.958  -0.830  -5.015  0.00  0.00    +0.000 OA
ENDROOT
BRANCH   1   3
ATOM      3  O   UNL     1       4.534  -2.608  -4.506  0.00  0.00    +0.000 OA
BRANCH   3   7
ATOM      4  C   UNL     1       3.052  -0.528  -1.188  0.00  0.00    +0.000 A 
ATOM      5  C   UNL     1       2.631  -0.186  -2.482  0.00  0.00    +0.000 A 
ATOM      6  C   UNL     1       3.123  -0.868  -3.597  0.00  0.00    +0.000 A 
ATOM      7  C   UNL     1       4.063  -1.879  -3.414  0.00  0.00    +0.000 A 
ATOM      8  C   UNL     1       4.493  -2.241  -2.140  0.00  0.00    +0.000 A 
ATOM      9  C   UNL     1       3.995  -1.555  -1.030  0.00  0.00    +0.000 A 
BRANCH   4  11
ATOM     10  C   UNL     1       2.295  -0.271   1.167  0.00  0.00    +0.000 C 
ATOM     11  C   UNL     1       2.530   0.239  -0.049  0.00  0.00    +0.000 C 
ENDBRANCH   4  11
ENDBRANCH   3   7
ENDBRANCH   1   3
BRANCH   1  12
ATOM     12  O   UNL     1       5.911  -2.803  -6.257  0.00  0.00    +0.000 OA
BRANCH  12  13
ATOM     13  C   UNL     1       6.934  -2.336  -7.092  0.00  0.00    +0.000 A 
ATOM     14  C   UNL     1       8.202  -2.038  -6.591  0.00  0.00    +0.000 A 
ATOM     15  C   UNL     1       9.207  -1.633  -7.471  0.00  0.00    +0.000 A 
ATOM     16  C   UNL     1       8.939  -1.550  -8.839  0.00  0.00    +0.000 A 
ATOM     17  C   UNL     1       7.675  -1.873  -9.336  0.00  0.00    +0.000 A 
ATOM     18  C   UNL     1       6.667  -2.276  -8.459  0.00  0.00    +0.000 A 
ATOM     19 CL   UNL     1      10.181  -1.056  -9.922  0.00  0.00    +0.000 Cl
ENDBRANCH  12  13
ENDBRANCH   1  12
TORSDOF 5
