REMARK  Name = *****
REMARK  3 active torsions:
REMARK  status: ('A' for Active; 'I' for Inactive)
REMARK    1  A    between atoms: C_4  and  C_7
REMARK    2  A    between atoms: C_7  and  C_16
REMARK    3  A    between atoms: N_8  and  C_9
REMARK                            x       y       z     vdW  Elec       q    Type
REMARK                         _______ _______ _______ _____ _____    ______ ____
ROOT
ATOM      1  C   UNL     1      -2.827   0.515  -0.175  0.00  0.00    +0.000 C 
ATOM      2  N   UNL     1      -3.278   1.737  -0.270  0.00  0.00    +0.000 NA
ENDROOT
BRANCH   2   3
ATOM      3  C   UNL     1      -2.409   2.835  -0.277  0.00  0.00    +0.000 A 
ATOM      4  C   UNL     1      -2.260   3.584  -1.447  0.00  0.00    +0.000 A 
ATOM      5  C   UNL     1      -1.418   4.699  -1.474  0.00  0.00    +0.000 A 
ATOM      6  C   UNL     1      -0.735   5.075  -0.320  0.00  0.00    +0.000 A 
ATOM      7  C   UNL     1      -0.896   4.354   0.862  0.00  0.00    +0.000 A 
ATOM      8  C   UNL     1      -1.741   3.241   0.883  0.00  0.00    +0.000 A 
ATOM      9 CL   UNL     1       0.304   6.446  -0.350  0.00  0.00    +0.000 Cl
ENDBRANCH   2   3
BRANCH   1  13
ATOM     10  C   UNL     1       1.277  -0.653  -0.020  0.00  0.00    +0.000 A 
ATOM     11  C   UNL     1       0.432  -0.931   1.056  0.00  0.00    +0.000 A 
ATOM     12  C   UNL     1      -0.909  -0.550   1.008  0.00  0.00    +0.000 A 
ATOM     13  C   UNL     1      -1.399   0.114  -0.121  0.00  0.00    +0.000 A 
ATOM     14  C   UNL     1      -0.557   0.386  -1.203  0.00  0.00    +0.000 A 
ATOM     15  C   UNL     1       0.784   0.004  -1.148  0.00  0.00    +0.000 A 
ENDBRANCH   1  13
BRANCH   1  16
ATOM     16  C   UNL     1      -3.827  -0.628  -0.100  0.00  0.00    +0.000 C 
ATOM     17  F   UNL     1      -3.465  -1.682  -0.885  0.00  0.00    +0.000 F 
ATOM     18  F   UNL     1      -3.937  -1.122   1.166  0.00  0.00    +0.000 F 
ENDBRANCH   1  16
TORSDOF 3
