REMARK  Name = *****
REMARK  3 active torsions:
REMARK  status: ('A' for Active; 'I' for Inactive)
REMARK    1  A    between atoms: C_1  and  C_2
REMARK    2  A    between atoms: C_2  and  C_11
REMARK    3  A    between atoms: N_3  and  C_4
REMARK                            x       y       z     vdW  Elec       q    Type
REMARK                         _______ _______ _______ _____ _____    ______ ____
ROOT
ATOM      1  C   UNL     1       1.153  -0.962  -0.168  0.00  0.00    +0.000 C 
ATOM      2  C   UNL     1       2.427  -0.152  -0.006  0.00  0.00    +0.000 C 
ATOM      3  N   UNL     1       2.914   0.631  -0.925  0.00  0.00    +0.000 NA
ENDROOT
BRANCH   3   4
ATOM      4  C   UNL     1       2.253   0.782  -2.148  0.00  0.00    +0.000 A 
ATOM      5  C   UNL     1       1.217   1.713  -2.285  0.00  0.00    +0.000 A 
ATOM      6  C   UNL     1       0.577   1.880  -3.515  0.00  0.00    +0.000 A 
ATOM      7  C   UNL     1       0.988   1.124  -4.607  0.00  0.00    +0.000 A 
ATOM      8  C   UNL     1       2.030   0.211  -4.494  0.00  0.00    +0.000 A 
ATOM      9  C   UNL     1       2.668   0.046  -3.263  0.00  0.00    +0.000 A 
ATOM     10  F   UNL     1       0.376   1.284  -5.787  0.00  0.00    +0.000 F 
ENDBRANCH   3   4
BRANCH   2  11
ATOM     11  C   UNL     1       3.159  -0.250   1.294  0.00  0.00    +0.000 A 
ATOM     12  C   UNL     1       2.490  -0.529   2.490  0.00  0.00    +0.000 A 
ATOM     13  C   UNL     1       3.210  -0.603   3.683  0.00  0.00    +0.000 A 
ATOM     14  C   UNL     1       4.589  -0.396   3.698  0.00  0.00    +0.000 A 
ATOM     15  C   UNL     1       5.257  -0.105   2.509  0.00  0.00    +0.000 A 
ATOM     16  C   UNL     1       4.544  -0.028   1.312  0.00  0.00    +0.000 A 
ATOM     17 CL   UNL     1       2.386  -0.947   5.154  0.00  0.00    +0.000 Cl
ENDBRANCH   2  11
TORSDOF 2
