REMARK  Name = *****
REMARK  5 active torsions:
REMARK  status: ('A' for Active; 'I' for Inactive)
REMARK    1  A    between atoms: C_1  and  C_2
REMARK    2  A    between atoms: C_4  and  O_9
REMARK    3  A    between atoms: C_5  and  C_8
REMARK    4  A    between atoms: O_9  and  C_10
REMARK    5  A    between atoms: C_10  and  C_11
REMARK                            x       y       z     vdW  Elec       q    Type
REMARK                         _______ _______ _______ _____ _____    ______ ____
ROOT
ATOM      1  C   UNL     1       2.935  -0.079   0.111  0.00  0.00    +0.000 C 
ATOM      2  C   UNL     1       1.435  -0.035   0.084  0.00  0.00    +0.000 A 
ATOM      3  C   UNL     1       0.763   1.191  -0.036  0.00  0.00    +0.000 A 
ATOM      4  C   UNL     1      -0.635   1.239  -0.095  0.00  0.00    +0.000 A 
ATOM      5  C   UNL     1      -1.373   0.044  -0.049  0.00  0.00    +0.000 A 
ATOM      6  C   UNL     1      -0.698  -1.180   0.054  0.00  0.00    +0.000 A 
ATOM      7  C   UNL     1       0.695  -1.219   0.116  0.00  0.00    +0.000 A 
ATOM      8  C   UNL     1      -2.876   0.065  -0.119  0.00  0.00    +0.000 C 
ENDROOT
BRANCH   4   9
ATOM      9  O   UNL     1      -1.377   2.386  -0.208  0.00  0.00    +0.000 OA
BRANCH   9  10
ATOM     10  C   UNL     1      -0.683   3.632  -0.154  0.00  0.00    +0.000 C 
BRANCH  10  11
ATOM     11  C   UNL     1      -1.683   4.766  -0.181  0.00  0.00    +0.000 A 
ATOM     12  C   UNL     1      -2.831   4.731   0.624  0.00  0.00    +0.000 A 
ATOM     13  C   UNL     1      -3.733   5.796   0.624  0.00  0.00    +0.000 A 
ATOM     14  C   UNL     1      -3.493   6.913  -0.173  0.00  0.00    +0.000 A 
ATOM     15  C   UNL     1      -2.350   6.967  -0.968  0.00  0.00    +0.000 A 
ATOM     16  C   UNL     1      -1.447   5.902  -0.970  0.00  0.00    +0.000 A 
ENDBRANCH  10  11
ENDBRANCH   9  10
ENDBRANCH   4   9
TORSDOF 3
