REMARK  Name = *****
REMARK  8 active torsions:
REMARK  status: ('A' for Active; 'I' for Inactive)
REMARK    1  A    between atoms: C_1  and  C_2
REMARK    2  A    between atoms: C_2  and  N_3
REMARK    3  A    between atoms: N_3  and  C_4
REMARK    4  A    between atoms: N_3  and  C_11
REMARK    5  A    between atoms: C_7  and  C_10
REMARK    6  A    between atoms: C_11  and  C_12
REMARK    7  A    between atoms: C_11  and  C_13
REMARK    8  A    between atoms: C_16  and  C_19
REMARK                            x       y       z     vdW  Elec       q    Type
REMARK                         _______ _______ _______ _____ _____    ______ ____
ROOT
ATOM      1  N   UNL     1       2.795  -1.110  -0.785  0.00  0.00    +0.000 N 
ENDROOT
BRANCH   1   2
ATOM      2  C   UNL     1       1.860  -1.725  -1.629  0.00  0.00    +0.000 A 
ATOM      3  C   UNL     1       2.227  -2.442  -2.782  0.00  0.00    +0.000 A 
ATOM      4  C   UNL     1       1.287  -3.061  -3.622  0.00  0.00    +0.000 A 
ATOM      5  C   UNL     1      -0.074  -2.981  -3.344  0.00  0.00    +0.000 A 
ATOM      6  C   UNL     1      -0.473  -2.280  -2.209  0.00  0.00    +0.000 A 
ATOM      7  C   UNL     1       0.477  -1.666  -1.378  0.00  0.00    +0.000 A 
ATOM      8  C   UNL     1      -1.089  -3.651  -4.219  0.00  0.00    +0.000 C 
ENDBRANCH   1   2
BRANCH   1  10
ATOM      9  C   UNL     1       1.940  -0.432   1.456  0.00  0.00    +0.000 C 
ATOM     10  C   UNL     1       2.370   0.020   0.066  0.00  0.00    +0.000 C 
ENDBRANCH   1  10
BRANCH   1  11
ATOM     11  C   UNL     1       4.258  -1.328  -0.961  0.00  0.00    +0.000 C 
ATOM     12  C   UNL     1       4.920  -1.513   0.418  0.00  0.00    +0.000 C 
BRANCH  11  13
ATOM     13  C   UNL     1       4.945  -0.261  -1.825  0.00  0.00    +0.000 A 
ATOM     14  C   UNL     1       4.222   0.608  -2.660  0.00  0.00    +0.000 A 
ATOM     15  C   UNL     1       4.866   1.554  -3.465  0.00  0.00    +0.000 A 
ATOM     16  C   UNL     1       6.258   1.657  -3.466  0.00  0.00    +0.000 A 
ATOM     17  C   UNL     1       6.995   0.773  -2.676  0.00  0.00    +0.000 A 
ATOM     18  C   UNL     1       6.348  -0.172  -1.871  0.00  0.00    +0.000 A 
ATOM     19  C   UNL     1       6.947   2.646  -4.357  0.00  0.00    +0.000 C 
ENDBRANCH  11  13
ENDBRANCH   1  11
TORSDOF 4
