REMARK  Name = *****
REMARK  5 active torsions:
REMARK  status: ('A' for Active; 'I' for Inactive)
REMARK    1  A    between atoms: C_1  and  C_2
REMARK    2  A    between atoms: C_5  and  O_8
REMARK    3  A    between atoms: O_8  and  C_9
REMARK    4  A    between atoms: C_9  and  O_11
REMARK    5  A    between atoms: O_11  and  C_12
REMARK                            x       y       z     vdW  Elec       q    Type
REMARK                         _______ _______ _______ _____ _____    ______ ____
ROOT
ATOM      1  C   UNL     1      -3.790   0.479   1.043  0.00  0.00    +0.000 C 
ATOM      2  O   UNL     1      -3.427   1.623   1.282  0.00  0.00    +0.000 OA
ENDROOT
BRANCH   1   3
ATOM      3  O   UNL     1      -3.014  -0.534   0.493  0.00  0.00    +0.000 OA
BRANCH   3   8
ATOM      4  C   UNL     1       2.435   0.568  -0.702  0.00  0.00    +0.000 C 
ATOM      5  C   UNL     1       0.990   0.318  -0.382  0.00  0.00    +0.000 A 
ATOM      6  C   UNL     1       0.538   0.387   0.943  0.00  0.00    +0.000 A 
ATOM      7  C   UNL     1      -0.797   0.124   1.251  0.00  0.00    +0.000 A 
ATOM      8  C   UNL     1      -1.682  -0.202   0.224  0.00  0.00    +0.000 A 
ATOM      9  C   UNL     1      -1.244  -0.310  -1.093  0.00  0.00    +0.000 A 
ATOM     10  C   UNL     1       0.093  -0.048  -1.395  0.00  0.00    +0.000 A 
ENDBRANCH   3   8
ENDBRANCH   1   3
BRANCH   1  11
ATOM     11  O   UNL     1      -5.053  -0.050   1.269  0.00  0.00    +0.000 OA
BRANCH  11  12
ATOM     12  C   UNL     1      -5.936   0.860   1.850  0.00  0.00    +0.000 A 
ATOM     13  C   UNL     1      -6.815   1.566   1.031  0.00  0.00    +0.000 A 
ATOM     14  C   UNL     1      -7.734   2.438   1.614  0.00  0.00    +0.000 A 
ATOM     15  C   UNL     1      -7.775   2.584   3.003  0.00  0.00    +0.000 A 
ATOM     16  C   UNL     1      -6.902   1.855   3.814  0.00  0.00    +0.000 A 
ATOM     17  C   UNL     1      -5.981   0.981   3.238  0.00  0.00    +0.000 A 
ENDBRANCH  11  12
ENDBRANCH   1  11
TORSDOF 4
