REMARK  Name = *****
REMARK  4 active torsions:
REMARK  status: ('A' for Active; 'I' for Inactive)
REMARK    1  A    between atoms: C_1  and  C_2
REMARK    2  A    between atoms: C_5  and  C_8
REMARK    3  A    between atoms: C_8  and  S_11
REMARK    4  A    between atoms: S_11  and  C_12
REMARK                            x       y       z     vdW  Elec       q    Type
REMARK                         _______ _______ _______ _____ _____    ______ ____
ROOT
ATOM      1  C   UNL     1      -3.190   0.857  -0.015  0.00  0.00    +0.000 C 
ATOM      2  C   UNL     1      -4.048   0.043  -0.566  0.00  0.00    +0.000 C 
ATOM      3  O   UNL     1      -4.808  -0.698  -1.075  0.00  0.00    +0.000 OA
ENDROOT
BRANCH   1   8
ATOM      4  C   UNL     1       2.487  -0.384   0.223  0.00  0.00    +0.000 C 
ATOM      5  C   UNL     1       1.029  -0.041   0.149  0.00  0.00    +0.000 A 
ATOM      6  C   UNL     1       0.240  -0.517  -0.901  0.00  0.00    +0.000 A 
ATOM      7  C   UNL     1      -1.126  -0.222  -0.956  0.00  0.00    +0.000 A 
ATOM      8  C   UNL     1      -1.742   0.553   0.042  0.00  0.00    +0.000 A 
ATOM      9  C   UNL     1      -0.943   1.005   1.106  0.00  0.00    +0.000 A 
ATOM     10  C   UNL     1       0.424   0.709   1.161  0.00  0.00    +0.000 A 
ENDBRANCH   1   8
BRANCH   1  11
ATOM     11  S   UNL     1      -3.679   2.497   0.311  0.00  0.00    +0.000 S 
BRANCH  11  12
ATOM     12  C   UNL     1      -5.087   2.200   1.367  0.00  0.00    +0.000 A 
ATOM     13  C   UNL     1      -4.920   1.707   2.666  0.00  0.00    +0.000 A 
ATOM     14  C   UNL     1      -6.031   1.491   3.484  0.00  0.00    +0.000 A 
ATOM     15  C   UNL     1      -7.312   1.772   3.010  0.00  0.00    +0.000 A 
ATOM     16  C   UNL     1      -7.483   2.273   1.721  0.00  0.00    +0.000 A 
ATOM     17  C   UNL     1      -6.373   2.490   0.902  0.00  0.00    +0.000 A 
ENDBRANCH  11  12
ENDBRANCH   1  11
TORSDOF 3
