REMARK  Name = *****
REMARK  3 active torsions:
REMARK  status: ('A' for Active; 'I' for Inactive)
REMARK    1  A    between atoms: C_1  and  C_2
REMARK    2  A    between atoms: C_4  and  N_8
REMARK    3  A    between atoms: C_9  and  C_11
REMARK                            x       y       z     vdW  Elec       q    Type
REMARK                         _______ _______ _______ _____ _____    ______ ____
ROOT
ATOM      1  N   UNL     1      -1.647   2.569   0.106  0.00  0.00    +0.000 N 
ATOM      2  C   UNL     1      -1.114   3.803  -0.220  0.00  0.00    +0.000 C 
ATOM      3  O   UNL     1       0.035   4.012  -0.597  0.00  0.00    +0.000 OA
ATOM      4  H   UNL     1      -2.589   2.568   0.394  0.00  0.00    +0.000 HD
ENDROOT
BRANCH   2   5
ATOM      5  C   UNL     1      -2.029   4.981  -0.098  0.00  0.00    +0.000 A 
ATOM      6  C   UNL     1      -3.360   4.882   0.323  0.00  0.00    +0.000 A 
ATOM      7  C   UNL     1      -4.176   6.006   0.421  0.00  0.00    +0.000 A 
ATOM      8  C   UNL     1      -3.655   7.250   0.094  0.00  0.00    +0.000 A 
ATOM      9  C   UNL     1      -2.338   7.386  -0.328  0.00  0.00    +0.000 A 
ATOM     10  C   UNL     1      -1.525   6.253  -0.424  0.00  0.00    +0.000 A 
ATOM     11  F   UNL     1      -4.434   8.335   0.186  0.00  0.00    +0.000 F 
ATOM     12  F   UNL     1      -3.894   3.693   0.647  0.00  0.00    +0.000 F 
ENDBRANCH   2   5
BRANCH   1  16
ATOM     13  C   UNL     1       2.332  -0.355  -0.688  0.00  0.00    +0.000 C 
ATOM     14  C   UNL     1       0.891  -0.169  -0.314  0.00  0.00    +0.000 A 
ATOM     15  C   UNL     1       0.325   1.117  -0.301  0.00  0.00    +0.000 A 
ATOM     16  C   UNL     1      -1.006   1.312   0.075  0.00  0.00    +0.000 A 
ATOM     17  C   UNL     1      -1.770   0.201   0.453  0.00  0.00    +0.000 A 
ATOM     18  C   UNL     1      -1.213  -1.079   0.459  0.00  0.00    +0.000 A 
ATOM     19  C   UNL     1       0.115  -1.263   0.082  0.00  0.00    +0.000 A 
ENDBRANCH   1  16
TORSDOF 2
