REMARK  Name = *****
REMARK  5 active torsions:
REMARK  status: ('A' for Active; 'I' for Inactive)
REMARK    1  A    between atoms: C_1  and  C_2
REMARK    2  A    between atoms: C_5  and  C_8
REMARK    3  A    between atoms: C_8  and  S_10
REMARK    4  A    between atoms: S_10  and  C_11
REMARK    5  A    between atoms: C_15  and  C_17
REMARK                            x       y       z     vdW  Elec       q    Type
REMARK                         _______ _______ _______ _____ _____    ______ ____
ROOT
ATOM      1  C   UNL     1      -3.724  -0.570  -0.079  0.00  0.00    +0.000 C 
ATOM      2  O   UNL     1      -4.038  -1.634   0.444  0.00  0.00    +0.000 OA
ENDROOT
BRANCH   1   7
ATOM      3  C   UNL     1       1.892   0.944  -0.103  0.00  0.00    +0.000 C 
ATOM      4  C   UNL     1       0.443   0.557  -0.135  0.00  0.00    +0.000 A 
ATOM      5  C   UNL     1      -0.502   1.390  -0.744  0.00  0.00    +0.000 A 
ATOM      6  C   UNL     1      -1.860   1.047  -0.746  0.00  0.00    +0.000 A 
ATOM      7  C   UNL     1      -2.296  -0.131  -0.126  0.00  0.00    +0.000 A 
ATOM      8  C   UNL     1      -1.345  -0.956   0.496  0.00  0.00    +0.000 A 
ATOM      9  C   UNL     1       0.009  -0.612   0.496  0.00  0.00    +0.000 A 
ENDBRANCH   1   7
BRANCH   1  10
ATOM     10  S   UNL     1      -4.962   0.457  -0.794  0.00  0.00    +0.000 S 
BRANCH  10  11
ATOM     11  C   UNL     1      -5.341   1.520   0.587  0.00  0.00    +0.000 A 
ATOM     12  C   UNL     1      -5.348   2.905   0.396  0.00  0.00    +0.000 A 
ATOM     13  C   UNL     1      -5.635   3.761   1.460  0.00  0.00    +0.000 A 
ATOM     14  C   UNL     1      -5.929   3.238   2.719  0.00  0.00    +0.000 A 
ATOM     15  C   UNL     1      -5.955   1.853   2.921  0.00  0.00    +0.000 A 
ATOM     16  C   UNL     1      -5.652   1.001   1.850  0.00  0.00    +0.000 A 
ATOM     17  C   UNL     1      -6.245   1.288   4.280  0.00  0.00    +0.000 C 
ENDBRANCH  10  11
ENDBRANCH   1  10
TORSDOF 3
