REMARK  Name = *****
REMARK  4 active torsions:
REMARK  status: ('A' for Active; 'I' for Inactive)
REMARK    1  A    between atoms: C_4  and  C_7
REMARK    2  A    between atoms: C_7  and  N_8
REMARK    3  A    between atoms: N_8  and  C_9
REMARK    4  A    between atoms: C_9  and  C_10
REMARK                            x       y       z     vdW  Elec       q    Type
REMARK                         _______ _______ _______ _____ _____    ______ ____
ROOT
ATOM      1  N   UNL     1      -3.564  -0.959  -0.101  0.00  0.00    +0.000 NA
ENDROOT
BRANCH   1   2
ATOM      2  C   UNL     1      -2.851   0.323  -0.181  0.00  0.00    +0.000 C 
BRANCH   2   6
ATOM      3  C   UNL     1       1.446  -0.069   0.074  0.00  0.00    +0.000 A 
ATOM      4  C   UNL     1       0.690  -1.085  -0.507  0.00  0.00    +0.000 A 
ATOM      5  C   UNL     1      -0.699  -0.968  -0.580  0.00  0.00    +0.000 A 
ATOM      6  C   UNL     1      -1.352   0.161  -0.063  0.00  0.00    +0.000 A 
ATOM      7  C   UNL     1      -0.577   1.182   0.507  0.00  0.00    +0.000 A 
ATOM      8  C   UNL     1       0.813   1.066   0.579  0.00  0.00    +0.000 A 
ENDBRANCH   2   6
ENDBRANCH   1   2
BRANCH   1   9
ATOM      9  C   UNL     1      -4.714  -0.964  -0.687  0.00  0.00    +0.000 C 
BRANCH   9  10
ATOM     10  C   UNL     1      -5.555  -2.182  -0.725  0.00  0.00    +0.000 A 
ATOM     11  C   UNL     1      -5.100  -3.337  -0.071  0.00  0.00    +0.000 A 
ATOM     12  C   UNL     1      -5.859  -4.508  -0.091  0.00  0.00    +0.000 A 
ATOM     13  C   UNL     1      -7.078  -4.535  -0.765  0.00  0.00    +0.000 A 
ATOM     14  C   UNL     1      -7.539  -3.390  -1.417  0.00  0.00    +0.000 A 
ATOM     15  C   UNL     1      -6.782  -2.212  -1.400  0.00  0.00    +0.000 A 
ATOM     16 CL   UNL     1      -7.430  -0.847  -2.238  0.00  0.00    +0.000 Cl
ENDBRANCH   9  10
ENDBRANCH   1   9
TORSDOF 4
