REMARK  Name = *****
REMARK  1 active torsions:
REMARK  status: ('A' for Active; 'I' for Inactive)
REMARK    1  A    between atoms: C_6  and  C_11
REMARK                            x       y       z     vdW  Elec       q    Type
REMARK                         _______ _______ _______ _____ _____    ______ ____
ROOT
ATOM      1  C   UNL     1       2.412  -0.688  -0.007  0.00  0.00    +0.000 A 
ATOM      2  C   UNL     1       2.415   0.704  -0.006  0.00  0.00    +0.000 A 
ATOM      3  C   UNL     1       1.208   1.404  -0.006  0.00  0.00    +0.000 A 
ATOM      4  C   UNL     1      -0.019   0.720  -0.007  0.00  0.00    +0.000 A 
ATOM      5  C   UNL     1      -1.243   1.411  -0.007  0.00  0.00    +0.000 A 
ATOM      6  C   UNL     1      -2.462   0.719  -0.012  0.00  0.00    +0.000 A 
ATOM      7  C   UNL     1      -2.456  -0.679  -0.009  0.00  0.00    +0.000 A 
ATOM      8  C   UNL     1      -1.246  -1.378  -0.009  0.00  0.00    +0.000 A 
ATOM      9  C   UNL     1      -0.022  -0.693  -0.008  0.00  0.00    +0.000 A 
ATOM     10  C   UNL     1       1.202  -1.383  -0.008  0.00  0.00    +0.000 A 
ENDROOT
BRANCH   6  11
ATOM     11  C   UNL     1      -3.725   1.450   0.013  0.00  0.00    +0.000 A 
ATOM     12  C   UNL     1      -4.359   1.794   1.141  0.00  0.00    +0.000 A 
ATOM     13  S   UNL     1      -5.851   2.660   0.969  0.00  0.00    +0.000 S 
ATOM     14  C   UNL     1      -5.851   2.693  -0.793  0.00  0.00    +0.000 A 
ATOM     15  O   UNL     1      -6.734   3.214  -1.457  0.00  0.00    +0.000 OA
ATOM     16  S   UNL     1      -4.447   1.897  -1.494  0.00  0.00    +0.000 S 
ENDBRANCH   6  11
TORSDOF 1
