REMARK  Name = *****
REMARK  4 active torsions:
REMARK  status: ('A' for Active; 'I' for Inactive)
REMARK    1  A    between atoms: C_1  and  C_2
REMARK    2  A    between atoms: C_5  and  C_8
REMARK    3  A    between atoms: C_8  and  N_9
REMARK    4  A    between atoms: N_9  and  C_10
REMARK                            x       y       z     vdW  Elec       q    Type
REMARK                         _______ _______ _______ _____ _____    ______ ____
ROOT
ATOM      1  C   UNL     1       6.893   0.151  -0.812  0.00  0.00    +0.000 C 
ENDROOT
BRANCH   1   6
ATOM      2  C   UNL     1       1.261   0.038   0.273  0.00  0.00    +0.000 C 
ATOM      3  C   UNL     1       2.739   0.071   0.017  0.00  0.00    +0.000 A 
ATOM      4  C   UNL     1       3.398   1.289  -0.188  0.00  0.00    +0.000 A 
ATOM      5  C   UNL     1       4.769   1.316  -0.458  0.00  0.00    +0.000 A 
ATOM      6  C   UNL     1       5.490   0.124  -0.535  0.00  0.00    +0.000 A 
ATOM      7  C   UNL     1       4.838  -1.095  -0.346  0.00  0.00    +0.000 A 
ATOM      8  C   UNL     1       3.467  -1.122  -0.076  0.00  0.00    +0.000 A 
ENDBRANCH   1   6
BRANCH   1   9
ATOM      9  N   UNL     1       7.986   0.172  -1.028  0.00  0.00    +0.000 NA
BRANCH   9  10
ATOM     10  C   UNL     1       9.344   0.198  -1.297  0.00  0.00    +0.000 A 
ATOM     11  C   UNL     1       9.987   1.426  -1.416  0.00  0.00    +0.000 A 
ATOM     12  C   UNL     1      11.354   1.449  -1.687  0.00  0.00    +0.000 A 
ATOM     13  C   UNL     1      12.058   0.251  -1.833  0.00  0.00    +0.000 A 
ATOM     14  C   UNL     1      11.396  -0.974  -1.710  0.00  0.00    +0.000 A 
ATOM     15  C   UNL     1      10.029  -1.004  -1.440  0.00  0.00    +0.000 A 
ENDBRANCH   9  10
ENDBRANCH   1   9
TORSDOF 3
