REMARK  Name = *****
REMARK  4 active torsions:
REMARK  status: ('A' for Active; 'I' for Inactive)
REMARK    1  A    between atoms: C_1  and  C_2
REMARK    2  A    between atoms: C_2  and  C_15
REMARK    3  A    between atoms: C_5  and  C_7
REMARK    4  A    between atoms: C_8  and  C_9
REMARK                            x       y       z     vdW  Elec       q    Type
REMARK                         _______ _______ _______ _____ _____    ______ ____
ROOT
ATOM      1  C   UNL     1       2.383   1.859   0.062  0.00  0.00    +0.000 C 
ATOM      2  C   UNL     1       3.669   1.488  -0.035  0.00  0.00    +0.000 C 
ENDROOT
BRANCH   1   7
ATOM      3  C   UNL     1      -1.741  -0.179   1.170  0.00  0.00    +0.000 C 
ATOM      4  C   UNL     1      -0.697  -0.049   0.066  0.00  0.00    +0.000 C 
ATOM      5  C   UNL     1       0.399  -1.101   0.187  0.00  0.00    +0.000 C 
ATOM      6  O   UNL     1       1.597  -0.386  -0.088  0.00  0.00    +0.000 OA
ATOM      7  C   UNL     1       1.259   0.915   0.069  0.00  0.00    +0.000 C 
ATOM      8  N   UNL     1       0.015   1.236   0.211  0.00  0.00    +0.000 NA
ATOM      9  C   UNL     1      -1.365  -0.074  -1.312  0.00  0.00    +0.000 C 
ENDBRANCH   1   7
BRANCH   2  10
ATOM     10  C   UNL     1       4.820   2.465  -0.034  0.00  0.00    +0.000 C 
ATOM     11  C   UNL     1       5.644   2.324  -1.322  0.00  0.00    +0.000 C 
ATOM     12  C   UNL     1       6.854   3.256  -1.320  0.00  0.00    +0.000 C 
ATOM     13  C   UNL     1       7.723   3.047  -0.083  0.00  0.00    +0.000 C 
ATOM     14  C   UNL     1       6.911   3.180   1.202  0.00  0.00    +0.000 C 
ATOM     15  C   UNL     1       5.703   2.247   1.204  0.00  0.00    +0.000 C 
ENDBRANCH   2  10
TORSDOF 2
