REMARK  Name = *****
REMARK  7 active torsions:
REMARK  status: ('A' for Active; 'I' for Inactive)
REMARK    1  A    between atoms: C_1  and  O_2
REMARK    2  A    between atoms: O_2  and  C_3
REMARK    3  A    between atoms: C_6  and  O_18
REMARK    4  A    between atoms: C_7  and  C_9
REMARK    5  A    between atoms: C_9  and  N_11
REMARK    6  A    between atoms: N_11  and  C_12
REMARK    7  A    between atoms: O_18  and  C_19
REMARK                            x       y       z     vdW  Elec       q    Type
REMARK                         _______ _______ _______ _____ _____    ______ ____
ROOT
ATOM      1  C   UNL     1       3.092   0.939   0.878  0.00  0.00    +0.000 A 
ATOM      2  N   UNL     1       3.829   1.788   0.130  0.00  0.00    +0.000 NA
ATOM      3  N   UNL     1       4.623   2.720   0.741  0.00  0.00    +0.000 NA
ATOM      4  C   UNL     1       4.668   2.781   2.090  0.00  0.00    +0.000 A 
ATOM      5  C   UNL     1       3.911   1.924   2.878  0.00  0.00    +0.000 A 
ATOM      6  C   UNL     1       3.097   0.978   2.256  0.00  0.00    +0.000 A 
ENDROOT
BRANCH   1   8
ATOM      7  C   UNL     1       2.378  -0.009  -1.138  0.00  0.00    +0.000 C 
ATOM      8  O   UNL     1       2.278  -0.003   0.283  0.00  0.00    +0.000 OA
ENDBRANCH   1   8
BRANCH   5   9
ATOM      9  C   UNL     1       3.940   2.015   4.365  0.00  0.00    +0.000 C 
ATOM     10  S   UNL     1       4.551   0.716   5.235  0.00  0.00    +0.000 S 
BRANCH   9  11
ATOM     11  N   UNL     1       3.387   3.205   4.826  0.00  0.00    +0.000 N 
ATOM     12  H   UNL     1       3.028   3.773   4.106  0.00  0.00    +0.000 HD
BRANCH  11  13
ATOM     13  C   UNL     1       3.232   3.768   6.116  0.00  0.00    +0.000 A 
ATOM     14  C   UNL     1       3.723   3.238   7.308  0.00  0.00    +0.000 A 
ATOM     15  C   UNL     1       3.512   3.897   8.527  0.00  0.00    +0.000 A 
ATOM     16  C   UNL     1       2.811   5.098   8.568  0.00  0.00    +0.000 A 
ATOM     17  C   UNL     1       2.322   5.645   7.389  0.00  0.00    +0.000 A 
ATOM     18  C   UNL     1       2.534   4.986   6.175  0.00  0.00    +0.000 A 
ENDBRANCH  11  13
ENDBRANCH   9  11
ENDBRANCH   5   9
BRANCH   4  19
ATOM     19  O   UNL     1       5.450   3.736   2.705  0.00  0.00    +0.000 OA
ATOM     20  C   UNL     1       6.275   4.463   1.800  0.00  0.00    +0.000 C 
ENDBRANCH   4  19
TORSDOF 5
