REMARK  Name = *****
REMARK  5 active torsions:
REMARK  status: ('A' for Active; 'I' for Inactive)
REMARK    1  A    between atoms: C_1  and  O_2
REMARK    2  A    between atoms: O_2  and  C_3
REMARK    3  A    between atoms: C_5  and  C_17
REMARK    4  A    between atoms: C_6  and  C_9
REMARK    5  A    between atoms: C_10  and  C_11
REMARK                            x       y       z     vdW  Elec       q    Type
REMARK                         _______ _______ _______ _____ _____    ______ ____
ROOT
ATOM      1  C   UNL     1       3.143  -0.970   0.587  0.00  0.00    +0.000 A 
ATOM      2  C   UNL     1       2.904  -2.277   0.159  0.00  0.00    +0.000 A 
ATOM      3  C   UNL     1       3.737  -3.342   0.570  0.00  0.00    +0.000 A 
ATOM      4  C   UNL     1       4.828  -3.074   1.418  0.00  0.00    +0.000 A 
ATOM      5  C   UNL     1       5.057  -1.759   1.847  0.00  0.00    +0.000 A 
ATOM      6  C   UNL     1       4.223  -0.720   1.431  0.00  0.00    +0.000 A 
ENDROOT
BRANCH   3   7
ATOM      7  C   UNL     1       3.449  -4.740   0.076  0.00  0.00    +0.000 C 
ATOM      8  F   UNL     1       2.334  -4.815  -0.709  0.00  0.00    +0.000 F 
ATOM      9  F   UNL     1       4.456  -5.260  -0.679  0.00  0.00    +0.000 F 
ATOM     10  F   UNL     1       3.234  -5.628   1.088  0.00  0.00    +0.000 F 
ENDBRANCH   3   7
BRANCH   1  12
ATOM     11  C   UNL     1       1.287  -0.066  -0.596  0.00  0.00    +0.000 C 
ATOM     12  O   UNL     1       2.408   0.133   0.256  0.00  0.00    +0.000 OA
ENDBRANCH   1  12
BRANCH   4  13
ATOM     13  C   UNL     1       5.720  -4.141   1.889  0.00  0.00    +0.000 C 
ATOM     14  C   UNL     1       7.037  -4.140   1.630  0.00  0.00    +0.000 C 
BRANCH  14  15
ATOM     15  C   UNL     1       7.948  -5.198   2.082  0.00  0.00    +0.000 A 
ATOM     16  C   UNL     1       7.612  -6.556   1.992  0.00  0.00    +0.000 A 
ATOM     17  C   UNL     1       8.515  -7.539   2.404  0.00  0.00    +0.000 A 
ATOM     18  C   UNL     1       9.765  -7.175   2.901  0.00  0.00    +0.000 A 
ATOM     19  C   UNL     1      10.116  -5.829   2.980  0.00  0.00    +0.000 A 
ATOM     20  C   UNL     1       9.214  -4.845   2.567  0.00  0.00    +0.000 A 
ENDBRANCH  14  15
ENDBRANCH   4  13
TORSDOF 4
