REMARK  Name = *****
REMARK  3 active torsions:
REMARK  status: ('A' for Active; 'I' for Inactive)
REMARK    1  A    between atoms: C_1  and  C_2
REMARK    2  A    between atoms: C_5  and  N_8
REMARK    3  A    between atoms: C_9  and  C_10
REMARK                            x       y       z     vdW  Elec       q    Type
REMARK                         _______ _______ _______ _____ _____    ______ ____
ROOT
ATOM      1  C   UNL     1       1.500   1.727  -0.258  0.00  0.00    +0.000 C 
ATOM      2  C   UNL     1       0.314   0.853   0.008  0.00  0.00    +0.000 A 
ATOM      3  C   UNL     1       0.278  -0.453  -0.489  0.00  0.00    +0.000 A 
ATOM      4  C   UNL     1      -0.820  -1.282  -0.277  0.00  0.00    +0.000 A 
ATOM      5  C   UNL     1      -1.920  -0.803   0.432  0.00  0.00    +0.000 A 
ATOM      6  C   UNL     1      -1.896   0.499   0.939  0.00  0.00    +0.000 A 
ATOM      7  C   UNL     1      -0.791   1.328   0.723  0.00  0.00    +0.000 A 
ATOM      8  F   UNL     1       1.320  -0.927  -1.188  0.00  0.00    +0.000 F 
ENDROOT
BRANCH   5   9
ATOM      9  N   UNL     1      -3.025  -1.634   0.666  0.00  0.00    +0.000 NA
ATOM     10  C   UNL     1      -3.985  -1.557  -0.201  0.00  0.00    +0.000 C 
BRANCH  10  11
ATOM     11  C   UNL     1      -5.211  -2.372  -0.085  0.00  0.00    +0.000 A 
ATOM     12  C   UNL     1      -5.374  -3.275   0.969  0.00  0.00    +0.000 A 
ATOM     13  C   UNL     1      -6.541  -4.034   1.057  0.00  0.00    +0.000 A 
ATOM     14  C   UNL     1      -7.542  -3.889   0.095  0.00  0.00    +0.000 A 
ATOM     15  C   UNL     1      -7.378  -2.987  -0.957  0.00  0.00    +0.000 A 
ATOM     16  C   UNL     1      -6.211  -2.226  -1.050  0.00  0.00    +0.000 A 
ENDBRANCH  10  11
ENDBRANCH   5   9
TORSDOF 2
