REMARK  Name = *****
REMARK  2 active torsions:
REMARK  status: ('A' for Active; 'I' for Inactive)
REMARK    1  A    between atoms: C_5  and  C_7
REMARK    2  A    between atoms: C_8  and  C_9
REMARK                            x       y       z     vdW  Elec       q    Type
REMARK                         _______ _______ _______ _____ _____    ______ ____
ROOT
ATOM      1  C   UNL     1      -2.064  -1.481  -0.835  0.00  0.00    +0.000 C 
ATOM      2  C   UNL     1      -3.319  -1.890  -0.584  0.00  0.00    +0.000 C 
ENDROOT
BRANCH   1   7
ATOM      3  C   UNL     1       0.217   1.471   0.082  0.00  0.00    +0.000 C 
ATOM      4  C   UNL     1       1.516   0.666   0.004  0.00  0.00    +0.000 C 
ATOM      5  C   UNL     1       1.320  -0.790   0.311  0.00  0.00    +0.000 C 
ATOM      6  C   UNL     1       0.113  -1.374   0.353  0.00  0.00    +0.000 C 
ATOM      7  C   UNL     1      -1.178  -0.645   0.061  0.00  0.00    +0.000 C 
ATOM      8  C   UNL     1      -0.934   0.728  -0.595  0.00  0.00    +0.000 C 
ENDBRANCH   1   7
BRANCH   2   9
ATOM      9  C   UNL     1      -4.067  -1.572   0.630  0.00  0.00    +0.000 A 
ATOM     10  C   UNL     1      -4.783  -0.374   0.724  0.00  0.00    +0.000 A 
ATOM     11  C   UNL     1      -5.489  -0.067   1.888  0.00  0.00    +0.000 A 
ATOM     12  C   UNL     1      -5.481  -0.955   2.963  0.00  0.00    +0.000 A 
ATOM     13  C   UNL     1      -4.766  -2.150   2.876  0.00  0.00    +0.000 A 
ATOM     14  C   UNL     1      -4.060  -2.458   1.712  0.00  0.00    +0.000 A 
ENDBRANCH   2   9
TORSDOF 2
