REMARK  Name = *****
REMARK  5 active torsions:
REMARK  status: ('A' for Active; 'I' for Inactive)
REMARK    1  A    between atoms: C_1  and  C_2
REMARK    2  A    between atoms: C_4  and  C_17
REMARK    3  A    between atoms: C_5  and  O_8
REMARK    4  A    between atoms: O_8  and  C_9
REMARK    5  A    between atoms: C_9  and  C_11
REMARK                            x       y       z     vdW  Elec       q    Type
REMARK                         _______ _______ _______ _____ _____    ______ ____
ROOT
ATOM      1  O   UNL     1      -2.364  -1.902   0.228  0.00  0.00    +0.000 OA
ENDROOT
BRANCH   1   6
ATOM      2  C   UNL     1       2.372   1.202  -0.315  0.00  0.00    +0.000 C 
ATOM      3  C   UNL     1       1.117   0.394  -0.151  0.00  0.00    +0.000 A 
ATOM      4  C   UNL     1      -0.039   0.731  -0.872  0.00  0.00    +0.000 A 
ATOM      5  C   UNL     1      -1.209  -0.034  -0.759  0.00  0.00    +0.000 A 
ATOM      6  C   UNL     1      -1.186  -1.162   0.069  0.00  0.00    +0.000 A 
ATOM      7  C   UNL     1      -0.048  -1.508   0.798  0.00  0.00    +0.000 A 
ATOM      8  C   UNL     1       1.107  -0.736   0.675  0.00  0.00    +0.000 A 
ATOM      9  C   UNL     1      -2.443   0.343  -1.523  0.00  0.00    +0.000 C 
ENDBRANCH   1   6
BRANCH   1  10
ATOM     10  C   UNL     1      -2.323  -3.196  -0.287  0.00  0.00    +0.000 C 
ATOM     11  O   UNL     1      -1.379  -3.726  -0.858  0.00  0.00    +0.000 OA
BRANCH  10  12
ATOM     12  C   UNL     1      -3.677  -3.848  -0.061  0.00  0.00    +0.000 C 
ATOM     13  C   UNL     1      -3.525  -5.360   0.138  0.00  0.00    +0.000 C 
ATOM     14  C   UNL     1      -4.883  -6.042   0.286  0.00  0.00    +0.000 C 
ATOM     15  C   UNL     1      -5.799  -5.727  -0.893  0.00  0.00    +0.000 C 
ATOM     16  C   UNL     1      -5.952  -4.223  -1.101  0.00  0.00    +0.000 C 
ATOM     17  C   UNL     1      -4.599  -3.530  -1.242  0.00  0.00    +0.000 C 
ENDBRANCH  10  12
ENDBRANCH   1  10
TORSDOF 3
