REMARK  Name = *****
REMARK  2 active torsions:
REMARK  status: ('A' for Active; 'I' for Inactive)
REMARK    1  A    between atoms: C_5  and  C_6
REMARK    2  A    between atoms: C_7  and  C_8
REMARK                            x       y       z     vdW  Elec       q    Type
REMARK                         _______ _______ _______ _____ _____    ______ ____
ROOT
ATOM      1  C   UNL     1      -0.479  -3.478   1.450  0.00  0.00    +0.000 C 
ATOM      2  C   UNL     1      -1.057  -4.389   2.250  0.00  0.00    +0.000 C 
ENDROOT
BRANCH   1   7
ATOM      3  C   UNL     1       0.609   1.466  -0.304  0.00  0.00    +0.000 C 
ATOM      4  C   UNL     1       1.499   0.317   0.155  0.00  0.00    +0.000 C 
ATOM      5  S   UNL     1       0.929  -1.301  -0.430  0.00  0.00    +0.000 S 
ATOM      6  C   UNL     1      -0.689  -1.304   0.210  0.00  0.00    +0.000 C 
ATOM      7  C   UNL     1      -1.176  -2.294   0.982  0.00  0.00    +0.000 C 
ATOM      8  S   UNL     1      -1.761  -0.005  -0.247  0.00  0.00    +0.000 S 
ATOM      9  C   UNL     1      -0.787   1.421   0.307  0.00  0.00    +0.000 C 
ENDBRANCH   1   7
BRANCH   2  10
ATOM     10  C   UNL     1      -0.386  -5.603   2.740  0.00  0.00    +0.000 A 
ATOM     11  C   UNL     1       0.971  -5.622   3.090  0.00  0.00    +0.000 A 
ATOM     12  C   UNL     1       1.562  -6.789   3.584  0.00  0.00    +0.000 A 
ATOM     13  C   UNL     1       0.801  -7.944   3.744  0.00  0.00    +0.000 A 
ATOM     14  C   UNL     1      -0.553  -7.933   3.416  0.00  0.00    +0.000 A 
ATOM     15  C   UNL     1      -1.144  -6.767   2.922  0.00  0.00    +0.000 A 
ENDBRANCH   2  10
TORSDOF 2
