REMARK  Name = *****
REMARK  6 active torsions:
REMARK  status: ('A' for Active; 'I' for Inactive)
REMARK    1  A    between atoms: C_1  and  C_2
REMARK    2  A    between atoms: C_4  and  C_16
REMARK    3  A    between atoms: C_5  and  C_9
REMARK    4  A    between atoms: C_6  and  C_8
REMARK    5  A    between atoms: C_9  and  S_10
REMARK    6  A    between atoms: S_10  and  C_11
REMARK                            x       y       z     vdW  Elec       q    Type
REMARK                         _______ _______ _______ _____ _____    ______ ____
ROOT
ATOM      1  C   UNL     1       2.103   1.951   0.116  0.00  0.00    +0.000 C 
ATOM      2  C   UNL     1       1.029   0.907   0.053  0.00  0.00    +0.000 A 
ATOM      3  C   UNL     1       1.359  -0.446  -0.046  0.00  0.00    +0.000 A 
ATOM      4  C   UNL     1       0.366  -1.440  -0.072  0.00  0.00    +0.000 A 
ATOM      5  C   UNL     1      -1.002  -1.071   0.003  0.00  0.00    +0.000 A 
ATOM      6  C   UNL     1      -1.336   0.301   0.132  0.00  0.00    +0.000 A 
ATOM      7  C   UNL     1      -0.316   1.268   0.155  0.00  0.00    +0.000 A 
ATOM      8  C   UNL     1      -2.763   0.772   0.231  0.00  0.00    +0.000 C 
ATOM      9  C   UNL     1       0.803  -2.877  -0.198  0.00  0.00    +0.000 C 
ENDROOT
BRANCH   5  10
ATOM     10  C   UNL     1      -2.090  -2.131  -0.027  0.00  0.00    +0.000 C 
BRANCH  10  11
ATOM     11  S   UNL     1      -2.494  -2.730   1.639  0.00  0.00    +0.000 S 
BRANCH  11  12
ATOM     12  C   UNL     1      -3.721  -3.885   1.255  0.00  0.00    +0.000 C 
ATOM     13  N   UNL     1      -4.111  -4.155   0.054  0.00  0.00    +0.000 NA
ATOM     14  C   UNL     1      -5.208  -5.144   0.119  0.00  0.00    +0.000 C 
ATOM     15  C   UNL     1      -5.098  -5.960   1.397  0.00  0.00    +0.000 C 
ATOM     16  S   UNL     1      -4.449  -4.761   2.571  0.00  0.00    +0.000 S 
ENDBRANCH  11  12
ENDBRANCH  10  11
ENDBRANCH   5  10
TORSDOF 3
