REMARK  Name = *****
REMARK  2 active torsions:
REMARK  status: ('A' for Active; 'I' for Inactive)
REMARK    1  A    between atoms: C_4  and  N_7
REMARK    2  A    between atoms: C_8  and  C_10
REMARK                            x       y       z     vdW  Elec       q    Type
REMARK                         _______ _______ _______ _____ _____    ______ ____
ROOT
ATOM      1  N   UNL     1      -2.660   0.587   0.176  0.00  0.00    +0.000 N 
ATOM      2  C   UNL     1      -3.308   1.814  -0.064  0.00  0.00    +0.000 C 
ATOM      3  O   UNL     1      -4.517   2.001  -0.197  0.00  0.00    +0.000 OA
ATOM      4 CL   UNL     1      -1.033   0.627   0.742  0.00  0.00    +0.000 Cl
ENDROOT
BRANCH   2   5
ATOM      5  C   UNL     1      -2.483   3.045  -0.156  0.00  0.00    +0.000 A 
ATOM      6  C   UNL     1      -1.532   3.194  -1.173  0.00  0.00    +0.000 A 
ATOM      7  C   UNL     1      -0.789   4.374  -1.256  0.00  0.00    +0.000 A 
ATOM      8  C   UNL     1      -1.013   5.401  -0.337  0.00  0.00    +0.000 A 
ATOM      9  C   UNL     1      -1.979   5.265   0.660  0.00  0.00    +0.000 A 
ATOM     10  C   UNL     1      -2.724   4.086   0.748  0.00  0.00    +0.000 A 
ATOM     11 CL   UNL     1      -0.095   6.853  -0.441  0.00  0.00    +0.000 Cl
ENDBRANCH   2   5
BRANCH   1  15
ATOM     12  C   UNL     1      -4.609  -3.224  -0.049  0.00  0.00    +0.000 A 
ATOM     13  C   UNL     1      -5.240  -2.086  -0.533  0.00  0.00    +0.000 A 
ATOM     14  C   UNL     1      -4.604  -0.839  -0.461  0.00  0.00    +0.000 A 
ATOM     15  C   UNL     1      -3.326  -0.692   0.104  0.00  0.00    +0.000 A 
ATOM     16  C   UNL     1      -2.707  -1.867   0.575  0.00  0.00    +0.000 A 
ATOM     17  C   UNL     1      -3.339  -3.116   0.503  0.00  0.00    +0.000 A 
ENDBRANCH   1  15
TORSDOF 2
