REMARK  Name = *****
REMARK  4 active torsions:
REMARK  status: ('A' for Active; 'I' for Inactive)
REMARK    1  A    between atoms: C_1  and  C_2
REMARK    2  A    between atoms: C_5  and  C_8
REMARK    3  A    between atoms: C_9  and  C_10
REMARK    4  A    between atoms: C_13  and  C_15
REMARK                            x       y       z     vdW  Elec       q    Type
REMARK                         _______ _______ _______ _____ _____    ______ ____
ROOT
ATOM      1  C   UNL     1      -3.310   0.082   0.004  0.00  0.00    +0.000 C 
ATOM      2  C   UNL     1      -4.076   1.179  -0.129  0.00  0.00    +0.000 C 
ENDROOT
BRANCH   1   7
ATOM      3  C   UNL     1       2.477  -0.054  -0.076  0.00  0.00    +0.000 C 
ATOM      4  C   UNL     1       0.978   0.010  -0.079  0.00  0.00    +0.000 A 
ATOM      5  C   UNL     1       0.310   1.042   0.588  0.00  0.00    +0.000 A 
ATOM      6  C   UNL     1      -1.087   1.083   0.614  0.00  0.00    +0.000 A 
ATOM      7  C   UNL     1      -1.842   0.093  -0.026  0.00  0.00    +0.000 A 
ATOM      8  C   UNL     1      -1.171  -0.957  -0.665  0.00  0.00    +0.000 A 
ATOM      9  C   UNL     1       0.227  -0.998  -0.692  0.00  0.00    +0.000 A 
ENDBRANCH   1   7
BRANCH   2  10
ATOM     10  C   UNL     1      -5.503   1.178  -0.113  0.00  0.00    +0.000 A 
ATOM     11  C   UNL     1      -6.282   2.307  -0.256  0.00  0.00    +0.000 A 
ATOM     12  S   UNL     1      -7.940   1.876  -0.176  0.00  0.00    +0.000 S 
ATOM     13  C   UNL     1      -7.488   0.230   0.040  0.00  0.00    +0.000 A 
ATOM     14  N   UNL     1      -6.193  -0.005   0.055  0.00  0.00    +0.000 NA
ATOM     15  C   UNL     1      -8.535  -0.815   0.196  0.00  0.00    +0.000 C 
ENDBRANCH   2  10
TORSDOF 2
