REMARK  Name = *****
REMARK  5 active torsions:
REMARK  status: ('A' for Active; 'I' for Inactive)
REMARK    1  A    between atoms: C_1  and  C_2
REMARK    2  A    between atoms: C_5  and  C_8
REMARK    3  A    between atoms: C_8  and  C_10
REMARK    4  A    between atoms: C_10  and  C_11
REMARK    5  A    between atoms: C_11  and  C_12
REMARK                            x       y       z     vdW  Elec       q    Type
REMARK                         _______ _______ _______ _____ _____    ______ ____
ROOT
ATOM      1  C   UNL     1      -4.081   1.435  -0.064  0.00  0.00    +0.000 C 
ATOM      2 CL   UNL     1      -5.841   1.085  -0.033  0.00  0.00    +0.000 Cl
ENDROOT
BRANCH   1   3
ATOM      3  C   UNL     1      -3.318   0.215   0.436  0.00  0.00    +0.000 C 
ATOM      4  O   UNL     1      -3.657  -0.939   0.172  0.00  0.00    +0.000 OA
BRANCH   3   9
ATOM      5  C   UNL     1       1.449   0.760   3.731  0.00  0.00    +0.000 C 
ATOM      6  C   UNL     1       0.239   0.635   2.851  0.00  0.00    +0.000 A 
ATOM      7  C   UNL     1      -0.324   1.765   2.249  0.00  0.00    +0.000 A 
ATOM      8  C   UNL     1      -1.474   1.656   1.458  0.00  0.00    +0.000 A 
ATOM      9  C   UNL     1      -2.085   0.411   1.267  0.00  0.00    +0.000 A 
ATOM     10  C   UNL     1      -1.522  -0.719   1.879  0.00  0.00    +0.000 A 
ATOM     11  C   UNL     1      -0.375  -0.607   2.669  0.00  0.00    +0.000 A 
ENDBRANCH   3   9
ENDBRANCH   1   3
BRANCH   1  12
ATOM     12  C   UNL     1      -3.545   1.894  -1.432  0.00  0.00    +0.000 C 
ATOM     13 CL   UNL     1      -4.152   3.547  -1.825  0.00  0.00    +0.000 Cl
BRANCH  12  14
ATOM     14  C   UNL     1      -3.741   0.955  -2.610  0.00  0.00    +0.000 A 
ATOM     15  C   UNL     1      -4.960   0.852  -3.300  0.00  0.00    +0.000 A 
ATOM     16  C   UNL     1      -5.106  -0.029  -4.373  0.00  0.00    +0.000 A 
ATOM     17  C   UNL     1      -4.036  -0.824  -4.775  0.00  0.00    +0.000 A 
ATOM     18  C   UNL     1      -2.820  -0.740  -4.103  0.00  0.00    +0.000 A 
ATOM     19  C   UNL     1      -2.673   0.141  -3.029  0.00  0.00    +0.000 A 
ENDBRANCH  12  14
ENDBRANCH   1  12
TORSDOF 4
