REMARK  Name = *****
REMARK  3 active torsions:
REMARK  status: ('A' for Active; 'I' for Inactive)
REMARK    1  A    between atoms: C_1  and  C_2
REMARK    2  A    between atoms: C_4  and  C_8
REMARK    3  A    between atoms: N_10  and  C_11
REMARK                            x       y       z     vdW  Elec       q    Type
REMARK                         _______ _______ _______ _____ _____    ______ ____
ROOT
ATOM      1  C   UNL     1      -1.053   2.504  -0.096  0.00  0.00    +0.000 C 
ATOM      2  C   UNL     1      -1.461   3.516  -1.133  0.00  0.00    +0.000 C 
ATOM      3  N   UNL     1      -1.006   3.957   0.175  0.00  0.00    +0.000 N 
ENDROOT
BRANCH   3   4
ATOM      4  C   UNL     1      -1.869   4.551   1.134  0.00  0.00    +0.000 A 
ATOM      5  C   UNL     1      -3.273   4.589   1.101  0.00  0.00    +0.000 A 
ATOM      6  C   UNL     1      -4.017   5.205   2.108  0.00  0.00    +0.000 A 
ATOM      7  C   UNL     1      -3.363   5.806   3.172  0.00  0.00    +0.000 A 
ATOM      8  C   UNL     1      -1.981   5.806   3.245  0.00  0.00    +0.000 A 
ATOM      9  C   UNL     1      -1.253   5.185   2.233  0.00  0.00    +0.000 A 
ATOM     10  F   UNL     1       0.087   5.193   2.333  0.00  0.00    +0.000 F 
ATOM     11  F   UNL     1      -4.076   6.397   4.138  0.00  0.00    +0.000 F 
ATOM     12  F   UNL     1      -3.968   4.040   0.094  0.00  0.00    +0.000 F 
ENDBRANCH   3   4
BRANCH   1  16
ATOM     13  C   UNL     1      -5.079  -0.569  -0.260  0.00  0.00    +0.000 C 
ATOM     14  C   UNL     1      -3.991   0.101   0.526  0.00  0.00    +0.000 A 
ATOM     15  C   UNL     1      -3.082   0.960  -0.112  0.00  0.00    +0.000 A 
ATOM     16  C   UNL     1      -2.038   1.591   0.589  0.00  0.00    +0.000 A 
ATOM     17  C   UNL     1      -1.911   1.293   1.957  0.00  0.00    +0.000 A 
ATOM     18  C   UNL     1      -2.797   0.429   2.602  0.00  0.00    +0.000 A 
ATOM     19  C   UNL     1      -3.833  -0.167   1.887  0.00  0.00    +0.000 A 
ENDBRANCH   1  16
TORSDOF 2
