REMARK  Name = *****
REMARK  4 active torsions:
REMARK  status: ('A' for Active; 'I' for Inactive)
REMARK    1  A    between atoms: C_1  and  C_2
REMARK    2  A    between atoms: C_2  and  C_3
REMARK    3  A    between atoms: C_2  and  O_9
REMARK    4  A    between atoms: O_9  and  C_10
REMARK                            x       y       z     vdW  Elec       q    Type
REMARK                         _______ _______ _______ _____ _____    ______ ____
ROOT
ATOM      1  C   UNL     1       1.125  -0.163  -0.243  0.00  0.00    +0.000 C 
ATOM      2  C   UNL     1       2.619   0.125  -0.084  0.00  0.00    +0.000 C 
ENDROOT
BRANCH   2   3
ATOM      3  C   UNL     1       2.820   1.201   0.976  0.00  0.00    +0.000 A 
ATOM      4  C   UNL     1       2.868   0.886   2.343  0.00  0.00    +0.000 A 
ATOM      5  C   UNL     1       3.030   1.889   3.301  0.00  0.00    +0.000 A 
ATOM      6  C   UNL     1       3.138   3.220   2.906  0.00  0.00    +0.000 A 
ATOM      7  C   UNL     1       3.084   3.550   1.553  0.00  0.00    +0.000 A 
ATOM      8  C   UNL     1       2.923   2.549   0.594  0.00  0.00    +0.000 A 
ENDBRANCH   2   3
BRANCH   2   9
ATOM      9  O   UNL     1       3.304  -1.063   0.332  0.00  0.00    +0.000 OA
BRANCH   9  10
ATOM     10  C   UNL     1       3.759  -1.946  -0.605  0.00  0.00    +0.000 A 
ATOM     11  C   UNL     1       3.549  -1.882  -1.982  0.00  0.00    +0.000 A 
ATOM     12  C   UNL     1       4.078  -2.870  -2.822  0.00  0.00    +0.000 A 
ATOM     13  C   UNL     1       4.814  -3.923  -2.283  0.00  0.00    +0.000 A 
ATOM     14  C   UNL     1       5.026  -3.999  -0.910  0.00  0.00    +0.000 A 
ATOM     15  C   UNL     1       4.497  -3.011  -0.076  0.00  0.00    +0.000 A 
ATOM     16 CL   UNL     1       5.461  -5.134  -3.319  0.00  0.00    +0.000 Cl
ENDBRANCH   9  10
ENDBRANCH   2   9
TORSDOF 3
