REMARK  Name = *****
REMARK  5 active torsions:
REMARK  status: ('A' for Active; 'I' for Inactive)
REMARK    1  A    between atoms: C_1  and  C_2
REMARK    2  A    between atoms: C_7  and  C_8
REMARK    3  A    between atoms: C_8  and  C_9
REMARK    4  A    between atoms: C_8  and  C_10
REMARK    5  A    between atoms: C_10  and  C_12
REMARK                            x       y       z     vdW  Elec       q    Type
REMARK                         _______ _______ _______ _____ _____    ______ ____
ROOT
ATOM      1  C   UNL     1       0.855  -2.925   0.502  0.00  0.00    +0.000 C 
ATOM      2  C   UNL     1       0.335  -3.365   1.878  0.00  0.00    +0.000 C 
ATOM      3  F   UNL     1       2.221  -2.922   0.657  0.00  0.00    +0.000 F 
ENDROOT
BRANCH   1  10
ATOM      4  C   UNL     1       2.632  -0.573  -0.372  0.00  0.00    +0.000 C 
ATOM      5  C   UNL     1       1.133  -0.465  -0.287  0.00  0.00    +0.000 A 
ATOM      6  C   UNL     1       0.547   0.771  -0.621  0.00  0.00    +0.000 A 
ATOM      7  C   UNL     1      -0.833   0.953  -0.580  0.00  0.00    +0.000 A 
ATOM      8  C   UNL     1      -1.655  -0.101  -0.210  0.00  0.00    +0.000 A 
ATOM      9  C   UNL     1      -1.093  -1.332   0.129  0.00  0.00    +0.000 A 
ATOM     10  C   UNL     1       0.305  -1.540   0.116  0.00  0.00    +0.000 A 
ENDBRANCH   1  10
BRANCH   1  11
ATOM     11  C   UNL     1       0.421  -3.962  -0.554  0.00  0.00    +0.000 C 
ATOM     12  O   UNL     1      -0.678  -4.522  -0.543  0.00  0.00    +0.000 OA
BRANCH  11  13
ATOM     13  C   UNL     1       1.312  -4.212  -1.714  0.00  0.00    +0.000 A 
ATOM     14  C   UNL     1       2.666  -4.522  -1.550  0.00  0.00    +0.000 A 
ATOM     15  C   UNL     1       3.463  -4.764  -2.671  0.00  0.00    +0.000 A 
ATOM     16  C   UNL     1       2.909  -4.709  -3.950  0.00  0.00    +0.000 A 
ATOM     17  C   UNL     1       1.554  -4.419  -4.113  0.00  0.00    +0.000 A 
ATOM     18  C   UNL     1       0.753  -4.178  -2.997  0.00  0.00    +0.000 A 
ENDBRANCH  11  13
ENDBRANCH   1  11
TORSDOF 3
