REMARK  Name = *****
REMARK  5 active torsions:
REMARK  status: ('A' for Active; 'I' for Inactive)
REMARK    1  A    between atoms: C_4  and  C_6
REMARK    2  A    between atoms: C_6  and  C_7
REMARK    3  A    between atoms: C_7  and  C_8
REMARK    4  A    between atoms: C_8  and  C_9
REMARK    5  A    between atoms: C_9  and  C_10
REMARK                            x       y       z     vdW  Elec       q    Type
REMARK                         _______ _______ _______ _____ _____    ______ ____
ROOT
ATOM      1  C   UNL     1       0.965  -3.474  -0.188  0.00  0.00    +0.000 C 
ENDROOT
BRANCH   1   2
ATOM      2  C   UNL     1      -0.233  -2.523  -0.108  0.00  0.00    +0.000 C 
BRANCH   2   6
ATOM      3  C   UNL     1       0.874   0.974   0.846  0.00  0.00    +0.000 A 
ATOM      4  C   UNL     1       0.897   1.220  -0.508  0.00  0.00    +0.000 A 
ATOM      5  S   UNL     1       0.440  -0.153  -1.419  0.00  0.00    +0.000 S 
ATOM      6  C   UNL     1       0.209  -1.092  -0.004  0.00  0.00    +0.000 A 
ATOM      7  C   UNL     1       0.476  -0.363   1.138  0.00  0.00    +0.000 A 
ENDBRANCH   2   6
ENDBRANCH   1   2
BRANCH   1   8
ATOM      8  C   UNL     1       0.565  -4.952  -0.188  0.00  0.00    +0.000 C 
BRANCH   8   9
ATOM      9  C   UNL     1      -0.188  -5.375  -1.453  0.00  0.00    +0.000 C 
BRANCH   9  10
ATOM     10  C   UNL     1      -0.446  -6.854  -1.469  0.00  0.00    +0.000 A 
ATOM     11  C   UNL     1       0.353  -7.853  -1.989  0.00  0.00    +0.000 A 
ATOM     12  C   UNL     1      -0.220  -9.147  -1.823  0.00  0.00    +0.000 A 
ATOM     13  C   UNL     1      -1.438  -9.092  -1.184  0.00  0.00    +0.000 A 
ATOM     14  S   UNL     1      -1.884  -7.490  -0.788  0.00  0.00    +0.000 S 
ENDBRANCH   9  10
ENDBRANCH   8   9
ENDBRANCH   1   8
TORSDOF 5
