REMARK  Name = *****
REMARK  6 active torsions:
REMARK  status: ('A' for Active; 'I' for Inactive)
REMARK    1  A    between atoms: C_1  and  O_2
REMARK    2  A    between atoms: O_2  and  C_3
REMARK    3  A    between atoms: C_5  and  C_11
REMARK    4  A    between atoms: C_6  and  O_9
REMARK    5  A    between atoms: O_9  and  C_10
REMARK    6  A    between atoms: C_12  and  C_13
REMARK                            x       y       z     vdW  Elec       q    Type
REMARK                         _______ _______ _______ _____ _____    ______ ____
ROOT
ATOM      1  C   UNL     1       3.080  -0.505  -1.125  0.00  0.00    +0.000 A 
ATOM      2  C   UNL     1       2.585   0.055  -2.307  0.00  0.00    +0.000 A 
ATOM      3  C   UNL     1       3.251  -0.136  -3.531  0.00  0.00    +0.000 A 
ATOM      4  C   UNL     1       4.405  -0.938  -3.549  0.00  0.00    +0.000 A 
ATOM      5  C   UNL     1       4.918  -1.478  -2.369  0.00  0.00    +0.000 A 
ATOM      6  C   UNL     1       4.251  -1.265  -1.163  0.00  0.00    +0.000 A 
ENDROOT
BRANCH   1   8
ATOM      7  C   UNL     1       1.336   0.394   0.221  0.00  0.00    +0.000 C 
ATOM      8  O   UNL     1       2.524  -0.381   0.119  0.00  0.00    +0.000 OA
ENDBRANCH   1   8
BRANCH   4   9
ATOM      9  O   UNL     1       5.100  -1.174  -4.708  0.00  0.00    +0.000 OA
ATOM     10  C   UNL     1       4.616  -2.362  -5.335  0.00  0.00    +0.000 C 
ENDBRANCH   4   9
BRANCH   3  11
ATOM     11  C   UNL     1       2.664   0.484  -4.730  0.00  0.00    +0.000 C 
ATOM     12  C   UNL     1       3.382   1.182  -5.624  0.00  0.00    +0.000 C 
BRANCH  12  13
ATOM     13  C   UNL     1       2.810   1.797  -6.829  0.00  0.00    +0.000 A 
ATOM     14  C   UNL     1       1.580   2.471  -6.812  0.00  0.00    +0.000 A 
ATOM     15  C   UNL     1       1.083   3.066  -7.974  0.00  0.00    +0.000 A 
ATOM     16  C   UNL     1       1.820   2.995  -9.150  0.00  0.00    +0.000 A 
ATOM     17  C   UNL     1       3.048   2.345  -9.185  0.00  0.00    +0.000 A 
ATOM     18  C   UNL     1       3.546   1.752  -8.023  0.00  0.00    +0.000 A 
ATOM     19  F   UNL     1       1.343   3.566 -10.263  0.00  0.00    +0.000 F 
ENDBRANCH  12  13
ENDBRANCH   3  11
TORSDOF 4
