REMARK  Name = *****
REMARK  6 active torsions:
REMARK  status: ('A' for Active; 'I' for Inactive)
REMARK    1  A    between atoms: C_1  and  C_2
REMARK    2  A    between atoms: C_5  and  C_8
REMARK    3  A    between atoms: C_8  and  N_9
REMARK    4  A    between atoms: N_9  and  C_10
REMARK    5  A    between atoms: N_9  and  C_11
REMARK    6  A    between atoms: C_14  and  C_17
REMARK                            x       y       z     vdW  Elec       q    Type
REMARK                         _______ _______ _______ _____ _____    ______ ____
ROOT
ATOM      1  N   UNL     1      -4.141   1.584   0.271  0.00  0.00    +0.000 N 
ATOM      2  C   UNL     1      -3.276   2.751   0.146  0.00  0.00    +0.000 C 
ENDROOT
BRANCH   1   3
ATOM      3  C   UNL     1      -5.496   1.667  -0.045  0.00  0.00    +0.000 A 
ATOM      4  C   UNL     1      -6.062   2.803  -0.646  0.00  0.00    +0.000 A 
ATOM      5  C   UNL     1      -7.429   2.886  -0.947  0.00  0.00    +0.000 A 
ATOM      6  C   UNL     1      -8.290   1.835  -0.634  0.00  0.00    +0.000 A 
ATOM      7  C   UNL     1      -7.755   0.695  -0.037  0.00  0.00    +0.000 A 
ATOM      8  C   UNL     1      -6.386   0.622   0.258  0.00  0.00    +0.000 A 
ATOM      9  C   UNL     1      -9.746   1.906  -0.983  0.00  0.00    +0.000 C 
ENDBRANCH   1   3
BRANCH   1  10
ATOM     10  C   UNL     1      -3.465   0.279   0.268  0.00  0.00    +0.000 C 
BRANCH  10  15
ATOM     11  C   UNL     1      -2.223  -1.923   5.538  0.00  0.00    +0.000 C 
ATOM     12  C   UNL     1      -2.519  -1.326   4.194  0.00  0.00    +0.000 A 
ATOM     13  C   UNL     1      -3.363  -0.218   4.082  0.00  0.00    +0.000 A 
ATOM     14  C   UNL     1      -3.670   0.318   2.828  0.00  0.00    +0.000 A 
ATOM     15  C   UNL     1      -3.145  -0.245   1.656  0.00  0.00    +0.000 A 
ATOM     16  C   UNL     1      -2.315  -1.371   1.776  0.00  0.00    +0.000 A 
ATOM     17  C   UNL     1      -2.008  -1.908   3.030  0.00  0.00    +0.000 A 
ENDBRANCH  10  15
ENDBRANCH   1  10
TORSDOF 3
