REMARK  Name = *****
REMARK  2 active torsions:
REMARK  status: ('A' for Active; 'I' for Inactive)
REMARK    1  A    between atoms: C_1  and  C_2
REMARK    2  A    between atoms: C_5  and  C_8
REMARK                            x       y       z     vdW  Elec       q    Type
REMARK                         _______ _______ _______ _____ _____    ______ ____
ROOT
ATOM      1  C   UNL     1      -3.303  -0.019   0.110  0.00  0.00    +0.000 A 
ATOM      2  N   UNL     1      -4.125   1.016   0.086  0.00  0.00    +0.000 NA
ATOM      3  C   UNL     1      -5.371   0.446   0.150  0.00  0.00    +0.000 A 
ATOM      4  C   UNL     1      -6.649   1.020   0.162  0.00  0.00    +0.000 A 
ATOM      5  C   UNL     1      -7.758   0.163   0.235  0.00  0.00    +0.000 A 
ATOM      6  C   UNL     1      -7.596  -1.227   0.294  0.00  0.00    +0.000 A 
ATOM      7  C   UNL     1      -6.325  -1.815   0.283  0.00  0.00    +0.000 A 
ATOM      8  C   UNL     1      -5.255  -0.932   0.210  0.00  0.00    +0.000 A 
ATOM      9  O   UNL     1      -3.928  -1.241   0.185  0.00  0.00    +0.000 OA
ENDROOT
BRANCH   1  14
ATOM     10  C   UNL     1       2.482   0.026  -0.093  0.00  0.00    +0.000 C 
ATOM     11  C   UNL     1       0.984   0.009  -0.011  0.00  0.00    +0.000 A 
ATOM     12  C   UNL     1       0.256   1.202  -0.062  0.00  0.00    +0.000 A 
ATOM     13  C   UNL     1      -1.142   1.180  -0.019  0.00  0.00    +0.000 A 
ATOM     14  C   UNL     1      -1.842  -0.031   0.066  0.00  0.00    +0.000 A 
ATOM     15  C   UNL     1      -1.106  -1.224   0.102  0.00  0.00    +0.000 A 
ATOM     16  C   UNL     1       0.292  -1.205   0.059  0.00  0.00    +0.000 A 
ENDBRANCH   1  14
TORSDOF 1
