REMARK  Name = *****
REMARK  2 active torsions:
REMARK  status: ('A' for Active; 'I' for Inactive)
REMARK    1  A    between atoms: C_4  and  C_7
REMARK    2  A    between atoms: N_8  and  C_9
REMARK                            x       y       z     vdW  Elec       q    Type
REMARK                         _______ _______ _______ _____ _____    ______ ____
ROOT
ATOM      1  C   UNL     1      -2.884   0.278  -0.187  0.00  0.00    +0.000 C 
ATOM      2  N   UNL     1      -3.634  -0.607  -0.764  0.00  0.00    +0.000 NA
ENDROOT
BRANCH   2   3
ATOM      3  C   UNL     1      -5.006  -0.322  -0.798  0.00  0.00    +0.000 A 
ATOM      4  C   UNL     1      -5.540   0.482  -1.805  0.00  0.00    +0.000 A 
ATOM      5  C   UNL     1      -6.907   0.737  -1.828  0.00  0.00    +0.000 A 
ATOM      6  C   UNL     1      -7.757   0.196  -0.870  0.00  0.00    +0.000 A 
ATOM      7  C   UNL     1      -7.232  -0.622   0.129  0.00  0.00    +0.000 A 
ATOM      8  C   UNL     1      -5.859  -0.882   0.159  0.00  0.00    +0.000 A 
ATOM      9  F   UNL     1      -7.415   1.518  -2.791  0.00  0.00    +0.000 F 
ENDBRANCH   2   3
BRANCH   1  13
ATOM     10  C   UNL     1       1.343  -0.157   0.152  0.00  0.00    +0.000 A 
ATOM     11  C   UNL     1       0.596  -1.157  -0.471  0.00  0.00    +0.000 A 
ATOM     12  C   UNL     1      -0.788  -1.024  -0.588  0.00  0.00    +0.000 A 
ATOM     13  C   UNL     1      -1.422   0.113  -0.077  0.00  0.00    +0.000 A 
ATOM     14  C   UNL     1      -0.675   1.115   0.548  0.00  0.00    +0.000 A 
ATOM     15  C   UNL     1       0.710   0.978   0.661  0.00  0.00    +0.000 A 
ENDBRANCH   1  13
TORSDOF 2
