REMARK  Name = *****
REMARK  5 active torsions:
REMARK  status: ('A' for Active; 'I' for Inactive)
REMARK    1  A    between atoms: C_1  and  C_2
REMARK    2  A    between atoms: C_2  and  C_3
REMARK    3  A    between atoms: C_2  and  O_10
REMARK    4  A    between atoms: C_3  and  C_4
REMARK    5  A    between atoms: O_10  and  C_11
REMARK                            x       y       z     vdW  Elec       q    Type
REMARK                         _______ _______ _______ _____ _____    ______ ____
ROOT
ATOM      1  C   UNL     1       1.242  -0.371  -0.171  0.00  0.00    +0.000 C 
ATOM      2  C   UNL     1       2.715   0.016  -0.039  0.00  0.00    +0.000 C 
ENDROOT
BRANCH   2   3
ATOM      3  C   UNL     1       2.984   1.300  -0.850  0.00  0.00    +0.000 C 
BRANCH   3   4
ATOM      4  C   UNL     1       4.456   1.513  -1.127  0.00  0.00    +0.000 A 
ATOM      5  C   UNL     1       5.003   1.172  -2.372  0.00  0.00    +0.000 A 
ATOM      6  C   UNL     1       6.364   1.358  -2.622  0.00  0.00    +0.000 A 
ATOM      7  C   UNL     1       7.191   1.882  -1.630  0.00  0.00    +0.000 A 
ATOM      8  C   UNL     1       6.659   2.220  -0.387  0.00  0.00    +0.000 A 
ATOM      9  C   UNL     1       5.298   2.036  -0.136  0.00  0.00    +0.000 A 
ENDBRANCH   3   4
ENDBRANCH   2   3
BRANCH   2  10
ATOM     10  O   UNL     1       2.989   0.305   1.339  0.00  0.00    +0.000 OA
BRANCH  10  11
ATOM     11  C   UNL     1       3.395  -0.701   2.170  0.00  0.00    +0.000 A 
ATOM     12  C   UNL     1       3.467  -2.058   1.859  0.00  0.00    +0.000 A 
ATOM     13  C   UNL     1       3.896  -2.979   2.822  0.00  0.00    +0.000 A 
ATOM     14  C   UNL     1       4.250  -2.548   4.099  0.00  0.00    +0.000 A 
ATOM     15  C   UNL     1       4.175  -1.195   4.418  0.00  0.00    +0.000 A 
ATOM     16  C   UNL     1       3.748  -0.278   3.455  0.00  0.00    +0.000 A 
ENDBRANCH  10  11
ENDBRANCH   2  10
TORSDOF 4
