REMARK  Name = *****
REMARK  4 active torsions:
REMARK  status: ('A' for Active; 'I' for Inactive)
REMARK    1  A    between atoms: C_4  and  C_7
REMARK    2  A    between atoms: C_7  and  C_8
REMARK    3  A    between atoms: C_9  and  S_10
REMARK    4  A    between atoms: S_10  and  C_11
REMARK                            x       y       z     vdW  Elec       q    Type
REMARK                         _______ _______ _______ _____ _____    ______ ____
ROOT
ATOM      1  C   UNL     1      -3.519  -1.172   0.040  0.00  0.00    +0.000 C 
ATOM      2  C   UNL     1      -4.788  -1.539   0.268  0.00  0.00    +0.000 C 
ENDROOT
BRANCH   1   3
ATOM      3  C   UNL     1      -3.053   0.256   0.029  0.00  0.00    +0.000 C 
BRANCH   3   7
ATOM      4  C   UNL     1      -0.205   1.027   3.178  0.00  0.00    +0.000 A 
ATOM      5  C   UNL     1       0.242   0.718   1.894  0.00  0.00    +0.000 A 
ATOM      6  C   UNL     1      -0.677   0.472   0.873  0.00  0.00    +0.000 A 
ATOM      7  C   UNL     1      -2.054   0.539   1.125  0.00  0.00    +0.000 A 
ATOM      8  C   UNL     1      -2.493   0.842   2.423  0.00  0.00    +0.000 A 
ATOM      9  C   UNL     1      -1.572   1.087   3.442  0.00  0.00    +0.000 A 
ENDBRANCH   3   7
ENDBRANCH   1   3
BRANCH   2  10
ATOM     10  S   UNL     1      -5.254  -3.207   0.262  0.00  0.00    +0.000 S 
BRANCH  10  11
ATOM     11  C   UNL     1      -6.893  -3.044   0.944  0.00  0.00    +0.000 A 
ATOM     12  C   UNL     1      -8.007  -3.024   0.099  0.00  0.00    +0.000 A 
ATOM     13  C   UNL     1      -9.291  -2.899   0.632  0.00  0.00    +0.000 A 
ATOM     14  C   UNL     1      -9.467  -2.798   2.012  0.00  0.00    +0.000 A 
ATOM     15  C   UNL     1      -8.361  -2.825   2.860  0.00  0.00    +0.000 A 
ATOM     16  C   UNL     1      -7.076  -2.950   2.328  0.00  0.00    +0.000 A 
ENDBRANCH  10  11
ENDBRANCH   2  10
TORSDOF 4
