REMARK  Name = *****
REMARK  5 active torsions:
REMARK  status: ('A' for Active; 'I' for Inactive)
REMARK    1  A    between atoms: C_1  and  C_2
REMARK    2  A    between atoms: C_5  and  C_8
REMARK    3  A    between atoms: C_8  and  C_9
REMARK    4  A    between atoms: C_9  and  C_11
REMARK    5  A    between atoms: C_14  and  C_17
REMARK                            x       y       z     vdW  Elec       q    Type
REMARK                         _______ _______ _______ _____ _____    ______ ____
ROOT
ATOM      1  C   UNL     1      -3.776   1.511  -0.218  0.00  0.00    +0.000 C 
ATOM      2  O   UNL     1      -4.320   2.132   0.697  0.00  0.00    +0.000 OA
ENDROOT
BRANCH   1   3
ATOM      3  C   UNL     1      -3.619   2.168  -1.554  0.00  0.00    +0.000 A 
ATOM      4  C   UNL     1      -3.067   1.516  -2.662  0.00  0.00    +0.000 A 
ATOM      5  C   UNL     1      -2.937   2.187  -3.883  0.00  0.00    +0.000 A 
ATOM      6  C   UNL     1      -3.349   3.518  -4.014  0.00  0.00    +0.000 A 
ATOM      7  C   UNL     1      -3.920   4.162  -2.912  0.00  0.00    +0.000 A 
ATOM      8  C   UNL     1      -4.049   3.495  -1.692  0.00  0.00    +0.000 A 
ATOM      9  C   UNL     1      -3.235   4.228  -5.330  0.00  0.00    +0.000 C 
ENDBRANCH   1   3
BRANCH   1  10
ATOM     10  C   UNL     1      -3.273   0.096   0.001  0.00  0.00    +0.000 C 
BRANCH  10  15
ATOM     11  C   UNL     1       2.519  -0.564   0.154  0.00  0.00    +0.000 C 
ATOM     12  C   UNL     1       1.032  -0.378   0.090  0.00  0.00    +0.000 A 
ATOM     13  C   UNL     1       0.436   0.747   0.668  0.00  0.00    +0.000 A 
ATOM     14  C   UNL     1      -0.952   0.908   0.642  0.00  0.00    +0.000 A 
ATOM     15  C   UNL     1      -1.770  -0.048   0.026  0.00  0.00    +0.000 A 
ATOM     16  C   UNL     1      -1.172  -1.193  -0.518  0.00  0.00    +0.000 A 
ATOM     17  C   UNL     1       0.216  -1.356  -0.487  0.00  0.00    +0.000 A 
ENDBRANCH  10  15
ENDBRANCH   1  10
TORSDOF 3
