REMARK  Name = *****
REMARK  6 active torsions:
REMARK  status: ('A' for Active; 'I' for Inactive)
REMARK    1  A    between atoms: C_1  and  C_2
REMARK    2  A    between atoms: C_4  and  C_19
REMARK    3  A    between atoms: C_5  and  C_9
REMARK    4  A    between atoms: C_6  and  C_8
REMARK    5  A    between atoms: C_9  and  O_11
REMARK    6  A    between atoms: O_11  and  C_12
REMARK                            x       y       z     vdW  Elec       q    Type
REMARK                         _______ _______ _______ _____ _____    ______ ____
ROOT
ATOM      1  C   UNL     1      -2.932  -2.141   0.302  0.00  0.00    +0.000 C 
ATOM      2  O   UNL     1      -3.408  -2.229   1.419  0.00  0.00    +0.000 OA
ENDROOT
BRANCH   1   7
ATOM      3  C   UNL     1       2.724  -1.779  -0.831  0.00  0.00    +0.000 C 
ATOM      4  C   UNL     1       1.262  -1.887  -0.508  0.00  0.00    +0.000 A 
ATOM      5  C   UNL     1       0.588  -0.815   0.091  0.00  0.00    +0.000 A 
ATOM      6  C   UNL     1      -0.786  -0.886   0.361  0.00  0.00    +0.000 A 
ATOM      7  C   UNL     1      -1.485  -2.059   0.015  0.00  0.00    +0.000 A 
ATOM      8  C   UNL     1      -0.824  -3.152  -0.581  0.00  0.00    +0.000 A 
ATOM      9  C   UNL     1       0.548  -3.041  -0.854  0.00  0.00    +0.000 A 
ATOM     10  C   UNL     1      -1.551  -4.412  -0.960  0.00  0.00    +0.000 C 
ATOM     11  C   UNL     1      -1.475   0.279   1.017  0.00  0.00    +0.000 C 
ENDBRANCH   1   7
BRANCH   1  12
ATOM     12  O   UNL     1      -3.597  -2.050  -0.875  0.00  0.00    +0.000 OA
BRANCH  12  13
ATOM     13  C   UNL     1      -5.027  -2.082  -0.767  0.00  0.00    +0.000 C 
ATOM     14  C   UNL     1      -5.633  -1.565  -2.087  0.00  0.00    +0.000 C 
ATOM     15  C   UNL     1      -6.441  -2.774  -2.593  0.00  0.00    +0.000 C 
ATOM     16  C   UNL     1      -7.663  -2.979  -1.681  0.00  0.00    +0.000 C 
ATOM     17  C   UNL     1      -7.040  -3.518  -0.384  0.00  0.00    +0.000 C 
ATOM     18  C   UNL     1      -5.538  -3.538  -0.706  0.00  0.00    +0.000 C 
ATOM     19  C   UNL     1      -5.545  -3.940  -2.184  0.00  0.00    +0.000 C 
ENDBRANCH  12  13
ENDBRANCH   1  12
TORSDOF 3
