REMARK  Name = *****
REMARK  4 active torsions:
REMARK  status: ('A' for Active; 'I' for Inactive)
REMARK    1  A    between atoms: C_1  and  C_2
REMARK    2  A    between atoms: C_4  and  C_18
REMARK    3  A    between atoms: C_5  and  C_8
REMARK    4  A    between atoms: C_15  and  C_17
REMARK                            x       y       z     vdW  Elec       q    Type
REMARK                         _______ _______ _______ _____ _____    ______ ____
ROOT
ATOM      1  C   UNL     1      -2.579  -1.752  -0.125  0.00  0.00    +0.000 A 
ATOM      2  N   UNL     1      -3.813  -1.295  -0.260  0.00  0.00    +0.000 NA
ATOM      3  C   UNL     1      -4.592  -2.423  -0.260  0.00  0.00    +0.000 A 
ATOM      4  C   UNL     1      -3.794  -3.543  -0.122  0.00  0.00    +0.000 A 
ATOM      5  O   UNL     1      -2.500  -3.124  -0.034  0.00  0.00    +0.000 OA
ATOM      6  C   UNL     1      -4.262  -4.849  -0.085  0.00  0.00    +0.000 A 
ATOM      7  C   UNL     1      -5.650  -5.001  -0.200  0.00  0.00    +0.000 A 
ATOM      8  C   UNL     1      -6.507  -3.894  -0.343  0.00  0.00    +0.000 A 
ATOM      9  C   UNL     1      -5.978  -2.588  -0.374  0.00  0.00    +0.000 A 
ATOM     10  C   UNL     1      -7.992  -4.087  -0.469  0.00  0.00    +0.000 C 
ENDROOT
BRANCH   1  15
ATOM     11  C   UNL     1       2.541   0.986   0.090  0.00  0.00    +0.000 C 
ATOM     12  C   UNL     1       1.210   0.297   0.038  0.00  0.00    +0.000 A 
ATOM     13  C   UNL     1       0.018   1.029   0.018  0.00  0.00    +0.000 A 
ATOM     14  C   UNL     1      -1.238   0.389  -0.030  0.00  0.00    +0.000 A 
ATOM     15  C   UNL     1      -1.303  -1.023  -0.063  0.00  0.00    +0.000 A 
ATOM     16  C   UNL     1      -0.092  -1.743  -0.039  0.00  0.00    +0.000 A 
ATOM     17  C   UNL     1       1.146  -1.095   0.011  0.00  0.00    +0.000 A 
ATOM     18  C   UNL     1      -2.471   1.256  -0.048  0.00  0.00    +0.000 C 
ENDBRANCH   1  15
TORSDOF 1
