REMARK  Name = *****
REMARK  3 active torsions:
REMARK  status: ('A' for Active; 'I' for Inactive)
REMARK    1  A    between atoms: C_4  and  C_7
REMARK    2  A    between atoms: C_8  and  C_9
REMARK    3  A    between atoms: C_10  and  C_14
REMARK                            x       y       z     vdW  Elec       q    Type
REMARK                         _______ _______ _______ _____ _____    ______ ____
ROOT
ATOM      1  C   UNL     1      -2.793   0.499  -0.324  0.00  0.00    +0.000 C 
ATOM      2  C   UNL     1      -3.754  -0.439  -0.290  0.00  0.00    +0.000 C 
ENDROOT
BRANCH   1   6
ATOM      3  C   UNL     1       1.371  -0.262   0.271  0.00  0.00    +0.000 A 
ATOM      4  C   UNL     1       0.626  -1.119  -0.537  0.00  0.00    +0.000 A 
ATOM      5  C   UNL     1      -0.737  -0.885  -0.735  0.00  0.00    +0.000 A 
ATOM      6  C   UNL     1      -1.369   0.202  -0.118  0.00  0.00    +0.000 A 
ATOM      7  C   UNL     1      -0.607   1.066   0.679  0.00  0.00    +0.000 A 
ATOM      8  C   UNL     1       0.756   0.831   0.877  0.00  0.00    +0.000 A 
ENDBRANCH   1   6
BRANCH   2   9
ATOM      9  C   UNL     1      -5.135  -0.132  -0.496  0.00  0.00    +0.000 A 
ATOM     10  C   UNL     1      -6.083  -0.835  -1.237  0.00  0.00    +0.000 A 
ATOM     11  C   UNL     1      -7.383  -0.229  -1.159  0.00  0.00    +0.000 A 
ATOM     12  C   UNL     1      -7.398   0.895  -0.372  0.00  0.00    +0.000 A 
ATOM     13  S   UNL     1      -5.864   1.230   0.283  0.00  0.00    +0.000 S 
BRANCH  10  14
ATOM     14  C   UNL     1      -5.791  -2.033  -2.015  0.00  0.00    +0.000 C 
ATOM     15  O   UNL     1      -6.644  -2.655  -2.641  0.00  0.00    +0.000 OA
ENDBRANCH  10  14
ENDBRANCH   2   9
TORSDOF 3
