REMARK  Name = *****
REMARK  7 active torsions:
REMARK  status: ('A' for Active; 'I' for Inactive)
REMARK    1  A    between atoms: C_1  and  C_2
REMARK    2  A    between atoms: C_4  and  C_19
REMARK    3  A    between atoms: C_5  and  P_9
REMARK    4  A    between atoms: C_6  and  C_8
REMARK    5  A    between atoms: P_9  and  C_10
REMARK    6  A    between atoms: C_10  and  C_11
REMARK    7  A    between atoms: C_10  and  C_13
REMARK                            x       y       z     vdW  Elec       q    Type
REMARK                         _______ _______ _______ _____ _____    ______ ____
ROOT
ATOM      1  P   UNL     1      -2.300  -2.066   0.638  0.00  0.00    +0.000 P 
ENDROOT
BRANCH   1   6
ATOM      2  C   UNL     1       2.090   2.089  -0.123  0.00  0.00    +0.000 C 
ATOM      3  C   UNL     1       1.012   1.057   0.025  0.00  0.00    +0.000 A 
ATOM      4  C   UNL     1       1.335  -0.261   0.359  0.00  0.00    +0.000 A 
ATOM      5  C   UNL     1       0.341  -1.240   0.535  0.00  0.00    +0.000 A 
ATOM      6  C   UNL     1      -1.013  -0.861   0.394  0.00  0.00    +0.000 A 
ATOM      7  C   UNL     1      -1.362   0.466   0.051  0.00  0.00    +0.000 A 
ATOM      8  C   UNL     1      -0.333   1.410  -0.118  0.00  0.00    +0.000 A 
ATOM      9  C   UNL     1      -2.780   0.943  -0.150  0.00  0.00    +0.000 C 
ATOM     10  C   UNL     1       0.797  -2.641   0.867  0.00  0.00    +0.000 C 
ENDBRANCH   1   6
BRANCH   1  11
ATOM     11  C   UNL     1      -2.527  -1.974   2.342  0.00  0.00    +0.000 C 
BRANCH  11  12
ATOM     12  C   UNL     1      -3.548  -2.817   3.014  0.00  0.00    +0.000 A 
ATOM     13  C   UNL     1      -3.236  -3.449   4.224  0.00  0.00    +0.000 A 
ATOM     14  C   UNL     1      -4.194  -4.225   4.881  0.00  0.00    +0.000 A 
ATOM     15  C   UNL     1      -5.468  -4.372   4.336  0.00  0.00    +0.000 A 
ATOM     16  C   UNL     1      -5.788  -3.744   3.134  0.00  0.00    +0.000 A 
ATOM     17  C   UNL     1      -4.834  -2.967   2.474  0.00  0.00    +0.000 A 
ENDBRANCH  11  12
BRANCH  11  18
ATOM     18  C   UNL     1      -1.734  -1.032   3.209  0.00  0.00    +0.000 C 
ATOM     19  O   UNL     1      -0.838  -1.449   3.925  0.00  0.00    +0.000 OA
ENDBRANCH  11  18
ENDBRANCH   1  11
TORSDOF 4
