REMARK  Name = *****
REMARK  2 active torsions:
REMARK  status: ('A' for Active; 'I' for Inactive)
REMARK    1  A    between atoms: C_4  and  C_7
REMARK    2  A    between atoms: C_8  and  C_9
REMARK                            x       y       z     vdW  Elec       q    Type
REMARK                         _______ _______ _______ _____ _____    ______ ____
ROOT
ATOM      1  C   UNL     1      -2.809   0.444  -0.092  0.00  0.00    +0.000 C 
ATOM      2  C   UNL     1      -3.712  -0.477  -0.463  0.00  0.00    +0.000 C 
ENDROOT
BRANCH   2   3
ATOM      3  C   UNL     1      -5.150  -0.181  -0.555  0.00  0.00    +0.000 A 
ATOM      4  C   UNL     1      -5.828   0.268   0.590  0.00  0.00    +0.000 A 
ATOM      5  C   UNL     1      -7.198   0.540   0.551  0.00  0.00    +0.000 A 
ATOM      6  C   UNL     1      -7.910   0.362  -0.631  0.00  0.00    +0.000 A 
ATOM      7  C   UNL     1      -7.255  -0.091  -1.776  0.00  0.00    +0.000 A 
ATOM      8  C   UNL     1      -5.883  -0.365  -1.740  0.00  0.00    +0.000 A 
ATOM      9 BR   UNL     1      -5.071  -0.968  -3.351  0.00  0.00    +0.000 Br
ENDBRANCH   2   3
BRANCH   1  13
ATOM     10  C   UNL     1       1.411  -0.196   0.209  0.00  0.00    +0.000 A 
ATOM     11  C   UNL     1       0.689  -0.841  -0.794  0.00  0.00    +0.000 A 
ATOM     12  C   UNL     1      -0.691  -0.646  -0.900  0.00  0.00    +0.000 A 
ATOM     13  C   UNL     1      -1.365   0.186   0.003  0.00  0.00    +0.000 A 
ATOM     14  C   UNL     1      -0.625   0.842   0.996  0.00  0.00    +0.000 A 
ATOM     15  C   UNL     1       0.755   0.648   1.102  0.00  0.00    +0.000 A 
ENDBRANCH   1  13
TORSDOF 2
