REMARK  Name = *****
REMARK  3 active torsions:
REMARK  status: ('A' for Active; 'I' for Inactive)
REMARK    1  A    between atoms: C_4  and  C_7
REMARK    2  A    between atoms: C_7  and  C_9
REMARK    3  A    between atoms: C_9  and  C_10
REMARK                            x       y       z     vdW  Elec       q    Type
REMARK                         _______ _______ _______ _____ _____    ______ ____
ROOT
ATOM      1  C   UNL     1      -5.331  -0.103  -0.456  0.00  0.00    +0.000 C 
ATOM      2  C   UNL     1      -6.363  -1.268  -0.543  0.00  0.00    +0.000 C 
ATOM      3  C   UNL     1      -6.971  -0.559  -1.785  0.00  0.00    +0.000 C 
ATOM      4  C   UNL     1      -5.553   0.052  -1.997  0.00  0.00    +0.000 C 
ATOM      5  F   UNL     1      -5.526   1.312  -2.490  0.00  0.00    +0.000 F 
ATOM      6  F   UNL     1      -4.732  -0.689  -2.785  0.00  0.00    +0.000 F 
ATOM      7  F   UNL     1      -7.426  -1.373  -2.770  0.00  0.00    +0.000 F 
ATOM      8  F   UNL     1      -7.971   0.323  -1.535  0.00  0.00    +0.000 F 
ATOM      9  F   UNL     1      -5.837  -2.498  -0.773  0.00  0.00    +0.000 F 
ATOM     10  F   UNL     1      -7.179  -1.414   0.529  0.00  0.00    +0.000 F 
ATOM     11 CL   UNL     1      -5.821   1.300   0.601  0.00  0.00    +0.000 Cl
ENDROOT
BRANCH   1  12
ATOM     12  C   UNL     1      -3.946  -0.615  -0.038  0.00  0.00    +0.000 C 
BRANCH  12  13
ATOM     13  C   UNL     1      -2.856   0.408  -0.263  0.00  0.00    +0.000 C 
ATOM     14  O   UNL     1      -2.738   0.956  -1.356  0.00  0.00    +0.000 OA
BRANCH  13  18
ATOM     15  C   UNL     1       0.007   1.356   2.783  0.00  0.00    +0.000 A 
ATOM     16  C   UNL     1      -1.277   0.959   3.155  0.00  0.00    +0.000 A 
ATOM     17  C   UNL     1      -2.227   0.646   2.179  0.00  0.00    +0.000 A 
ATOM     18  C   UNL     1      -1.887   0.722   0.823  0.00  0.00    +0.000 A 
ATOM     19  C   UNL     1      -0.600   1.138   0.456  0.00  0.00    +0.000 A 
ATOM     20  C   UNL     1       0.345   1.449   1.434  0.00  0.00    +0.000 A 
ENDBRANCH  13  18
ENDBRANCH  12  13
ENDBRANCH   1  12
TORSDOF 3
