REMARK  Name = *****
REMARK  7 active torsions:
REMARK  status: ('A' for Active; 'I' for Inactive)
REMARK    1  A    between atoms: C_1  and  C_2
REMARK    2  A    between atoms: C_4  and  C_18
REMARK    3  A    between atoms: C_5  and  O_9
REMARK    4  A    between atoms: C_6  and  C_8
REMARK    5  A    between atoms: O_9  and  C_10
REMARK    6  A    between atoms: C_10  and  C_11
REMARK    7  A    between atoms: C_10  and  C_12
REMARK                            x       y       z     vdW  Elec       q    Type
REMARK                         _______ _______ _______ _____ _____    ______ ____
ROOT
ATOM      1  C   UNL     1       2.613   1.147  -0.414  0.00  0.00    +0.000 C 
ATOM      2  C   UNL     1       1.299   0.449  -0.224  0.00  0.00    +0.000 A 
ATOM      3  C   UNL     1       1.087  -0.822  -0.769  0.00  0.00    +0.000 A 
ATOM      4  C   UNL     1      -0.150  -1.473  -0.631  0.00  0.00    +0.000 A 
ATOM      5  C   UNL     1      -1.167  -0.844   0.107  0.00  0.00    +0.000 A 
ATOM      6  C   UNL     1      -1.002   0.465   0.586  0.00  0.00    +0.000 A 
ATOM      7  C   UNL     1       0.244   1.092   0.431  0.00  0.00    +0.000 A 
ATOM      8  C   UNL     1      -2.102   1.205   1.292  0.00  0.00    +0.000 C 
ATOM      9  C   UNL     1      -0.334  -2.823  -1.263  0.00  0.00    +0.000 C 
ENDROOT
BRANCH   5  10
ATOM     10  O   UNL     1      -2.382  -1.457   0.289  0.00  0.00    +0.000 OA
BRANCH  10  11
ATOM     11  C   UNL     1      -2.339  -2.494   1.289  0.00  0.00    +0.000 C 
ATOM     12  C   UNL     1      -3.025  -1.994   2.560  0.00  0.00    +0.000 C 
BRANCH  11  13
ATOM     13  C   UNL     1      -3.066  -3.724   0.767  0.00  0.00    +0.000 A 
ATOM     14  C   UNL     1      -2.583  -5.007   1.070  0.00  0.00    +0.000 A 
ATOM     15  C   UNL     1      -3.251  -6.145   0.613  0.00  0.00    +0.000 A 
ATOM     16  C   UNL     1      -4.411  -6.015  -0.147  0.00  0.00    +0.000 A 
ATOM     17  C   UNL     1      -4.906  -4.749  -0.450  0.00  0.00    +0.000 A 
ATOM     18  C   UNL     1      -4.240  -3.610   0.006  0.00  0.00    +0.000 A 
ENDBRANCH  11  13
ENDBRANCH  10  11
ENDBRANCH   5  10
TORSDOF 3
