REMARK  Name = *****
REMARK  6 active torsions:
REMARK  status: ('A' for Active; 'I' for Inactive)
REMARK    1  A    between atoms: C_1  and  C_2
REMARK    2  A    between atoms: C_7  and  C_8
REMARK    3  A    between atoms: C_8  and  N_9
REMARK    4  A    between atoms: N_9  and  C_10
REMARK    5  A    between atoms: C_10  and  C_11
REMARK    6  A    between atoms: C_16  and  C_17
REMARK                            x       y       z     vdW  Elec       q    Type
REMARK                         _______ _______ _______ _____ _____    ______ ____
ROOT
ATOM      1  N   UNL     1       2.514  -2.527   0.482  0.00  0.00    +0.000 NA
ENDROOT
BRANCH   1   2
ATOM      2  C   UNL     1       1.054  -2.595   0.313  0.00  0.00    +0.000 C 
BRANCH   2   9
ATOM      3  C   UNL     1      -0.681  -2.038  -2.118  0.00  0.00    +0.000 C 
ATOM      4  C   UNL     1      -0.380  -0.983  -1.090  0.00  0.00    +0.000 A 
ATOM      5  C   UNL     1      -0.930   0.300  -1.256  0.00  0.00    +0.000 A 
ATOM      6  C   UNL     1      -0.686   1.313  -0.330  0.00  0.00    +0.000 A 
ATOM      7  C   UNL     1       0.114   1.061   0.778  0.00  0.00    +0.000 A 
ATOM      8  C   UNL     1       0.667  -0.206   0.958  0.00  0.00    +0.000 A 
ATOM      9  C   UNL     1       0.432  -1.242   0.034  0.00  0.00    +0.000 A 
ENDBRANCH   2   9
ENDBRANCH   1   2
BRANCH   1  10
ATOM     10  C   UNL     1       3.174  -2.588  -0.627  0.00  0.00    +0.000 C 
BRANCH  10  11
ATOM     11  C   UNL     1       4.655  -2.524  -0.665  0.00  0.00    +0.000 A 
ATOM     12  C   UNL     1       5.346  -2.251   0.524  0.00  0.00    +0.000 A 
ATOM     13  C   UNL     1       6.737  -2.170   0.530  0.00  0.00    +0.000 A 
ATOM     14  C   UNL     1       7.446  -2.364  -0.652  0.00  0.00    +0.000 A 
ATOM     15  C   UNL     1       6.766  -2.639  -1.839  0.00  0.00    +0.000 A 
ATOM     16  C   UNL     1       5.363  -2.726  -1.865  0.00  0.00    +0.000 A 
ATOM     17  C   UNL     1       4.679  -3.029  -3.168  0.00  0.00    +0.000 C 
ENDBRANCH  10  11
ENDBRANCH   1  10
TORSDOF 4
