REMARK  Name = *****
REMARK  4 active torsions:
REMARK  status: ('A' for Active; 'I' for Inactive)
REMARK    1  A    between atoms: C_1  and  C_2
REMARK    2  A    between atoms: C_5  and  C_8
REMARK    3  A    between atoms: C_8  and  O_9
REMARK    4  A    between atoms: O_9  and  C_10
REMARK                            x       y       z     vdW  Elec       q    Type
REMARK                         _______ _______ _______ _____ _____    ______ ____
ROOT
ATOM      1  C   UNL     1      -3.332  -0.083   0.015  0.00  0.00    +0.000 C 
ENDROOT
BRANCH   1   6
ATOM      2  C   UNL     1       2.490   0.095  -0.189  0.00  0.00    +0.000 C 
ATOM      3  C   UNL     1       0.993   0.043  -0.125  0.00  0.00    +0.000 A 
ATOM      4  C   UNL     1       0.320   0.129   1.098  0.00  0.00    +0.000 A 
ATOM      5  C   UNL     1      -1.076   0.086   1.144  0.00  0.00    +0.000 A 
ATOM      6  C   UNL     1      -1.823  -0.050  -0.034  0.00  0.00    +0.000 A 
ATOM      7  C   UNL     1      -1.149  -0.115  -1.259  0.00  0.00    +0.000 A 
ATOM      8  C   UNL     1       0.247  -0.073  -1.304  0.00  0.00    +0.000 A 
ENDBRANCH   1   6
BRANCH   1   9
ATOM      9  O   UNL     1      -3.803   1.258  -0.083  0.00  0.00    +0.000 OA
BRANCH   9  10
ATOM     10  C   UNL     1      -5.157   1.451  -0.050  0.00  0.00    +0.000 A 
ATOM     11  C   UNL     1      -5.547   2.791  -0.144  0.00  0.00    +0.000 A 
ATOM     12  C   UNL     1      -6.898   3.148  -0.123  0.00  0.00    +0.000 A 
ATOM     13  C   UNL     1      -7.877   2.163  -0.007  0.00  0.00    +0.000 A 
ATOM     14  C   UNL     1      -7.501   0.824   0.087  0.00  0.00    +0.000 A 
ATOM     15  C   UNL     1      -6.150   0.475   0.065  0.00  0.00    +0.000 A 
ATOM     16  F   UNL     1      -5.847  -0.828   0.158  0.00  0.00    +0.000 F 
ENDBRANCH   9  10
ENDBRANCH   1   9
TORSDOF 3
