REMARK  Name = *****
REMARK  4 active torsions:
REMARK  status: ('A' for Active; 'I' for Inactive)
REMARK    1  A    between atoms: C_1  and  C_2
REMARK    2  A    between atoms: C_2  and  C_13
REMARK    3  A    between atoms: C_4  and  C_5
REMARK    4  A    between atoms: C_8  and  C_11
REMARK                            x       y       z     vdW  Elec       q    Type
REMARK                         _______ _______ _______ _____ _____    ______ ____
ROOT
ATOM      1  C   UNL     1       3.075  -0.442   1.340  0.00  0.00    +0.000 C 
ATOM      2  C   UNL     1       2.459  -0.259  -0.029  0.00  0.00    +0.000 C 
ATOM      3  C   UNL     1       3.281   0.525  -1.031  0.00  0.00    +0.000 C 
ATOM      4  C   UNL     1       3.052  -0.943  -1.272  0.00  0.00    +0.000 C 
ENDROOT
BRANCH   4   5
ATOM      5  C   UNL     1       4.176  -1.946  -1.178  0.00  0.00    +0.000 A 
ATOM      6  C   UNL     1       4.046  -3.116  -0.410  0.00  0.00    +0.000 A 
ATOM      7  C   UNL     1       5.060  -4.079  -0.364  0.00  0.00    +0.000 A 
ATOM      8  C   UNL     1       6.229  -3.897  -1.104  0.00  0.00    +0.000 A 
ATOM      9  C   UNL     1       6.378  -2.747  -1.881  0.00  0.00    +0.000 A 
ATOM     10  C   UNL     1       5.361  -1.786  -1.915  0.00  0.00    +0.000 A 
BRANCH   8  11
ATOM     11  C   UNL     1       7.260  -4.892  -1.078  0.00  0.00    +0.000 C 
ATOM     12  N   UNL     1       8.093  -5.700  -1.059  0.00  0.00    +0.000 NA
ENDBRANCH   8  11
ENDBRANCH   4   5
BRANCH   2  13
ATOM     13  C   UNL     1       0.943  -0.088  -0.011  0.00  0.00    +0.000 A 
ATOM     14  C   UNL     1       0.085  -1.188  -0.194  0.00  0.00    +0.000 A 
ATOM     15  C   UNL     1      -1.304  -1.043  -0.180  0.00  0.00    +0.000 A 
ATOM     16  C   UNL     1      -1.868   0.211   0.031  0.00  0.00    +0.000 A 
ATOM     17  C   UNL     1      -1.044   1.315   0.228  0.00  0.00    +0.000 A 
ATOM     18  C   UNL     1       0.345   1.165   0.208  0.00  0.00    +0.000 A 
ENDBRANCH   2  13
TORSDOF 3
