REMARK  Name = *****
REMARK  3 active torsions:
REMARK  status: ('A' for Active; 'I' for Inactive)
REMARK    1  A    between atoms: C_4  and  C_7
REMARK    2  A    between atoms: C_8  and  C_9
REMARK    3  A    between atoms: C_11  and  C_15
REMARK                            x       y       z     vdW  Elec       q    Type
REMARK                         _______ _______ _______ _____ _____    ______ ____
ROOT
ATOM      1  C   UNL     1       2.942   0.213  -0.330  0.00  0.00    +0.000 C 
ATOM      2  C   UNL     1       4.132   0.294  -0.470  0.00  0.00    +0.000 C 
ENDROOT
BRANCH   1   6
ATOM      3  C   UNL     1      -1.245  -0.068   0.148  0.00  0.00    +0.000 A 
ATOM      4  C   UNL     1      -0.635   1.184   0.069  0.00  0.00    +0.000 A 
ATOM      5  C   UNL     1       0.749   1.277  -0.088  0.00  0.00    +0.000 A 
ATOM      6  C   UNL     1       1.524   0.118  -0.167  0.00  0.00    +0.000 A 
ATOM      7  C   UNL     1       0.911  -1.135  -0.087  0.00  0.00    +0.000 A 
ATOM      8  C   UNL     1      -0.473  -1.227   0.070  0.00  0.00    +0.000 A 
ENDBRANCH   1   6
BRANCH   2   9
ATOM      9  C   UNL     1       5.549   0.393  -0.639  0.00  0.00    +0.000 A 
ATOM     10  C   UNL     1       6.153   1.647  -0.751  0.00  0.00    +0.000 A 
ATOM     11  C   UNL     1       7.539   1.743  -0.919  0.00  0.00    +0.000 A 
ATOM     12  C   UNL     1       8.316   0.581  -0.975  0.00  0.00    +0.000 A 
ATOM     13  C   UNL     1       7.711  -0.672  -0.863  0.00  0.00    +0.000 A 
ATOM     14  C   UNL     1       6.328  -0.765  -0.695  0.00  0.00    +0.000 A 
BRANCH  11  15
ATOM     15  C   UNL     1       8.160   3.030  -1.035  0.00  0.00    +0.000 C 
ATOM     16  N   UNL     1       8.665   4.071  -1.129  0.00  0.00    +0.000 NA
ENDBRANCH  11  15
ENDBRANCH   2   9
TORSDOF 3
