REMARK  Name = *****
REMARK  3 active torsions:
REMARK  status: ('A' for Active; 'I' for Inactive)
REMARK    1  A    between atoms: C_4  and  C_7
REMARK    2  A    between atoms: C_7  and  O_8
REMARK    3  A    between atoms: O_8  and  C_9
REMARK                            x       y       z     vdW  Elec       q    Type
REMARK                         _______ _______ _______ _____ _____    ______ ____
ROOT
ATOM      1  O   UNL     1      -3.597  -0.777  -0.092  0.00  0.00    +0.000 OA
ENDROOT
BRANCH   1   2
ATOM      2  C   UNL     1      -4.954  -0.717  -0.251  0.00  0.00    +0.000 A 
ATOM      3  C   UNL     1      -5.713   0.447  -0.401  0.00  0.00    +0.000 A 
ATOM      4  C   UNL     1      -7.101   0.362  -0.553  0.00  0.00    +0.000 A 
ATOM      5  C   UNL     1      -7.720  -0.882  -0.555  0.00  0.00    +0.000 A 
ATOM      6  C   UNL     1      -6.979  -2.047  -0.405  0.00  0.00    +0.000 A 
ATOM      7  C   UNL     1      -5.595  -1.961  -0.251  0.00  0.00    +0.000 A 
ATOM      8  F   UNL     1      -9.049  -0.958  -0.702  0.00  0.00    +0.000 F 
ENDBRANCH   1   2
BRANCH   1   9
ATOM      9  C   UNL     1      -2.877   0.455  -0.166  0.00  0.00    +0.000 C 
BRANCH   9  13
ATOM     10  C   UNL     1       1.393  -0.161   0.104  0.00  0.00    +0.000 A 
ATOM     11  C   UNL     1       0.586  -1.153  -0.448  0.00  0.00    +0.000 A 
ATOM     12  C   UNL     1      -0.795  -0.967  -0.529  0.00  0.00    +0.000 A 
ATOM     13  C   UNL     1      -1.388   0.209  -0.046  0.00  0.00    +0.000 A 
ATOM     14  C   UNL     1      -0.561   1.206   0.495  0.00  0.00    +0.000 A 
ATOM     15  C   UNL     1       0.821   1.019   0.574  0.00  0.00    +0.000 A 
ENDBRANCH   9  13
ENDBRANCH   1   9
TORSDOF 3
