REMARK  Name = *****
REMARK  6 active torsions:
REMARK  status: ('A' for Active; 'I' for Inactive)
REMARK    1  A    between atoms: C_1  and  N_2
REMARK    2  A    between atoms: N_2  and  C_3
REMARK    3  A    between atoms: N_2  and  C_18
REMARK    4  A    between atoms: C_3  and  C_4
REMARK    5  A    between atoms: C_4  and  C_12
REMARK    6  A    between atoms: C_5  and  C_6
REMARK                            x       y       z     vdW  Elec       q    Type
REMARK                         _______ _______ _______ _____ _____    ______ ____
ROOT
ATOM      1  C   UNL     1       2.308   1.276  -1.952  0.00  0.00    +0.000 C 
ATOM      2  C   UNL     1       0.964   1.370  -1.942  0.00  0.00    +0.000 C 
ENDROOT
BRANCH   2   3
ATOM      3  C   UNL     1       0.098   0.973  -0.829  0.00  0.00    +0.000 A 
ATOM      4  C   UNL     1      -0.058   1.812   0.281  0.00  0.00    +0.000 A 
ATOM      5  C   UNL     1      -0.858   1.412   1.352  0.00  0.00    +0.000 A 
ATOM      6  C   UNL     1      -1.504   0.177   1.317  0.00  0.00    +0.000 A 
ATOM      7  C   UNL     1      -1.358  -0.657   0.210  0.00  0.00    +0.000 A 
ATOM      8  C   UNL     1      -0.560  -0.261  -0.864  0.00  0.00    +0.000 A 
ENDBRANCH   2   3
BRANCH   1   9
ATOM      9  C   UNL     1       3.040   1.701  -3.158  0.00  0.00    +0.000 A 
ATOM     10  C   UNL     1       2.993   3.034  -3.595  0.00  0.00    +0.000 A 
ATOM     11  C   UNL     1       3.713   3.433  -4.722  0.00  0.00    +0.000 A 
ATOM     12  C   UNL     1       4.480   2.505  -5.424  0.00  0.00    +0.000 A 
ATOM     13  C   UNL     1       4.523   1.177  -5.007  0.00  0.00    +0.000 A 
ATOM     14  C   UNL     1       3.806   0.773  -3.879  0.00  0.00    +0.000 A 
ENDBRANCH   1   9
BRANCH   1  15
ATOM     15  C   UNL     1       2.992   0.624  -0.796  0.00  0.00    +0.000 C 
BRANCH  15  17
ATOM     16  C   UNL     1       4.993   2.062  -0.726  0.00  0.00    +0.000 C 
ATOM     17  N   UNL     1       4.151   0.910  -0.299  0.00  0.00    +0.000 NA
ATOM     18  C   UNL     1       4.700   0.091   0.820  0.00  0.00    +0.000 C 
ENDBRANCH  15  17
ENDBRANCH   1  15
TORSDOF 4
