REMARK  Name = *****
REMARK  3 active torsions:
REMARK  status: ('A' for Active; 'I' for Inactive)
REMARK    1  A    between atoms: C_4  and  N_7
REMARK    2  A    between atoms: C_8  and  C_9
REMARK    3  A    between atoms: C_8  and  C_11
REMARK                            x       y       z     vdW  Elec       q    Type
REMARK                         _______ _______ _______ _____ _____    ______ ____
ROOT
ATOM      1  N   UNL     1       2.659  -0.819  -0.262  0.00  0.00    +0.000 NA
ATOM      2  C   UNL     1       3.420  -1.701   0.302  0.00  0.00    +0.000 C 
ENDROOT
BRANCH   1   6
ATOM      3  C   UNL     1      -1.374   0.562  -0.310  0.00  0.00    +0.000 C 
ATOM      4  C   UNL     1      -1.134  -0.925  -0.067  0.00  0.00    +0.000 C 
ATOM      5  C   UNL     1       0.282  -1.337  -0.460  0.00  0.00    +0.000 C 
ATOM      6  C   UNL     1       1.336  -0.487   0.260  0.00  0.00    +0.000 C 
ATOM      7  C   UNL     1       1.093   1.005  -0.008  0.00  0.00    +0.000 C 
ATOM      8  C   UNL     1      -0.322   1.424   0.382  0.00  0.00    +0.000 C 
ENDBRANCH   1   6
BRANCH   2   9
ATOM      9  C   UNL     1       4.778  -1.926  -0.293  0.00  0.00    +0.000 A 
ATOM     10  C   UNL     1       4.984  -1.614  -1.645  0.00  0.00    +0.000 A 
ATOM     11  C   UNL     1       6.239  -1.791  -2.231  0.00  0.00    +0.000 A 
ATOM     12  C   UNL     1       7.300  -2.275  -1.469  0.00  0.00    +0.000 A 
ATOM     13  C   UNL     1       7.109  -2.576  -0.121  0.00  0.00    +0.000 A 
ATOM     14  C   UNL     1       5.854  -2.397   0.468  0.00  0.00    +0.000 A 
ENDBRANCH   2   9
BRANCH   2  15
ATOM     15  C   UNL     1       3.040  -2.495   1.543  0.00  0.00    +0.000 C 
ATOM     16  F   UNL     1       3.687  -3.690   1.650  0.00  0.00    +0.000 F 
ENDBRANCH   2  15
TORSDOF 3
