REMARK  Name = *****
REMARK  6 active torsions:
REMARK  status: ('A' for Active; 'I' for Inactive)
REMARK    1  A    between atoms: C_1  and  C_2
REMARK    2  A    between atoms: C_3  and  C_19
REMARK    3  A    between atoms: C_4  and  C_8
REMARK    4  A    between atoms: C_8  and  C_9
REMARK    5  A    between atoms: C_9  and  C_10
REMARK    6  A    between atoms: C_10  and  C_12
REMARK                            x       y       z     vdW  Elec       q    Type
REMARK                         _______ _______ _______ _____ _____    ______ ____
ROOT
ATOM      1  C   UNL     1      -2.027  -3.478  -0.036  0.00  0.00    +0.000 C 
ENDROOT
BRANCH   1   2
ATOM      2  C   UNL     1      -2.039  -4.995  -0.032  0.00  0.00    +0.000 C 
ATOM      3  O   UNL     1      -1.005  -5.660  -0.037  0.00  0.00    +0.000 OA
BRANCH   2   4
ATOM      4  C   UNL     1      -3.358  -5.702  -0.022  0.00  0.00    +0.000 A 
ATOM      5  C   UNL     1      -4.579  -5.013  -0.057  0.00  0.00    +0.000 A 
ATOM      6  C   UNL     1      -5.784  -5.722  -0.044  0.00  0.00    +0.000 A 
ATOM      7  C   UNL     1      -5.767  -7.112   0.002  0.00  0.00    +0.000 A 
ATOM      8  C   UNL     1      -4.567  -7.810   0.035  0.00  0.00    +0.000 A 
ATOM      9  C   UNL     1      -3.361  -7.106   0.023  0.00  0.00    +0.000 A 
ATOM     10  F   UNL     1      -6.924  -7.785   0.015  0.00  0.00    +0.000 F 
ENDBRANCH   2   4
ENDBRANCH   1   2
BRANCH   1  11
ATOM     11  C   UNL     1      -0.604  -2.922   0.016  0.00  0.00    +0.000 C 
BRANCH  11  15
ATOM     12  C   UNL     1      -0.555   1.597   2.446  0.00  0.00    +0.000 C 
ATOM     13  C   UNL     1      -0.588   0.748   1.202  0.00  0.00    +0.000 A 
ATOM     14  C   UNL     1      -0.616  -0.667   1.259  0.00  0.00    +0.000 A 
ATOM     15  C   UNL     1      -0.604  -1.406   0.051  0.00  0.00    +0.000 A 
ATOM     16  C   UNL     1      -0.620  -0.726  -1.179  0.00  0.00    +0.000 A 
ATOM     17  C   UNL     1      -0.627   0.663  -1.226  0.00  0.00    +0.000 A 
ATOM     18  C   UNL     1      -0.609   1.395  -0.044  0.00  0.00    +0.000 A 
ATOM     19  C   UNL     1      -0.579  -1.375   2.592  0.00  0.00    +0.000 C 
ENDBRANCH  11  15
ENDBRANCH   1  11
TORSDOF 4
