REMARK  Name = *****
REMARK  4 active torsions:
REMARK  status: ('A' for Active; 'I' for Inactive)
REMARK    1  A    between atoms: C_1  and  C_2
REMARK    2  A    between atoms: C_2  and  C_4
REMARK    3  A    between atoms: C_9  and  C_10
REMARK    4  A    between atoms: C_11  and  C_12
REMARK                            x       y       z     vdW  Elec       q    Type
REMARK                         _______ _______ _______ _____ _____    ______ ____
ROOT
ATOM      1  C   UNL     1       3.350  -0.908   0.910  0.00  0.00    +0.000 A 
ATOM      2  C   UNL     1       3.027  -2.242   1.215  0.00  0.00    +0.000 A 
ATOM      3  C   UNL     1       3.686  -2.907   2.247  0.00  0.00    +0.000 A 
ATOM      4  C   UNL     1       4.665  -2.246   2.981  0.00  0.00    +0.000 A 
ATOM      5  C   UNL     1       4.993  -0.921   2.678  0.00  0.00    +0.000 A 
ATOM      6  C   UNL     1       4.357  -0.233   1.627  0.00  0.00    +0.000 A 
ENDROOT
BRANCH   1   8
ATOM      7  C   UNL     1       1.110  -0.405  -0.229  0.00  0.00    +0.000 C 
ATOM      8  C   UNL     1       2.610  -0.258  -0.205  0.00  0.00    +0.000 C 
ATOM      9  O   UNL     1       3.210   0.351  -1.085  0.00  0.00    +0.000 OA
ENDBRANCH   1   8
BRANCH   6  10
ATOM     10  C   UNL     1       4.695   1.182   1.379  0.00  0.00    +0.000 C 
ATOM     11  C   UNL     1       5.946   1.671   1.418  0.00  0.00    +0.000 C 
BRANCH  11  12
ATOM     12  C   UNL     1       6.289   3.077   1.154  0.00  0.00    +0.000 A 
ATOM     13  C   UNL     1       5.481   4.138   1.584  0.00  0.00    +0.000 A 
ATOM     14  C   UNL     1       5.860   5.462   1.345  0.00  0.00    +0.000 A 
ATOM     15  C   UNL     1       7.055   5.739   0.684  0.00  0.00    +0.000 A 
ATOM     16  C   UNL     1       7.874   4.693   0.266  0.00  0.00    +0.000 A 
ATOM     17  C   UNL     1       7.495   3.369   0.504  0.00  0.00    +0.000 A 
ENDBRANCH  11  12
ENDBRANCH   6  10
TORSDOF 3
