REMARK  Name = *****
REMARK  1 active torsions:
REMARK  status: ('A' for Active; 'I' for Inactive)
REMARK    1  A    between atoms: C_8  and  C_11
REMARK                            x       y       z     vdW  Elec       q    Type
REMARK                         _______ _______ _______ _____ _____    ______ ____
ROOT
ATOM      1  C   UNL     1      -2.456  -0.663   0.020  0.00  0.00    +0.000 A 
ATOM      2  C   UNL     1      -2.419   0.726   0.059  0.00  0.00    +0.000 A 
ATOM      3  C   UNL     1      -1.189   1.387   0.056  0.00  0.00    +0.000 A 
ATOM      4  C   UNL     1       0.012   0.686   0.014  0.00  0.00    +0.000 A 
ATOM      5  C   UNL     1      -0.026  -0.716  -0.029  0.00  0.00    +0.000 A 
ATOM      6  C   UNL     1      -1.264  -1.385  -0.024  0.00  0.00    +0.000 A 
ATOM      7  C   UNL     1       1.189  -1.415  -0.075  0.00  0.00    +0.000 A 
ATOM      8  C   UNL     1       2.388  -0.714  -0.081  0.00  0.00    +0.000 A 
ATOM      9  N   UNL     1       2.377   0.635  -0.029  0.00  0.00    +0.000 NA
ATOM     10  N   UNL     1       1.187   1.332   0.016  0.00  0.00    +0.000 NA
ENDROOT
BRANCH   8  11
ATOM     11  C   UNL     1       3.715  -1.356  -0.132  0.00  0.00    +0.000 A 
ATOM     12  C   UNL     1       3.934  -2.566  -0.818  0.00  0.00    +0.000 A 
ATOM     13  C   UNL     1       5.201  -3.162  -0.858  0.00  0.00    +0.000 A 
ATOM     14  C   UNL     1       6.273  -2.555  -0.212  0.00  0.00    +0.000 A 
ATOM     15  C   UNL     1       6.091  -1.356   0.468  0.00  0.00    +0.000 A 
ATOM     16  C   UNL     1       4.824  -0.764   0.504  0.00  0.00    +0.000 A 
ATOM     17 CL   UNL     1       7.829  -3.287  -0.262  0.00  0.00    +0.000 Cl
ENDBRANCH   8  11
TORSDOF 1
