REMARK  Name = *****
REMARK  5 active torsions:
REMARK  status: ('A' for Active; 'I' for Inactive)
REMARK    1  A    between atoms: C_1  and  C_2
REMARK    2  A    between atoms: C_2  and  C_3
REMARK    3  A    between atoms: C_2  and  C_11
REMARK    4  A    between atoms: C_3  and  C_4
REMARK    5  A    between atoms: C_4  and  C_5
REMARK                            x       y       z     vdW  Elec       q    Type
REMARK                         _______ _______ _______ _____ _____    ______ ____
ROOT
ATOM      1  C   UNL     1       2.117   0.067  -0.124  0.00  0.00    +0.000 C 
ATOM      2  C   UNL     1       2.606   0.533   1.253  0.00  0.00    +0.000 C 
ENDROOT
BRANCH   2   3
ATOM      3  C   UNL     1       4.124   0.604   1.281  0.00  0.00    +0.000 A 
ATOM      4  C   UNL     1       4.761   1.843   1.449  0.00  0.00    +0.000 A 
ATOM      5  C   UNL     1       6.154   1.929   1.484  0.00  0.00    +0.000 A 
ATOM      6  C   UNL     1       6.929   0.779   1.350  0.00  0.00    +0.000 A 
ATOM      7  C   UNL     1       6.311  -0.457   1.180  0.00  0.00    +0.000 A 
ATOM      8  C   UNL     1       4.918  -0.545   1.145  0.00  0.00    +0.000 A 
ENDBRANCH   2   3
BRANCH   2   9
ATOM      9  C   UNL     1       2.023  -0.366   2.362  0.00  0.00    +0.000 C 
BRANCH   9  10
ATOM     10  C   UNL     1       2.322   0.163   3.771  0.00  0.00    +0.000 C 
BRANCH  10  11
ATOM     11  C   UNL     1       1.696  -0.710   4.832  0.00  0.00    +0.000 A 
ATOM     12  C   UNL     1       2.410  -1.785   5.376  0.00  0.00    +0.000 A 
ATOM     13  C   UNL     1       1.827  -2.604   6.344  0.00  0.00    +0.000 A 
ATOM     14  C   UNL     1       0.523  -2.359   6.772  0.00  0.00    +0.000 A 
ATOM     15  C   UNL     1      -0.198  -1.296   6.232  0.00  0.00    +0.000 A 
ATOM     16  C   UNL     1       0.384  -0.476   5.264  0.00  0.00    +0.000 A 
ENDBRANCH  10  11
ENDBRANCH   9  10
ENDBRANCH   2   9
TORSDOF 4
