REMARK  Name = *****
REMARK  5 active torsions:
REMARK  status: ('A' for Active; 'I' for Inactive)
REMARK    1  A    between atoms: C_1  and  C_2
REMARK    2  A    between atoms: C_4  and  C_16
REMARK    3  A    between atoms: C_6  and  O_8
REMARK    4  A    between atoms: O_8  and  C_9
REMARK    5  A    between atoms: C_9  and  C_10
REMARK                            x       y       z     vdW  Elec       q    Type
REMARK                         _______ _______ _______ _____ _____    ______ ____
ROOT
ATOM      1  C   UNL     1       1.020   0.219   0.154  0.00  0.00    +0.000 C 
ATOM      2  C   UNL     1       2.538   0.191  -0.045  0.00  0.00    +0.000 C 
ATOM      3  C   UNL     1       2.988   1.175  -1.135  0.00  0.00    +0.000 C 
ATOM      4  C   UNL     1       2.636   0.705  -2.553  0.00  0.00    +0.000 C 
ATOM      5  C   UNL     1       3.177  -0.706  -2.805  0.00  0.00    +0.000 C 
ATOM      6  C   UNL     1       2.691  -1.711  -1.755  0.00  0.00    +0.000 C 
ATOM      7  C   UNL     1       3.043  -1.227  -0.343  0.00  0.00    +0.000 C 
ATOM      8  C   UNL     1       3.183   1.682  -3.593  0.00  0.00    +0.000 C 
ENDROOT
BRANCH   6   9
ATOM      9  O   UNL     1       3.335  -2.956  -2.046  0.00  0.00    +0.000 OA
BRANCH   9  10
ATOM     10  C   UNL     1       2.727  -4.083  -1.413  0.00  0.00    +0.000 C 
BRANCH  10  11
ATOM     11  C   UNL     1       3.330  -5.356  -1.894  0.00  0.00    +0.000 A 
ATOM     12  C   UNL     1       4.641  -5.763  -1.772  0.00  0.00    +0.000 A 
ATOM     13  S   UNL     1       4.804  -7.295  -2.486  0.00  0.00    +0.000 S 
ATOM     14  N   UNL     1       3.182  -7.370  -2.899  0.00  0.00    +0.000 NA
ATOM     15  N   UNL     1       2.510  -6.288  -2.534  0.00  0.00    +0.000 NA
ATOM     16 CL   UNL     1       5.972  -4.976  -1.044  0.00  0.00    +0.000 Cl
ENDBRANCH  10  11
ENDBRANCH   9  10
ENDBRANCH   6   9
TORSDOF 3
