REMARK  Name = *****
REMARK  4 active torsions:
REMARK  status: ('A' for Active; 'I' for Inactive)
REMARK    1  A    between atoms: C_1  and  C_2
REMARK    2  A    between atoms: C_4  and  C_9
REMARK    3  A    between atoms: C_7  and  C_8
REMARK    4  A    between atoms: C_10  and  C_11
REMARK                            x       y       z     vdW  Elec       q    Type
REMARK                         _______ _______ _______ _____ _____    ______ ____
ROOT
ATOM      1  C   UNL     1       1.141   0.202   0.076  0.00  0.00    +0.000 C 
ATOM      2  C   UNL     1       2.643   0.130  -0.024  0.00  0.00    +0.000 A 
ATOM      3  C   UNL     1       3.369   1.327  -0.160  0.00  0.00    +0.000 A 
ATOM      4  C   UNL     1       4.759   1.401  -0.273  0.00  0.00    +0.000 A 
ATOM      5  P   UNL     1       5.793   0.079  -0.250  0.00  0.00    +0.000 P 
ATOM      6  C   UNL     1       4.717  -1.203  -0.103  0.00  0.00    +0.000 A 
ATOM      7  C   UNL     1       3.321  -1.107  -0.011  0.00  0.00    +0.000 A 
ATOM      8  C   UNL     1       2.538  -2.396   0.109  0.00  0.00    +0.000 C 
ENDROOT
BRANCH   4   9
ATOM      9  C   UNL     1       5.394   2.672  -0.442  0.00  0.00    +0.000 C 
ATOM     10  C   UNL     1       5.924   3.738  -0.606  0.00  0.00    +0.000 C 
BRANCH  10  11
ATOM     11  C   UNL     1       6.567   4.996  -0.830  0.00  0.00    +0.000 A 
ATOM     12  C   UNL     1       5.967   6.180  -0.397  0.00  0.00    +0.000 A 
ATOM     13  C   UNL     1       6.595   7.406  -0.628  0.00  0.00    +0.000 A 
ATOM     14  C   UNL     1       7.822   7.448  -1.291  0.00  0.00    +0.000 A 
ATOM     15  C   UNL     1       8.423   6.266  -1.722  0.00  0.00    +0.000 A 
ATOM     16  C   UNL     1       7.797   5.040  -1.492  0.00  0.00    +0.000 A 
ENDBRANCH  10  11
ENDBRANCH   4   9
TORSDOF 2
