REMARK  Name = *****
REMARK  4 active torsions:
REMARK  status: ('A' for Active; 'I' for Inactive)
REMARK    1  A    between atoms: C_1  and  C_2
REMARK    2  A    between atoms: C_3  and  C_17
REMARK    3  A    between atoms: C_5  and  N_8
REMARK    4  A    between atoms: C_9  and  C_10
REMARK                            x       y       z     vdW  Elec       q    Type
REMARK                         _______ _______ _______ _____ _____    ______ ____
ROOT
ATOM      1  N   UNL     1      -3.120  -1.334   0.472  0.00  0.00    +0.000 NA
ATOM      2  C   UNL     1      -3.923  -1.278  -0.546  0.00  0.00    +0.000 C 
ENDROOT
BRANCH   1   7
ATOM      3  C   UNL     1       1.802   1.545  -0.021  0.00  0.00    +0.000 C 
ATOM      4  C   UNL     1       0.520   0.767   0.095  0.00  0.00    +0.000 A 
ATOM      5  C   UNL     1       0.473  -0.617  -0.166  0.00  0.00    +0.000 A 
ATOM      6  C   UNL     1      -0.750  -1.298  -0.039  0.00  0.00    +0.000 A 
ATOM      7  C   UNL     1      -1.915  -0.628   0.340  0.00  0.00    +0.000 A 
ATOM      8  C   UNL     1      -1.856   0.735   0.621  0.00  0.00    +0.000 A 
ATOM      9  C   UNL     1      -0.651   1.429   0.496  0.00  0.00    +0.000 A 
ATOM     10  C   UNL     1       1.699  -1.381  -0.581  0.00  0.00    +0.000 C 
ENDBRANCH   1   7
BRANCH   2  11
ATOM     11  C   UNL     1      -5.229  -1.975  -0.545  0.00  0.00    +0.000 A 
ATOM     12  C   UNL     1      -5.582  -2.745   0.574  0.00  0.00    +0.000 A 
ATOM     13  C   UNL     1      -6.804  -3.420   0.612  0.00  0.00    +0.000 A 
ATOM     14  C   UNL     1      -7.681  -3.330  -0.465  0.00  0.00    +0.000 A 
ATOM     15  C   UNL     1      -7.338  -2.565  -1.581  0.00  0.00    +0.000 A 
ATOM     16  C   UNL     1      -6.114  -1.887  -1.626  0.00  0.00    +0.000 A 
ATOM     17 CL   UNL     1      -5.777  -0.963  -3.048  0.00  0.00    +0.000 Cl
ENDBRANCH   2  11
TORSDOF 2
