REMARK  Name = *****
REMARK  4 active torsions:
REMARK  status: ('A' for Active; 'I' for Inactive)
REMARK    1  A    between atoms: C_4  and  C_7
REMARK    2  A    between atoms: C_7  and  S_8
REMARK    3  A    between atoms: S_8  and  C_9
REMARK    4  A    between atoms: C_10  and  C_11
REMARK                            x       y       z     vdW  Elec       q    Type
REMARK                         _______ _______ _______ _____ _____    ______ ____
ROOT
ATOM      1  C   UNL     1      -5.226  -0.890  -0.746  0.00  0.00    +0.000 C 
ATOM      2  C   UNL     1      -6.187  -1.777  -1.045  0.00  0.00    +0.000 C 
ENDROOT
BRANCH   2   3
ATOM      3  C   UNL     1      -6.024  -3.071  -1.717  0.00  0.00    +0.000 A 
ATOM      4  C   UNL     1      -6.297  -4.251  -1.013  0.00  0.00    +0.000 A 
ATOM      5  C   UNL     1      -6.167  -5.491  -1.642  0.00  0.00    +0.000 A 
ATOM      6  C   UNL     1      -5.772  -5.546  -2.974  0.00  0.00    +0.000 A 
ATOM      7  C   UNL     1      -5.505  -4.385  -3.690  0.00  0.00    +0.000 A 
ATOM      8  C   UNL     1      -5.634  -3.145  -3.062  0.00  0.00    +0.000 A 
ATOM      9  F   UNL     1      -5.649  -6.736  -3.577  0.00  0.00    +0.000 F 
ENDBRANCH   2   3
BRANCH   1  10
ATOM     10  S   UNL     1      -3.542  -1.107  -1.086  0.00  0.00    +0.000 S 
BRANCH  10  11
ATOM     11  C   UNL     1      -2.847   0.386  -0.317  0.00  0.00    +0.000 C 
BRANCH  11  15
ATOM     12  C   UNL     1       1.445   0.523  -0.731  0.00  0.00    +0.000 A 
ATOM     13  C   UNL     1       0.632   1.110  -1.699  0.00  0.00    +0.000 A 
ATOM     14  C   UNL     1      -0.757   1.067  -1.566  0.00  0.00    +0.000 A 
ATOM     15  C   UNL     1      -1.347   0.441  -0.458  0.00  0.00    +0.000 A 
ATOM     16  C   UNL     1      -0.518  -0.155   0.504  0.00  0.00    +0.000 A 
ATOM     17  C   UNL     1       0.870  -0.112   0.369  0.00  0.00    +0.000 A 
ENDBRANCH  11  15
ENDBRANCH  10  11
ENDBRANCH   1  10
TORSDOF 4
