REMARK  Name = *****
REMARK  4 active torsions:
REMARK  status: ('A' for Active; 'I' for Inactive)
REMARK    1  A    between atoms: C_1  and  C_2
REMARK    2  A    between atoms: C_3  and  C_7
REMARK    3  A    between atoms: C_8  and  C_9
REMARK    4  A    between atoms: C_10  and  C_14
REMARK                            x       y       z     vdW  Elec       q    Type
REMARK                         _______ _______ _______ _____ _____    ______ ____
ROOT
ATOM      1  C   UNL     1       0.517  -2.489   0.055  0.00  0.00    +0.000 C 
ATOM      2  C   UNL     1       1.728  -3.065   0.098  0.00  0.00    +0.000 C 
ENDROOT
BRANCH   1   5
ATOM      3  C   UNL     1       2.279  -0.110  -1.250  0.00  0.00    +0.000 C 
ATOM      4  C   UNL     1       1.071  -0.008  -0.373  0.00  0.00    +0.000 A 
ATOM      5  C   UNL     1       0.344  -1.075   0.153  0.00  0.00    +0.000 A 
ATOM      6  S   UNL     1      -1.024  -0.509   1.045  0.00  0.00    +0.000 S 
ATOM      7  C   UNL     1      -0.620   1.124   0.788  0.00  0.00    +0.000 A 
ATOM      8  C   UNL     1       0.510   1.255   0.019  0.00  0.00    +0.000 A 
ENDBRANCH   1   5
BRANCH   2   9
ATOM      9  C   UNL     1       1.899  -4.481   0.030  0.00  0.00    +0.000 A 
ATOM     10  C   UNL     1       1.264  -5.454  -0.742  0.00  0.00    +0.000 A 
ATOM     11  C   UNL     1       1.766  -6.768  -0.453  0.00  0.00    +0.000 A 
ATOM     12  C   UNL     1       2.768  -6.762   0.486  0.00  0.00    +0.000 A 
ATOM     13  S   UNL     1       3.122  -5.188   1.024  0.00  0.00    +0.000 S 
ATOM     14  C   UNL     1       0.200  -5.212  -1.766  0.00  0.00    +0.000 C 
ENDBRANCH   2   9
TORSDOF 2
