REMARK  Name = *****
REMARK  3 active torsions:
REMARK  status: ('A' for Active; 'I' for Inactive)
REMARK    1  A    between atoms: N_2  and  C_3
REMARK    2  A    between atoms: C_6  and  C_9
REMARK    3  A    between atoms: C_10  and  C_11
REMARK                            x       y       z     vdW  Elec       q    Type
REMARK                         _______ _______ _______ _____ _____    ______ ____
ROOT
ATOM      1  C   UNL     1       3.931   0.091   0.151  0.00  0.00    +0.000 A 
ATOM      2  C   UNL     1       4.575   1.319   0.012  0.00  0.00    +0.000 A 
ATOM      3  C   UNL     1       5.941   1.341  -0.276  0.00  0.00    +0.000 A 
ATOM      4  C   UNL     1       6.646   0.141  -0.422  0.00  0.00    +0.000 A 
ATOM      5  C   UNL     1       5.985  -1.085  -0.279  0.00  0.00    +0.000 A 
ATOM      6  C   UNL     1       4.619  -1.113   0.009  0.00  0.00    +0.000 A 
ENDROOT
BRANCH   1   8
ATOM      7  C   UNL     1       1.426   0.045   0.677  0.00  0.00    +0.000 C 
ATOM      8  N   UNL     1       2.573   0.066   0.436  0.00  0.00    +0.000 NA
ENDBRANCH   1   8
BRANCH   4   9
ATOM      9  C   UNL     1       8.045   0.166  -0.720  0.00  0.00    +0.000 C 
ATOM     10  C   UNL     1       9.219   0.188  -0.974  0.00  0.00    +0.000 C 
BRANCH  10  11
ATOM     11  C   UNL     1      10.616   0.215  -1.278  0.00  0.00    +0.000 A 
ATOM     12  C   UNL     1      11.279   1.436  -1.421  0.00  0.00    +0.000 A 
ATOM     13  C   UNL     1      12.642   1.461  -1.720  0.00  0.00    +0.000 A 
ATOM     14  C   UNL     1      13.344   0.266  -1.877  0.00  0.00    +0.000 A 
ATOM     15  C   UNL     1      12.685  -0.955  -1.734  0.00  0.00    +0.000 A 
ATOM     16  C   UNL     1      11.321  -0.981  -1.435  0.00  0.00    +0.000 A 
ENDBRANCH  10  11
ENDBRANCH   4   9
TORSDOF 3
