REMARK  Name = *****
REMARK  4 active torsions:
REMARK  status: ('A' for Active; 'I' for Inactive)
REMARK    1  A    between atoms: C_1  and  C_2
REMARK    2  A    between atoms: C_4  and  C_16
REMARK    3  A    between atoms: C_6  and  C_8
REMARK    4  A    between atoms: C_9  and  C_10
REMARK                            x       y       z     vdW  Elec       q    Type
REMARK                         _______ _______ _______ _____ _____    ______ ____
ROOT
ATOM      1  C   UNL     1       2.588   0.989   0.089  0.00  0.00    +0.000 C 
ATOM      2  C   UNL     1       1.263   0.290   0.058  0.00  0.00    +0.000 A 
ATOM      3  C   UNL     1       1.189  -1.101   0.000  0.00  0.00    +0.000 A 
ATOM      4  C   UNL     1      -0.060  -1.711  -0.061  0.00  0.00    +0.000 A 
ATOM      5  N   UNL     1      -1.216  -1.008  -0.078  0.00  0.00    +0.000 NA
ATOM      6  C   UNL     1      -1.140   0.343  -0.037  0.00  0.00    +0.000 A 
ATOM      7  C   UNL     1       0.073   1.022   0.026  0.00  0.00    +0.000 A 
ATOM      8  C   UNL     1      -0.167  -3.205  -0.116  0.00  0.00    +0.000 C 
ENDROOT
BRANCH   6   9
ATOM      9  C   UNL     1      -2.403   1.097  -0.067  0.00  0.00    +0.000 C 
ATOM     10  C   UNL     1      -3.617   0.522  -0.122  0.00  0.00    +0.000 C 
BRANCH  10  11
ATOM     11  C   UNL     1      -4.880   1.271  -0.138  0.00  0.00    +0.000 A 
ATOM     12  C   UNL     1      -5.042   2.449  -0.880  0.00  0.00    +0.000 A 
ATOM     13  C   UNL     1      -6.270   3.117  -0.894  0.00  0.00    +0.000 A 
ATOM     14  C   UNL     1      -7.350   2.608  -0.175  0.00  0.00    +0.000 A 
ATOM     15  C   UNL     1      -7.205   1.429   0.553  0.00  0.00    +0.000 A 
ATOM     16  C   UNL     1      -5.978   0.761   0.566  0.00  0.00    +0.000 A 
ENDBRANCH  10  11
ENDBRANCH   6   9
TORSDOF 2
