REMARK  Name = *****
REMARK  7 active torsions:
REMARK  status: ('A' for Active; 'I' for Inactive)
REMARK    1  A    between atoms: C_3  and  C_9
REMARK    2  A    between atoms: C_4  and  S_8
REMARK    3  A    between atoms: C_5  and  S_7
REMARK    4  A    between atoms: C_9  and  C_10
REMARK    5  A    between atoms: C_10  and  C_11
REMARK    6  A    between atoms: C_12  and  S_18
REMARK    7  A    between atoms: C_13  and  S_17
REMARK                            x       y       z     vdW  Elec       q    Type
REMARK                         _______ _______ _______ _____ _____    ______ ____
ROOT
ATOM      1  C   UNL     1       2.607  -1.242   0.238  0.00  0.00    +0.000 C 
ENDROOT
BRANCH   1   4
ATOM      2  C   UNL     1      -0.617   0.634   0.947  0.00  0.00    +0.000 A 
ATOM      3  C   UNL     1       0.591  -0.040   1.095  0.00  0.00    +0.000 A 
ATOM      4  C   UNL     1       1.307  -0.504  -0.025  0.00  0.00    +0.000 A 
ATOM      5  C   UNL     1       0.777  -0.287  -1.320  0.00  0.00    +0.000 A 
ATOM      6  C   UNL     1      -0.452   0.402  -1.462  0.00  0.00    +0.000 A 
ATOM      7  C   UNL     1      -1.135   0.854  -0.325  0.00  0.00    +0.000 A 
BRANCH   6   8
ATOM      8  S   UNL     1      -1.235   0.745  -3.041  0.00  0.00    +0.000 S 
ATOM      9  H   UNL     1      -0.463   0.251  -4.047  0.00  0.00    +0.000 HD
ENDBRANCH   6   8
BRANCH   5  10
ATOM     10  S   UNL     1       1.650  -0.895  -2.774  0.00  0.00    +0.000 S 
ATOM     11  H   UNL     1       2.795  -1.518  -2.387  0.00  0.00    +0.000 HD
ENDBRANCH   5  10
ENDBRANCH   1   4
BRANCH   1  12
ATOM     12  C   UNL     1       2.380  -2.752   0.415  0.00  0.00    +0.000 C 
BRANCH  12  13
ATOM     13  C   UNL     1       3.601  -3.629   0.655  0.00  0.00    +0.000 A 
ATOM     14  C   UNL     1       3.472  -5.042   0.760  0.00  0.00    +0.000 A 
ATOM     15  C   UNL     1       4.619  -5.845   0.975  0.00  0.00    +0.000 A 
ATOM     16  C   UNL     1       5.876  -5.242   1.092  0.00  0.00    +0.000 A 
ATOM     17  C   UNL     1       6.007  -3.862   0.997  0.00  0.00    +0.000 A 
ATOM     18  C   UNL     1       4.884  -3.065   0.782  0.00  0.00    +0.000 A 
BRANCH  15  19
ATOM     19  S   UNL     1       4.584  -7.633   1.123  0.00  0.00    +0.000 S 
ATOM     20  H   UNL     1       3.304  -8.074   0.988  0.00  0.00    +0.000 HD
ENDBRANCH  15  19
BRANCH  14  21
ATOM     21  S   UNL     1       1.845  -5.815   0.629  0.00  0.00    +0.000 S 
ATOM     22  H   UNL     1       0.903  -4.856   0.425  0.00  0.00    +0.000 HD
ENDBRANCH  14  21
ENDBRANCH  12  13
ENDBRANCH   1  12
TORSDOF 7
