REMARK  Name = *****
REMARK  4 active torsions:
REMARK  status: ('A' for Active; 'I' for Inactive)
REMARK    1  A    between atoms: C_1  and  C_2
REMARK    2  A    between atoms: C_7  and  C_8
REMARK    3  A    between atoms: N_9  and  C_12
REMARK    4  A    between atoms: C_13  and  C_14
REMARK                            x       y       z     vdW  Elec       q    Type
REMARK                         _______ _______ _______ _____ _____    ______ ____
ROOT
ATOM      1  C   UNL     1       0.980  -0.188  -0.085  0.00  0.00    +0.000 C 
ATOM      2  C   UNL     1       2.482  -0.072  -0.079  0.00  0.00    +0.000 A 
ATOM      3  C   UNL     1       3.251  -1.251  -0.014  0.00  0.00    +0.000 A 
ATOM      4  C   UNL     1       4.650  -1.163  -0.005  0.00  0.00    +0.000 A 
ATOM      5  C   UNL     1       5.263   0.078  -0.060  0.00  0.00    +0.000 A 
ATOM      6  C   UNL     1       4.528   1.273  -0.125  0.00  0.00    +0.000 A 
ATOM      7  C   UNL     1       3.121   1.185  -0.132  0.00  0.00    +0.000 A 
ATOM      8  C   UNL     1       2.319   2.459  -0.200  0.00  0.00    +0.000 C 
ATOM      9  N   UNL     1       6.631  -0.208  -0.033  0.00  0.00    +0.000 N 
ATOM     10  N   UNL     1       6.784  -1.566   0.035  0.00  0.00    +0.000 NA
ATOM     11  N   UNL     1       5.592  -2.142   0.051  0.00  0.00    +0.000 NA
ENDROOT
BRANCH   9  12
ATOM     12  C   UNL     1       7.662   0.738  -0.068  0.00  0.00    +0.000 C 
ATOM     13  C   UNL     1       8.973   0.442  -0.043  0.00  0.00    +0.000 C 
BRANCH  13  14
ATOM     14  C   UNL     1      10.043   1.447  -0.094  0.00  0.00    +0.000 A 
ATOM     15  C   UNL     1       9.958   2.668   0.587  0.00  0.00    +0.000 A 
ATOM     16  C   UNL     1      11.012   3.585   0.535  0.00  0.00    +0.000 A 
ATOM     17  C   UNL     1      12.164   3.285  -0.189  0.00  0.00    +0.000 A 
ATOM     18  C   UNL     1      12.266   2.067  -0.856  0.00  0.00    +0.000 A 
ATOM     19  C   UNL     1      11.214   1.150  -0.804  0.00  0.00    +0.000 A 
ENDBRANCH  13  14
ENDBRANCH   9  12
TORSDOF 2
