REMARK  Name = *****
REMARK  4 active torsions:
REMARK  status: ('A' for Active; 'I' for Inactive)
REMARK    1  A    between atoms: C_2  and  C_3
REMARK    2  A    between atoms: C_2  and  O_10
REMARK    3  A    between atoms: O_10  and  C_11
REMARK    4  A    between atoms: C_11  and  C_13
REMARK                            x       y       z     vdW  Elec       q    Type
REMARK                         _______ _______ _______ _____ _____    ______ ____
ROOT
ATOM      1  C   UNL     1       1.008  -0.122  -0.370  0.00  0.00    +0.000 C 
ATOM      2  C   UNL     1       2.344  -0.052  -0.293  0.00  0.00    +0.000 C 
ENDROOT
BRANCH   2   3
ATOM      3  C   UNL     1       3.089   1.219  -0.256  0.00  0.00    +0.000 A 
ATOM      4  C   UNL     1       2.706   2.259   0.607  0.00  0.00    +0.000 A 
ATOM      5  C   UNL     1       3.428   3.455   0.643  0.00  0.00    +0.000 A 
ATOM      6  C   UNL     1       4.536   3.611  -0.180  0.00  0.00    +0.000 A 
ATOM      7  C   UNL     1       4.939   2.594  -1.035  0.00  0.00    +0.000 A 
ATOM      8  C   UNL     1       4.219   1.397  -1.071  0.00  0.00    +0.000 A 
ATOM      9  F   UNL     1       5.227   4.758  -0.147  0.00  0.00    +0.000 F 
ENDBRANCH   2   3
BRANCH   2  10
ATOM     10  O   UNL     1       3.124  -1.216  -0.357  0.00  0.00    +0.000 OA
BRANCH  10  11
ATOM     11  C   UNL     1       3.463  -1.703   0.874  0.00  0.00    +0.000 C 
ATOM     12  O   UNL     1       3.135  -1.260   1.965  0.00  0.00    +0.000 OA
BRANCH  11  13
ATOM     13  C   UNL     1       4.325  -2.909   0.719  0.00  0.00    +0.000 A 
ATOM     14  C   UNL     1       4.683  -3.430  -0.534  0.00  0.00    +0.000 A 
ATOM     15  C   UNL     1       5.494  -4.565  -0.617  0.00  0.00    +0.000 A 
ATOM     16  C   UNL     1       5.951  -5.185   0.545  0.00  0.00    +0.000 A 
ATOM     17  C   UNL     1       5.600  -4.675   1.794  0.00  0.00    +0.000 A 
ATOM     18  C   UNL     1       4.790  -3.541   1.881  0.00  0.00    +0.000 A 
ENDBRANCH  11  13
ENDBRANCH  10  11
ENDBRANCH   2  10
TORSDOF 4
