REMARK  Name = *****
REMARK  3 active torsions:
REMARK  status: ('A' for Active; 'I' for Inactive)
REMARK    1  A    between atoms: C_4  and  C_7
REMARK    2  A    between atoms: C_7  and  C_8
REMARK    3  A    between atoms: C_9  and  C_10
REMARK                            x       y       z     vdW  Elec       q    Type
REMARK                         _______ _______ _______ _____ _____    ______ ____
ROOT
ATOM      1  C   UNL     1      -3.197  -0.644  -0.556  0.00  0.00    +0.000 C 
ATOM      2  C   UNL     1      -2.869  -1.915  -0.265  0.00  0.00    +0.000 C 
ATOM      3 CL   UNL     1      -4.755  -0.355  -1.284  0.00  0.00    +0.000 Cl
ENDROOT
BRANCH   2   4
ATOM      4  C   UNL     1      -1.600  -2.334   0.329  0.00  0.00    +0.000 A 
ATOM      5  C   UNL     1      -1.539  -2.632   1.695  0.00  0.00    +0.000 A 
ATOM      6  C   UNL     1      -0.332  -3.029   2.273  0.00  0.00    +0.000 A 
ATOM      7  C   UNL     1       0.816  -3.136   1.488  0.00  0.00    +0.000 A 
ATOM      8  C   UNL     1       0.759  -2.847   0.125  0.00  0.00    +0.000 A 
ATOM      9  C   UNL     1      -0.447  -2.449  -0.455  0.00  0.00    +0.000 A 
ENDBRANCH   2   4
BRANCH   1  10
ATOM     10  C   UNL     1      -2.342   0.586  -0.380  0.00  0.00    +0.000 C 
BRANCH  10  14
ATOM     11  C   UNL     1      -3.323   2.853   3.163  0.00  0.00    +0.000 A 
ATOM     12  C   UNL     1      -2.336   1.872   3.213  0.00  0.00    +0.000 A 
ATOM     13  C   UNL     1      -2.016   1.142   2.067  0.00  0.00    +0.000 A 
ATOM     14  C   UNL     1      -2.681   1.389   0.857  0.00  0.00    +0.000 A 
ATOM     15  C   UNL     1      -3.674   2.378   0.820  0.00  0.00    +0.000 A 
ATOM     16  C   UNL     1      -3.992   3.106   1.968  0.00  0.00    +0.000 A 
ENDBRANCH  10  14
ENDBRANCH   1  10
TORSDOF 3
