REMARK  Name = *****
REMARK  4 active torsions:
REMARK  status: ('A' for Active; 'I' for Inactive)
REMARK    1  A    between atoms: C_1  and  N_2
REMARK    2  A    between atoms: N_2  and  C_3
REMARK    3  A    between atoms: N_2  and  C_9
REMARK    4  A    between atoms: C_9  and  C_11
REMARK                            x       y       z     vdW  Elec       q    Type
REMARK                         _______ _______ _______ _____ _____    ______ ____
ROOT
ATOM      1  C   UNL     1       0.968   0.006  -0.035  0.00  0.00    +0.000 C 
ATOM      2  N   UNL     1       2.432   0.012   0.098  0.00  0.00    +0.000 N 
ENDROOT
BRANCH   2   3
ATOM      3  C   UNL     1       3.166  -0.334  -1.096  0.00  0.00    +0.000 A 
ATOM      4  C   UNL     1       2.644  -0.078  -2.374  0.00  0.00    +0.000 A 
ATOM      5  C   UNL     1       3.344  -0.454  -3.526  0.00  0.00    +0.000 A 
ATOM      6  C   UNL     1       4.568  -1.107  -3.419  0.00  0.00    +0.000 A 
ATOM      7  C   UNL     1       5.091  -1.387  -2.161  0.00  0.00    +0.000 A 
ATOM      8  C   UNL     1       4.393  -1.008  -1.010  0.00  0.00    +0.000 A 
ENDBRANCH   2   3
BRANCH   2   9
ATOM      9  C   UNL     1       3.067   0.488   1.271  0.00  0.00    +0.000 C 
ATOM     10  S   UNL     1       4.491   1.412   1.256  0.00  0.00    +0.000 S 
BRANCH   9  11
ATOM     11  C   UNL     1       2.313   0.233   2.606  0.00  0.00    +0.000 C 
ATOM     12  C   UNL     1       1.329   1.353   2.972  0.00  0.00    +0.000 C 
ATOM     13  C   UNL     1       2.053   2.389   3.816  0.00  0.00    +0.000 C 
ATOM     14  S   UNL     1       3.142   1.434   4.893  0.00  0.00    +0.000 S 
ATOM     15  C   UNL     1       3.166  -0.051   3.848  0.00  0.00    +0.000 C 
ENDBRANCH   9  11
ENDBRANCH   2   9
TORSDOF 3
