REMARK  Name = *****
REMARK  2 active torsions:
REMARK  status: ('A' for Active; 'I' for Inactive)
REMARK    1  A    between atoms: C_4  and  C_7
REMARK    2  A    between atoms: C_8  and  C_9
REMARK                            x       y       z     vdW  Elec       q    Type
REMARK                         _______ _______ _______ _____ _____    ______ ____
ROOT
ATOM      1  C   UNL     1      -2.804   0.552  -0.254  0.00  0.00    +0.000 C 
ATOM      2  C   UNL     1      -3.757  -0.391  -0.342  0.00  0.00    +0.000 C 
ENDROOT
BRANCH   1   6
ATOM      3  C   UNL     1       1.374  -0.233   0.219  0.00  0.00    +0.000 A 
ATOM      4  C   UNL     1       0.620  -1.030  -0.639  0.00  0.00    +0.000 A 
ATOM      5  C   UNL     1      -0.747  -0.789  -0.799  0.00  0.00    +0.000 A 
ATOM      6  C   UNL     1      -1.375   0.245  -0.091  0.00  0.00    +0.000 A 
ATOM      7  C   UNL     1      -0.602   1.050   0.755  0.00  0.00    +0.000 A 
ATOM      8  C   UNL     1       0.764   0.809   0.915  0.00  0.00    +0.000 A 
ENDBRANCH   1   6
BRANCH   2   9
ATOM      9  C   UNL     1      -5.151  -0.108  -0.506  0.00  0.00    +0.000 A 
ATOM     10  C   UNL     1      -6.147  -0.931  -1.007  0.00  0.00    +0.000 A 
ATOM     11  C   UNL     1      -7.444  -0.355  -1.015  0.00  0.00    +0.000 A 
ATOM     12  C   UNL     1      -7.428   0.920  -0.503  0.00  0.00    +0.000 A 
ATOM     13  S   UNL     1      -5.861   1.397  -0.022  0.00  0.00    +0.000 S 
ATOM     14 BR   UNL     1      -5.901  -2.692  -1.669  0.00  0.00    +0.000 Br
ENDBRANCH   2   9
TORSDOF 2
