REMARK  Name = *****
REMARK  3 active torsions:
REMARK  status: ('A' for Active; 'I' for Inactive)
REMARK    1  A    between atoms: C_6  and  C_7
REMARK    2  A    between atoms: C_7  and  O_9
REMARK    3  A    between atoms: O_9  and  C_10
REMARK                            x       y       z     vdW  Elec       q    Type
REMARK                         _______ _______ _______ _____ _____    ______ ____
ROOT
ATOM      1  C   UNL     1      -3.197   0.036   0.789  0.00  0.00    +0.000 C 
ATOM      2  O   UNL     1      -3.887  -0.971   0.856  0.00  0.00    +0.000 OA
ENDROOT
BRANCH   1   8
ATOM      3  C   UNL     1      -1.003   1.187   0.224  0.00  0.00    +0.000 A 
ATOM      4  C   UNL     1       0.306   1.117  -0.260  0.00  0.00    +0.000 A 
ATOM      5  C   UNL     1       0.821  -0.104  -0.681  0.00  0.00    +0.000 A 
ATOM      6  C   UNL     1       0.053  -1.261  -0.627  0.00  0.00    +0.000 A 
ATOM      7  C   UNL     1      -1.256  -1.196  -0.144  0.00  0.00    +0.000 A 
ATOM      8  C   UNL     1      -1.794   0.028   0.284  0.00  0.00    +0.000 A 
ATOM      9  F   UNL     1       2.076  -0.166  -1.145  0.00  0.00    +0.000 F 
ENDBRANCH   1   8
BRANCH   1  10
ATOM     10  O   UNL     1      -3.568   1.323   1.125  0.00  0.00    +0.000 OA
BRANCH  10  11
ATOM     11  C   UNL     1      -4.836   1.371   1.704  0.00  0.00    +0.000 A 
ATOM     12  C   UNL     1      -5.003   1.050   3.052  0.00  0.00    +0.000 A 
ATOM     13  C   UNL     1      -6.256   1.132   3.642  0.00  0.00    +0.000 A 
ATOM     14  C   UNL     1      -7.333   1.551   2.869  0.00  0.00    +0.000 A 
ATOM     15  C   UNL     1      -7.174   1.893   1.526  0.00  0.00    +0.000 A 
ATOM     16  C   UNL     1      -5.913   1.810   0.934  0.00  0.00    +0.000 A 
ATOM     17  F   UNL     1      -8.547   1.638   3.427  0.00  0.00    +0.000 F 
ATOM     18  F   UNL     1      -3.950   0.671   3.790  0.00  0.00    +0.000 F 
ENDBRANCH  10  11
ENDBRANCH   1  10
TORSDOF 3
