REMARK  Name = *****
REMARK  4 active torsions:
REMARK  status: ('A' for Active; 'I' for Inactive)
REMARK    1  A    between atoms: C_1  and  C_2
REMARK    2  A    between atoms: C_7  and  C_8
REMARK    3  A    between atoms: C_9  and  S_10
REMARK    4  A    between atoms: S_10  and  C_11
REMARK                            x       y       z     vdW  Elec       q    Type
REMARK                         _______ _______ _______ _____ _____    ______ ____
ROOT
ATOM      1  C   UNL     1       0.648  -2.656  -0.467  0.00  0.00    +0.000 C 
ATOM      2  C   UNL     1       1.854  -2.957  -0.968  0.00  0.00    +0.000 C 
ENDROOT
BRANCH   1   9
ATOM      3  C   UNL     1      -0.202  -0.596  -2.454  0.00  0.00    +0.000 C 
ATOM      4  C   UNL     1      -0.091  -0.304  -0.983  0.00  0.00    +0.000 A 
ATOM      5  C   UNL     1      -0.373   0.990  -0.517  0.00  0.00    +0.000 A 
ATOM      6  C   UNL     1      -0.273   1.299   0.840  0.00  0.00    +0.000 A 
ATOM      7  C   UNL     1       0.114   0.320   1.750  0.00  0.00    +0.000 A 
ATOM      8  C   UNL     1       0.406  -0.968   1.303  0.00  0.00    +0.000 A 
ATOM      9  C   UNL     1       0.311  -1.289  -0.059  0.00  0.00    +0.000 A 
ENDBRANCH   1   9
BRANCH   2  10
ATOM     10  S   UNL     1       2.243  -4.576  -1.448  0.00  0.00    +0.000 S 
BRANCH  10  11
ATOM     11  C   UNL     1       3.848  -4.278  -2.165  0.00  0.00    +0.000 A 
ATOM     12  C   UNL     1       3.961  -3.851  -3.492  0.00  0.00    +0.000 A 
ATOM     13  C   UNL     1       5.219  -3.622  -4.052  0.00  0.00    +0.000 A 
ATOM     14  C   UNL     1       6.369  -3.824  -3.290  0.00  0.00    +0.000 A 
ATOM     15  C   UNL     1       6.262  -4.256  -1.969  0.00  0.00    +0.000 A 
ATOM     16  C   UNL     1       5.004  -4.486  -1.408  0.00  0.00    +0.000 A 
ENDBRANCH  10  11
ENDBRANCH   2  10
TORSDOF 3
