REMARK  Name = *****
REMARK  4 active torsions:
REMARK  status: ('A' for Active; 'I' for Inactive)
REMARK    1  A    between atoms: C_1  and  C_2
REMARK    2  A    between atoms: C_2  and  C_4
REMARK    3  A    between atoms: C_8  and  C_10
REMARK    4  A    between atoms: C_11  and  C_12
REMARK                            x       y       z     vdW  Elec       q    Type
REMARK                         _______ _______ _______ _____ _____    ______ ____
ROOT
ATOM      1  C   UNL     1       3.365   1.374  -0.203  0.00  0.00    +0.000 A 
ATOM      2  C   UNL     1       2.942   2.476   0.551  0.00  0.00    +0.000 A 
ATOM      3  C   UNL     1       3.611   3.698   0.442  0.00  0.00    +0.000 A 
ATOM      4  C   UNL     1       4.703   3.825  -0.417  0.00  0.00    +0.000 A 
ATOM      5  C   UNL     1       5.130   2.731  -1.171  0.00  0.00    +0.000 A 
ATOM      6  C   UNL     1       4.464   1.508  -1.065  0.00  0.00    +0.000 A 
ENDROOT
BRANCH   1   8
ATOM      7  C   UNL     1       1.501  -0.113   0.796  0.00  0.00    +0.000 C 
ATOM      8  C   UNL     1       2.684   0.047  -0.123  0.00  0.00    +0.000 C 
ATOM      9  O   UNL     1       3.092  -0.894  -0.802  0.00  0.00    +0.000 OA
ENDBRANCH   1   8
BRANCH   5  10
ATOM     10  C   UNL     1       6.249   2.864  -2.052  0.00  0.00    +0.000 C 
ATOM     11  C   UNL     1       7.189   2.976  -2.792  0.00  0.00    +0.000 C 
BRANCH  11  12
ATOM     12  C   UNL     1       8.307   3.108  -3.674  0.00  0.00    +0.000 A 
ATOM     13  C   UNL     1       9.023   4.307  -3.721  0.00  0.00    +0.000 A 
ATOM     14  C   UNL     1      10.114   4.436  -4.582  0.00  0.00    +0.000 A 
ATOM     15  C   UNL     1      10.489   3.368  -5.398  0.00  0.00    +0.000 A 
ATOM     16  C   UNL     1       9.775   2.171  -5.353  0.00  0.00    +0.000 A 
ATOM     17  C   UNL     1       8.684   2.040  -4.491  0.00  0.00    +0.000 A 
ENDBRANCH  11  12
ENDBRANCH   5  10
TORSDOF 3
