REMARK  Name = *****
REMARK  6 active torsions:
REMARK  status: ('A' for Active; 'I' for Inactive)
REMARK    1  A    between atoms: C_1  and  C_2
REMARK    2  A    between atoms: C_2  and  O_3
REMARK    3  A    between atoms: O_3  and  C_4
REMARK    4  A    between atoms: C_8  and  C_10
REMARK    5  A    between atoms: C_10  and  C_11
REMARK    6  A    between atoms: C_11  and  C_12
REMARK                            x       y       z     vdW  Elec       q    Type
REMARK                         _______ _______ _______ _____ _____    ______ ____
ROOT
ATOM      1  C   UNL     1       4.501  -1.012   1.752  0.00  0.00    +0.000 A 
ATOM      2  N   UNL     1       4.836  -2.233   2.218  0.00  0.00    +0.000 NA
ATOM      3  C   UNL     1       6.118  -2.396   2.610  0.00  0.00    +0.000 A 
ATOM      4  C   UNL     1       7.078  -1.396   2.557  0.00  0.00    +0.000 A 
ATOM      5  C   UNL     1       6.710  -0.139   2.072  0.00  0.00    +0.000 A 
ATOM      6  C   UNL     1       5.389   0.050   1.656  0.00  0.00    +0.000 A 
ENDROOT
BRANCH   1   7
ATOM      7  O   UNL     1       3.208  -0.761   1.334  0.00  0.00    +0.000 OA
BRANCH   7   9
ATOM      8  C   UNL     1       0.954  -1.470   1.025  0.00  0.00    +0.000 C 
ATOM      9  C   UNL     1       2.340  -1.884   1.489  0.00  0.00    +0.000 C 
ENDBRANCH   7   9
ENDBRANCH   1   7
BRANCH   5  10
ATOM     10  C   UNL     1       7.715   0.981   1.982  0.00  0.00    +0.000 C 
BRANCH  10  11
ATOM     11  C   UNL     1       8.632   0.830   0.765  0.00  0.00    +0.000 C 
BRANCH  11  12
ATOM     12  C   UNL     1       9.605   1.979   0.655  0.00  0.00    +0.000 A 
ATOM     13  C   UNL     1      10.772   1.998   1.431  0.00  0.00    +0.000 A 
ATOM     14  C   UNL     1      11.661   3.071   1.344  0.00  0.00    +0.000 A 
ATOM     15  C   UNL     1      11.391   4.133   0.483  0.00  0.00    +0.000 A 
ATOM     16  C   UNL     1      10.232   4.125  -0.290  0.00  0.00    +0.000 A 
ATOM     17  C   UNL     1       9.341   3.054  -0.203  0.00  0.00    +0.000 A 
ENDBRANCH  11  12
ENDBRANCH  10  11
ENDBRANCH   5  10
TORSDOF 5
