REMARK  Name = *****
REMARK  4 active torsions:
REMARK  status: ('A' for Active; 'I' for Inactive)
REMARK    1  A    between atoms: C_4  and  C_7
REMARK    2  A    between atoms: C_8  and  C_9
REMARK    3  A    between atoms: C_10  and  S_16
REMARK    4  A    between atoms: C_11  and  S_15
REMARK                            x       y       z     vdW  Elec       q    Type
REMARK                         _______ _______ _______ _____ _____    ______ ____
ROOT
ATOM      1  C   UNL     1       5.542   0.233  -0.478  0.00  0.00    +0.000 A 
ATOM      2  C   UNL     1       6.336  -0.936  -0.479  0.00  0.00    +0.000 A 
ATOM      3  C   UNL     1       7.739  -0.805  -0.603  0.00  0.00    +0.000 A 
ATOM      4  C   UNL     1       8.316   0.470  -0.709  0.00  0.00    +0.000 A 
ATOM      5  C   UNL     1       7.522   1.614  -0.700  0.00  0.00    +0.000 A 
ATOM      6  C   UNL     1       6.140   1.495  -0.586  0.00  0.00    +0.000 A 
ENDROOT
BRANCH   1   8
ATOM      7  C   UNL     1       2.912   0.152  -0.283  0.00  0.00    +0.000 C 
ATOM      8  C   UNL     1       4.110   0.191  -0.372  0.00  0.00    +0.000 C 
BRANCH   7  12
ATOM      9  C   UNL     1      -1.295  -0.029   0.027  0.00  0.00    +0.000 A 
ATOM     10  C   UNL     1      -0.638   1.192   0.176  0.00  0.00    +0.000 A 
ATOM     11  C   UNL     1       0.754   1.254   0.074  0.00  0.00    +0.000 A 
ATOM     12  C   UNL     1       1.488   0.092  -0.179  0.00  0.00    +0.000 A 
ATOM     13  C   UNL     1       0.827  -1.130  -0.329  0.00  0.00    +0.000 A 
ATOM     14  C   UNL     1      -0.564  -1.189  -0.226  0.00  0.00    +0.000 A 
ENDBRANCH   7  12
ENDBRANCH   1   8
BRANCH   3  15
ATOM     15  S   UNL     1       8.876  -2.194  -0.629  0.00  0.00    +0.000 S 
ATOM     16  H   UNL     1       8.177  -3.355  -0.519  0.00  0.00    +0.000 HD
ENDBRANCH   3  15
BRANCH   2  17
ATOM     17  S   UNL     1       5.574  -2.566  -0.343  0.00  0.00    +0.000 S 
ATOM     18  H   UNL     1       4.225  -2.429  -0.235  0.00  0.00    +0.000 HD
ENDBRANCH   2  17
TORSDOF 4
