REMARK  Name = *****
REMARK  4 active torsions:
REMARK  status: ('A' for Active; 'I' for Inactive)
REMARK    1  A    between atoms: C_1  and  C_2
REMARK    2  A    between atoms: C_7  and  N_8
REMARK    3  A    between atoms: N_8  and  O_19
REMARK    4  A    between atoms: C_9  and  C_11
REMARK                            x       y       z     vdW  Elec       q    Type
REMARK                         _______ _______ _______ _____ _____    ______ ____
ROOT
ATOM      1  N   UNL     1       0.986  -2.483  -0.030  0.00  0.00    +0.000 N 
ATOM      2  C   UNL     1       0.493  -3.670  -0.564  0.00  0.00    +0.000 C 
ATOM      3  O   UNL     1      -0.578  -3.848  -1.138  0.00  0.00    +0.000 OA
ENDROOT
BRANCH   2   4
ATOM      4  C   UNL     1       1.361  -4.860  -0.442  0.00  0.00    +0.000 A 
ATOM      5  C   UNL     1       1.566  -5.505   0.783  0.00  0.00    +0.000 A 
ATOM      6  C   UNL     1       2.389  -6.633   0.840  0.00  0.00    +0.000 A 
ATOM      7  C   UNL     1       2.988  -7.114  -0.324  0.00  0.00    +0.000 A 
ATOM      8  C   UNL     1       2.768  -6.486  -1.551  0.00  0.00    +0.000 A 
ATOM      9  C   UNL     1       1.947  -5.360  -1.614  0.00  0.00    +0.000 A 
ATOM     10 CL   UNL     1       4.001  -8.502  -0.250  0.00  0.00    +0.000 Cl
ATOM     11 CL   UNL     1       0.808  -4.984   2.245  0.00  0.00    +0.000 Cl
ENDBRANCH   2   4
BRANCH   1  18
ATOM     12  C   UNL     1       1.798  -0.331   1.937  0.00  0.00    +0.000 C 
ATOM     13  C   UNL     1       0.762  -0.162   0.855  0.00  0.00    +0.000 A 
ATOM     14  C   UNL     1       0.147   1.105   0.762  0.00  0.00    +0.000 A 
ATOM     15  C   UNL     1      -0.881   1.344  -0.144  0.00  0.00    +0.000 A 
ATOM     16  C   UNL     1      -1.314   0.319  -0.971  0.00  0.00    +0.000 A 
ATOM     17  C   UNL     1      -0.704  -0.937  -0.906  0.00  0.00    +0.000 A 
ATOM     18  C   UNL     1       0.355  -1.202  -0.018  0.00  0.00    +0.000 A 
ENDBRANCH   1  18
BRANCH   1  19
ATOM     19  O   UNL     1       2.332  -2.521   0.410  0.00  0.00    +0.000 OA
ATOM     20  H   UNL     1       2.581  -1.653   0.763  0.00  0.00    +0.000 HD
ENDBRANCH   1  19
TORSDOF 3
