REMARK  Name = *****
REMARK  5 active torsions:
REMARK  status: ('A' for Active; 'I' for Inactive)
REMARK    1  A    between atoms: C_1  and  O_2
REMARK    2  A    between atoms: O_2  and  C_3
REMARK    3  A    between atoms: C_6  and  C_9
REMARK    4  A    between atoms: C_9  and  S_11
REMARK    5  A    between atoms: S_11  and  C_12
REMARK                            x       y       z     vdW  Elec       q    Type
REMARK                         _______ _______ _______ _____ _____    ______ ____
ROOT
ATOM      1  C   UNL     1       5.325   2.271   4.545  0.00  0.00    +0.000 C 
ATOM      2  O   UNL     1       6.501   2.083   4.260  0.00  0.00    +0.000 OA
ENDROOT
BRANCH   1   6
ATOM      3  C   UNL     1       2.744   4.142   1.638  0.00  0.00    +0.000 A 
ATOM      4  C   UNL     1       4.059   3.804   1.325  0.00  0.00    +0.000 A 
ATOM      5  C   UNL     1       4.873   3.187   2.285  0.00  0.00    +0.000 A 
ATOM      6  C   UNL     1       4.384   2.896   3.567  0.00  0.00    +0.000 A 
ATOM      7  C   UNL     1       3.059   3.232   3.871  0.00  0.00    +0.000 A 
ATOM      8  C   UNL     1       2.250   3.850   2.910  0.00  0.00    +0.000 A 
BRANCH   3  10
ATOM      9  C   UNL     1       2.312   5.110  -0.490  0.00  0.00    +0.000 C 
ATOM     10  O   UNL     1       1.848   4.752   0.806  0.00  0.00    +0.000 OA
ENDBRANCH   3  10
ENDBRANCH   1   6
BRANCH   1  11
ATOM     11  S   UNL     1       4.716   1.835   6.136  0.00  0.00    +0.000 S 
BRANCH  11  12
ATOM     12  C   UNL     1       5.948   2.706   7.171  0.00  0.00    +0.000 C 
ATOM     13  C   UNL     1       5.687   2.342   8.639  0.00  0.00    +0.000 C 
ATOM     14  C   UNL     1       6.617   3.103   9.583  0.00  0.00    +0.000 C 
ATOM     15  C   UNL     1       6.528   4.610   9.364  0.00  0.00    +0.000 C 
ATOM     16  C   UNL     1       6.795   4.976   7.909  0.00  0.00    +0.000 C 
ATOM     17  C   UNL     1       5.863   4.225   6.960  0.00  0.00    +0.000 C 
ENDBRANCH  11  12
ENDBRANCH   1  11
TORSDOF 4
