REMARK  Name = *****
REMARK  5 active torsions:
REMARK  status: ('A' for Active; 'I' for Inactive)
REMARK    1  A    between atoms: C_1  and  C_2
REMARK    2  A    between atoms: C_5  and  O_8
REMARK    3  A    between atoms: O_8  and  C_9
REMARK    4  A    between atoms: C_10  and  C_11
REMARK    5  A    between atoms: C_11  and  C_12
REMARK                            x       y       z     vdW  Elec       q    Type
REMARK                         _______ _______ _______ _____ _____    ______ ____
ROOT
ATOM      1  C   UNL     1      -4.046   0.951   0.621  0.00  0.00    +0.000 C 
ATOM      2  C   UNL     1      -5.093   1.464  -0.035  0.00  0.00    +0.000 C 
ENDROOT
BRANCH   1   3
ATOM      3  O   UNL     1      -3.561  -0.306   0.342  0.00  0.00    +0.000 OA
BRANCH   3   8
ATOM      4  C   UNL     1       0.487  -2.438   3.689  0.00  0.00    +0.000 C 
ATOM      5  C   UNL     1      -0.580  -1.841   2.819  0.00  0.00    +0.000 A 
ATOM      6  C   UNL     1      -1.839  -1.535   3.353  0.00  0.00    +0.000 A 
ATOM      7  C   UNL     1      -2.844  -1.012   2.537  0.00  0.00    +0.000 A 
ATOM      8  C   UNL     1      -2.589  -0.788   1.184  0.00  0.00    +0.000 A 
ATOM      9  C   UNL     1      -1.355  -1.123   0.633  0.00  0.00    +0.000 A 
ATOM     10  C   UNL     1      -0.351  -1.647   1.450  0.00  0.00    +0.000 A 
ENDBRANCH   3   8
ENDBRANCH   1   3
BRANCH   2  11
ATOM     11  C   UNL     1      -5.653   2.832   0.219  0.00  0.00    +0.000 C 
BRANCH  11  12
ATOM     12  C   UNL     1      -7.103   2.793   0.638  0.00  0.00    +0.000 A 
ATOM     13  C   UNL     1      -7.453   2.443   1.951  0.00  0.00    +0.000 A 
ATOM     14  C   UNL     1      -8.793   2.396   2.337  0.00  0.00    +0.000 A 
ATOM     15  C   UNL     1      -9.796   2.693   1.417  0.00  0.00    +0.000 A 
ATOM     16  C   UNL     1      -9.461   3.036   0.108  0.00  0.00    +0.000 A 
ATOM     17  C   UNL     1      -8.121   3.083  -0.281  0.00  0.00    +0.000 A 
ENDBRANCH  11  12
ENDBRANCH   2  11
TORSDOF 4
