REMARK  Name = *****
REMARK  4 active torsions:
REMARK  status: ('A' for Active; 'I' for Inactive)
REMARK    1  A    between atoms: C_1  and  C_2
REMARK    2  A    between atoms: C_7  and  O_8
REMARK    3  A    between atoms: O_8  and  C_9
REMARK    4  A    between atoms: C_9  and  C_11
REMARK                            x       y       z     vdW  Elec       q    Type
REMARK                         _______ _______ _______ _____ _____    ______ ____
ROOT
ATOM      1  C   UNL     1       2.082  -2.587  -0.143  0.00  0.00    +0.000 C 
ATOM      2  O   UNL     1       2.307  -2.274   1.016  0.00  0.00    +0.000 OA
ENDROOT
BRANCH   1   3
ATOM      3  C   UNL     1       2.790  -3.705  -0.831  0.00  0.00    +0.000 A 
ATOM      4  C   UNL     1       3.790  -4.386  -0.121  0.00  0.00    +0.000 A 
ATOM      5  C   UNL     1       4.487  -5.442  -0.717  0.00  0.00    +0.000 A 
ATOM      6  C   UNL     1       4.185  -5.820  -2.023  0.00  0.00    +0.000 A 
ATOM      7  C   UNL     1       3.193  -5.153  -2.739  0.00  0.00    +0.000 A 
ATOM      8  C   UNL     1       2.494  -4.095  -2.146  0.00  0.00    +0.000 A 
ATOM      9 CL   UNL     1       5.041  -7.119  -2.757  0.00  0.00    +0.000 Cl
ENDBRANCH   1   3
BRANCH   1  10
ATOM     10  O   UNL     1       1.187  -2.000  -1.015  0.00  0.00    +0.000 OA
BRANCH  10  17
ATOM     11  C   UNL     1       2.219   0.669  -1.364  0.00  0.00    +0.000 C 
ATOM     12  C   UNL     1       0.938   0.381  -0.639  0.00  0.00    +0.000 A 
ATOM     13  C   UNL     1       0.184   1.425  -0.089  0.00  0.00    +0.000 A 
ATOM     14  C   UNL     1      -1.004   1.160   0.599  0.00  0.00    +0.000 A 
ATOM     15  C   UNL     1      -1.453  -0.152   0.749  0.00  0.00    +0.000 A 
ATOM     16  C   UNL     1      -0.711  -1.204   0.218  0.00  0.00    +0.000 A 
ATOM     17  C   UNL     1       0.483  -0.931  -0.450  0.00  0.00    +0.000 A 
ENDBRANCH  10  17
ENDBRANCH   1  10
TORSDOF 3
