REMARK  Name = *****
REMARK  5 active torsions:
REMARK  status: ('A' for Active; 'I' for Inactive)
REMARK    1  A    between atoms: C_1  and  C_2
REMARK    2  A    between atoms: C_7  and  S_8
REMARK    3  A    between atoms: S_8  and  C_9
REMARK    4  A    between atoms: C_9  and  C_10
REMARK    5  A    between atoms: C_10  and  C_11
REMARK                            x       y       z     vdW  Elec       q    Type
REMARK                         _______ _______ _______ _____ _____    ______ ____
ROOT
ATOM      1  S   UNL     1       1.423  -2.257   1.028  0.00  0.00    +0.000 S 
ENDROOT
BRANCH   1   8
ATOM      2  C   UNL     1      -0.312  -0.757  -1.183  0.00  0.00    +0.000 C 
ATOM      3  C   UNL     1       0.456   0.082  -0.198  0.00  0.00    +0.000 A 
ATOM      4  C   UNL     1       0.377   1.482  -0.292  0.00  0.00    +0.000 A 
ATOM      5  C   UNL     1       1.059   2.301   0.609  0.00  0.00    +0.000 A 
ATOM      6  C   UNL     1       1.827   1.733   1.620  0.00  0.00    +0.000 A 
ATOM      7  C   UNL     1       1.917   0.345   1.727  0.00  0.00    +0.000 A 
ATOM      8  C   UNL     1       1.244  -0.487   0.821  0.00  0.00    +0.000 A 
ENDBRANCH   1   8
BRANCH   1   9
ATOM      9  C   UNL     1       2.902  -2.500  -0.017  0.00  0.00    +0.000 C 
BRANCH   9  10
ATOM     10  C   UNL     1       3.301  -3.977  -0.037  0.00  0.00    +0.000 C 
BRANCH  10  11
ATOM     11  C   UNL     1       4.500  -4.339  -0.891  0.00  0.00    +0.000 A 
ATOM     12  C   UNL     1       5.234  -3.410  -1.641  0.00  0.00    +0.000 A 
ATOM     13  C   UNL     1       6.327  -3.819  -2.412  0.00  0.00    +0.000 A 
ATOM     14  C   UNL     1       6.701  -5.160  -2.443  0.00  0.00    +0.000 A 
ATOM     15  C   UNL     1       5.985  -6.095  -1.703  0.00  0.00    +0.000 A 
ATOM     16  C   UNL     1       4.893  -5.688  -0.934  0.00  0.00    +0.000 A 
ENDBRANCH  10  11
ENDBRANCH   9  10
ENDBRANCH   1   9
TORSDOF 4
