REMARK  Name = *****
REMARK  3 active torsions:
REMARK  status: ('A' for Active; 'I' for Inactive)
REMARK    1  A    between atoms: C_4  and  C_7
REMARK    2  A    between atoms: C_7  and  O_8
REMARK    3  A    between atoms: O_8  and  C_9
REMARK                            x       y       z     vdW  Elec       q    Type
REMARK                         _______ _______ _______ _____ _____    ______ ____
ROOT
ATOM      1  O   UNL     1      -3.601  -0.770  -0.092  0.00  0.00    +0.000 OA
ENDROOT
BRANCH   1   2
ATOM      2  C   UNL     1      -4.958  -0.707  -0.265  0.00  0.00    +0.000 A 
ATOM      3  C   UNL     1      -5.735   0.444  -0.445  0.00  0.00    +0.000 A 
ATOM      4  C   UNL     1      -7.119   0.360  -0.610  0.00  0.00    +0.000 A 
ATOM      5  C   UNL     1      -7.745  -0.884  -0.594  0.00  0.00    +0.000 A 
ATOM      6  C   UNL     1      -6.977  -2.029  -0.413  0.00  0.00    +0.000 A 
ATOM      7  C   UNL     1      -5.597  -1.950  -0.248  0.00  0.00    +0.000 A 
ATOM      8  F   UNL     1      -7.575  -3.226  -0.397  0.00  0.00    +0.000 F 
ATOM      9  F   UNL     1      -5.185   1.666  -0.465  0.00  0.00    +0.000 F 
ENDBRANCH   1   2
BRANCH   1  10
ATOM     10  C   UNL     1      -2.875   0.458  -0.173  0.00  0.00    +0.000 C 
BRANCH  10  14
ATOM     11  C   UNL     1       1.396  -0.137   0.127  0.00  0.00    +0.000 A 
ATOM     12  C   UNL     1       0.593  -1.156  -0.382  0.00  0.00    +0.000 A 
ATOM     13  C   UNL     1      -0.790  -0.980  -0.469  0.00  0.00    +0.000 A 
ATOM     14  C   UNL     1      -1.387   0.213  -0.036  0.00  0.00    +0.000 A 
ATOM     15  C   UNL     1      -0.563   1.234   0.464  0.00  0.00    +0.000 A 
ATOM     16  C   UNL     1       0.819   1.058   0.549  0.00  0.00    +0.000 A 
ENDBRANCH  10  14
ENDBRANCH   1  10
TORSDOF 3
