REMARK  Name = *****
REMARK  3 active torsions:
REMARK  status: ('A' for Active; 'I' for Inactive)
REMARK    1  A    between atoms: C_4  and  C_7
REMARK    2  A    between atoms: C_7  and  N_9
REMARK    3  A    between atoms: N_9  and  C_10
REMARK                            x       y       z     vdW  Elec       q    Type
REMARK                         _______ _______ _______ _____ _____    ______ ____
ROOT
ATOM      1  C   UNL     1       0.988  -2.636  -0.797  0.00  0.00    +0.000 C 
ATOM      2  S   UNL     1       0.291  -3.454  -2.082  0.00  0.00    +0.000 S 
ENDROOT
BRANCH   1   6
ATOM      3  C   UNL     1      -0.300   1.241   0.731  0.00  0.00    +0.000 C 
ATOM      4  C   UNL     1      -1.383   0.320   0.176  0.00  0.00    +0.000 C 
ATOM      5  C   UNL     1      -0.909  -1.136   0.135  0.00  0.00    +0.000 C 
ATOM      6  C   UNL     1       0.498  -1.275  -0.380  0.00  0.00    +0.000 C 
ATOM      7  C   UNL     1       1.344  -0.235  -0.502  0.00  0.00    +0.000 C 
ATOM      8  C   UNL     1       0.977   1.166  -0.108  0.00  0.00    +0.000 C 
ENDBRANCH   1   6
BRANCH   1   9
ATOM      9  N   UNL     1       2.001  -3.047   0.063  0.00  0.00    +0.000 N 
ATOM     10  H   UNL     1       2.154  -2.427   0.812  0.00  0.00    +0.000 HD
BRANCH   9  11
ATOM     11  C   UNL     1       2.857  -4.173   0.081  0.00  0.00    +0.000 A 
ATOM     12  C   UNL     1       2.998  -5.108  -0.943  0.00  0.00    +0.000 A 
ATOM     13  C   UNL     1       3.892  -6.179  -0.818  0.00  0.00    +0.000 A 
ATOM     14  C   UNL     1       4.662  -6.325   0.332  0.00  0.00    +0.000 A 
ATOM     15  C   UNL     1       4.544  -5.394   1.357  0.00  0.00    +0.000 A 
ATOM     16  C   UNL     1       3.652  -4.326   1.229  0.00  0.00    +0.000 A 
ENDBRANCH   9  11
ENDBRANCH   1   9
TORSDOF 3
