REMARK  Name = *****
REMARK  3 active torsions:
REMARK  status: ('A' for Active; 'I' for Inactive)
REMARK    1  A    between atoms: C_4  and  C_7
REMARK    2  A    between atoms: C_7  and  C_10
REMARK    3  A    between atoms: C_10  and  C_12
REMARK                            x       y       z     vdW  Elec       q    Type
REMARK                         _______ _______ _______ _____ _____    ______ ____
ROOT
ATOM      1  C   UNL     1      -2.881   0.480  -0.286  0.00  0.00    +0.000 C 
ATOM      2  C   UNL     1      -3.343   1.682  -0.485  0.00  0.00    +0.000 C 
ATOM      3  O   UNL     1      -3.754   2.772  -0.651  0.00  0.00    +0.000 OA
ENDROOT
BRANCH   1   7
ATOM      4  C   UNL     1       1.348  -0.226   0.181  0.00  0.00    +0.000 A 
ATOM      5  C   UNL     1       0.428  -1.196   0.565  0.00  0.00    +0.000 A 
ATOM      6  C   UNL     1      -0.943  -0.967   0.407  0.00  0.00    +0.000 A 
ATOM      7  C   UNL     1      -1.422   0.235  -0.142  0.00  0.00    +0.000 A 
ATOM      8  C   UNL     1      -0.471   1.203  -0.521  0.00  0.00    +0.000 A 
ATOM      9  C   UNL     1       0.899   0.973  -0.362  0.00  0.00    +0.000 A 
ENDBRANCH   1   7
BRANCH   1  10
ATOM     10  C   UNL     1      -3.869  -0.639  -0.364  0.00  0.00    +0.000 C 
ATOM     11  O   UNL     1      -3.591  -1.698  -0.921  0.00  0.00    +0.000 OA
BRANCH  10  12
ATOM     12  C   UNL     1      -5.220  -0.472   0.238  0.00  0.00    +0.000 A 
ATOM     13  C   UNL     1      -6.302  -1.109  -0.383  0.00  0.00    +0.000 A 
ATOM     14  C   UNL     1      -7.585  -0.994   0.153  0.00  0.00    +0.000 A 
ATOM     15  C   UNL     1      -7.789  -0.253   1.317  0.00  0.00    +0.000 A 
ATOM     16  C   UNL     1      -6.712   0.365   1.951  0.00  0.00    +0.000 A 
ATOM     17  C   UNL     1      -5.425   0.253   1.419  0.00  0.00    +0.000 A 
ENDBRANCH  10  12
ENDBRANCH   1  10
TORSDOF 3
