REMARK  Name = *****
REMARK  2 active torsions:
REMARK  status: ('A' for Active; 'I' for Inactive)
REMARK    1  A    between atoms: C_6  and  C_7
REMARK    2  A    between atoms: C_8  and  C_9
REMARK                            x       y       z     vdW  Elec       q    Type
REMARK                         _______ _______ _______ _____ _____    ______ ____
ROOT
ATOM      1  C   UNL     1       3.869   0.058   0.034  0.00  0.00    +0.000 C 
ATOM      2  C   UNL     1       4.654   1.148   0.021  0.00  0.00    +0.000 C 
ATOM      3  F   UNL     1       4.085   2.377  -0.011  0.00  0.00    +0.000 F 
ENDROOT
BRANCH   1   9
ATOM      4  C   UNL     1       1.638   1.012   0.711  0.00  0.00    +0.000 A 
ATOM      5  C   UNL     1       0.241   0.968   0.681  0.00  0.00    +0.000 A 
ATOM      6  C   UNL     1      -0.405  -0.024  -0.051  0.00  0.00    +0.000 A 
ATOM      7  C   UNL     1       0.334  -0.974  -0.750  0.00  0.00    +0.000 A 
ATOM      8  C   UNL     1       1.731  -0.929  -0.719  0.00  0.00    +0.000 A 
ATOM      9  C   UNL     1       2.399   0.074  -0.000  0.00  0.00    +0.000 A 
ATOM     10 CL   UNL     1      -2.124  -0.080  -0.087  0.00  0.00    +0.000 Cl
ENDBRANCH   1   9
BRANCH   2  11
ATOM     11  C   UNL     1       6.128   1.122   0.066  0.00  0.00    +0.000 A 
ATOM     12  C   UNL     1       6.890   0.051  -0.431  0.00  0.00    +0.000 A 
ATOM     13  C   UNL     1       8.287   0.085  -0.377  0.00  0.00    +0.000 A 
ATOM     14  C   UNL     1       8.927   1.191   0.165  0.00  0.00    +0.000 A 
ATOM     15  C   UNL     1       8.199   2.268   0.651  0.00  0.00    +0.000 A 
ATOM     16  C   UNL     1       6.803   2.235   0.596  0.00  0.00    +0.000 A 
ATOM     17  F   UNL     1      10.265   1.221   0.214  0.00  0.00    +0.000 F 
ENDBRANCH   2  11
TORSDOF 2
