REMARK  Name = *****
REMARK  3 active torsions:
REMARK  status: ('A' for Active; 'I' for Inactive)
REMARK    1  A    between atoms: C_4  and  C_7
REMARK    2  A    between atoms: C_7  and  C_8
REMARK    3  A    between atoms: C_8  and  C_9
REMARK                            x       y       z     vdW  Elec       q    Type
REMARK                         _______ _______ _______ _____ _____    ______ ____
ROOT
ATOM      1  C   UNL     1      -2.609   0.527  -0.351  0.00  0.00    +0.000 C 
ATOM      2 CL   UNL     1      -3.654  -0.912   0.018  0.00  0.00    +0.000 Cl
ENDROOT
BRANCH   1   6
ATOM      3  C   UNL     1       1.475  -0.444   0.797  0.00  0.00    +0.000 A 
ATOM      4  C   UNL     1       1.183  -0.197  -0.541  0.00  0.00    +0.000 A 
ATOM      5  C   UNL     1      -0.123   0.109  -0.936  0.00  0.00    +0.000 A 
ATOM      6  C   UNL     1      -1.166   0.173  -0.001  0.00  0.00    +0.000 A 
ATOM      7  C   UNL     1      -0.845  -0.074   1.351  0.00  0.00    +0.000 A 
ATOM      8  C   UNL     1       0.460  -0.382   1.745  0.00  0.00    +0.000 A 
ENDBRANCH   1   6
BRANCH   1   9
ATOM      9  C   UNL     1      -2.990   1.107  -1.747  0.00  0.00    +0.000 C 
ATOM     10 CL   UNL     1      -2.733  -0.094  -3.079  0.00  0.00    +0.000 Cl
BRANCH   9  11
ATOM     11  C   UNL     1      -2.427   2.472  -2.144  0.00  0.00    +0.000 A 
ATOM     12  C   UNL     1      -2.795   3.038  -3.382  0.00  0.00    +0.000 A 
ATOM     13  C   UNL     1      -2.329   4.294  -3.778  0.00  0.00    +0.000 A 
ATOM     14  C   UNL     1      -1.497   5.023  -2.937  0.00  0.00    +0.000 A 
ATOM     15  C   UNL     1      -1.138   4.499  -1.700  0.00  0.00    +0.000 A 
ATOM     16  C   UNL     1      -1.604   3.240  -1.304  0.00  0.00    +0.000 A 
ENDBRANCH   9  11
ENDBRANCH   1   9
TORSDOF 3
