REMARK  Name = *****
REMARK  2 active torsions:
REMARK  status: ('A' for Active; 'I' for Inactive)
REMARK    1  A    between atoms: C_5  and  C_7
REMARK    2  A    between atoms: N_8  and  C_9
REMARK                            x       y       z     vdW  Elec       q    Type
REMARK                         _______ _______ _______ _____ _____    ______ ____
ROOT
ATOM      1  C   UNL     1       1.091  -2.392   0.147  0.00  0.00    +0.000 C 
ATOM      2  N   UNL     1       2.286  -2.492  -0.347  0.00  0.00    +0.000 NA
ENDROOT
BRANCH   1   7
ATOM      3  C   UNL     1       0.106   1.177  -0.591  0.00  0.00    +0.000 A 
ATOM      4  C   UNL     1      -1.182   1.210  -0.051  0.00  0.00    +0.000 A 
ATOM      5  C   UNL     1      -1.717   0.069   0.548  0.00  0.00    +0.000 A 
ATOM      6  C   UNL     1      -0.961  -1.099   0.605  0.00  0.00    +0.000 A 
ATOM      7  C   UNL     1       0.324  -1.139   0.068  0.00  0.00    +0.000 A 
ATOM      8  C   UNL     1       0.862   0.003  -0.533  0.00  0.00    +0.000 A 
ATOM      9  F   UNL     1      -1.494  -2.185   1.184  0.00  0.00    +0.000 F 
ENDBRANCH   1   7
BRANCH   2  10
ATOM     10  C   UNL     1       2.905  -3.740  -0.205  0.00  0.00    +0.000 A 
ATOM     11  C   UNL     1       2.684  -4.753  -1.145  0.00  0.00    +0.000 A 
ATOM     12  C   UNL     1       3.317  -5.990  -1.010  0.00  0.00    +0.000 A 
ATOM     13  C   UNL     1       4.177  -6.204   0.061  0.00  0.00    +0.000 A 
ATOM     14  C   UNL     1       4.419  -5.204   0.996  0.00  0.00    +0.000 A 
ATOM     15  C   UNL     1       3.785  -3.968   0.858  0.00  0.00    +0.000 A 
ATOM     16  F   UNL     1       4.786  -7.390   0.191  0.00  0.00    +0.000 F 
ENDBRANCH   2  10
TORSDOF 2
