REMARK  Name = *****
REMARK  1 active torsions:
REMARK  status: ('A' for Active; 'I' for Inactive)
REMARK    1  A    between atoms: C_3  and  C_8
REMARK                            x       y       z     vdW  Elec       q    Type
REMARK                         _______ _______ _______ _____ _____    ______ ____
ROOT
ATOM      1  C   UNL     1      -2.839  -0.713   0.074  0.00  0.00    +0.000 A 
ATOM      2  C   UNL     1      -3.654  -0.210  -0.948  0.00  0.00    +0.000 A 
ATOM      3  C   UNL     1      -5.032  -0.483  -0.971  0.00  0.00    +0.000 A 
ATOM      4  C   UNL     1      -5.859   0.008  -1.994  0.00  0.00    +0.000 A 
ATOM      5  C   UNL     1      -7.227  -0.272  -2.003  0.00  0.00    +0.000 A 
ATOM      6  C   UNL     1      -7.785  -1.045  -0.989  0.00  0.00    +0.000 A 
ATOM      7  C   UNL     1      -6.977  -1.541   0.035  0.00  0.00    +0.000 A 
ATOM      8  C   UNL     1      -5.599  -1.270   0.057  0.00  0.00    +0.000 A 
ATOM      9  C   UNL     1      -4.774  -1.764   1.080  0.00  0.00    +0.000 A 
ATOM     10  C   UNL     1      -3.405  -1.488   1.088  0.00  0.00    +0.000 A 
ENDROOT
BRANCH   1  13
ATOM     11  C   UNL     1       0.498   1.091   0.713  0.00  0.00    +0.000 C 
ATOM     12  C   UNL     1      -0.961   0.739   0.619  0.00  0.00    +0.000 C 
ATOM     13  C   UNL     1      -1.402  -0.418   0.092  0.00  0.00    +0.000 C 
ATOM     14  C   UNL     1      -0.489  -1.462  -0.497  0.00  0.00    +0.000 C 
ATOM     15  S   UNL     1       1.126  -0.733  -0.976  0.00  0.00    +0.000 S 
ATOM     16  O   UNL     1       2.116  -1.854  -1.078  0.00  0.00    +0.000 OA
ATOM     17  O   UNL     1       1.342  -0.031   0.461  0.00  0.00    +0.000 OA
ENDBRANCH   1  13
TORSDOF 1
