REMARK  Name = *****
REMARK  5 active torsions:
REMARK  status: ('A' for Active; 'I' for Inactive)
REMARK    1  A    between atoms: C_1  and  C_2
REMARK    2  A    between atoms: C_5  and  C_17
REMARK    3  A    between atoms: C_6  and  C_8
REMARK    4  A    between atoms: C_6  and  C_9
REMARK    5  A    between atoms: C_10  and  C_11
REMARK                            x       y       z     vdW  Elec       q    Type
REMARK                         _______ _______ _______ _____ _____    ______ ____
ROOT
ATOM      1  C   UNL     1       0.971   0.304   0.636  0.00  0.00    +0.000 C 
ATOM      2  C   UNL     1       2.434   0.272   0.311  0.00  0.00    +0.000 C 
ATOM      3  C   UNL     1       3.219   1.358   0.404  0.00  0.00    +0.000 C 
ATOM      4  C   UNL     1       4.614   1.312   0.042  0.00  0.00    +0.000 C 
ATOM      5  C   UNL     1       5.252   0.146  -0.156  0.00  0.00    +0.000 C 
ATOM      6  C   UNL     1       4.552  -1.206  -0.046  0.00  0.00    +0.000 C 
ATOM      7  C   UNL     1       2.994  -1.048  -0.176  0.00  0.00    +0.000 C 
ATOM      8  C   UNL     1       4.865  -1.765   1.364  0.00  0.00    +0.000 C 
ENDROOT
BRANCH   6   9
ATOM      9  C   UNL     1       4.996  -2.131  -1.182  0.00  0.00    +0.000 C 
ATOM     10  C   UNL     1       5.589  -3.333  -1.078  0.00  0.00    +0.000 C 
BRANCH  10  11
ATOM     11  C   UNL     1       5.981  -4.151  -2.236  0.00  0.00    +0.000 A 
ATOM     12  C   UNL     1       6.556  -3.593  -3.385  0.00  0.00    +0.000 A 
ATOM     13  C   UNL     1       6.945  -4.407  -4.451  0.00  0.00    +0.000 A 
ATOM     14  C   UNL     1       6.774  -5.788  -4.375  0.00  0.00    +0.000 A 
ATOM     15  C   UNL     1       6.219  -6.356  -3.231  0.00  0.00    +0.000 A 
ATOM     16  C   UNL     1       5.829  -5.542  -2.164  0.00  0.00    +0.000 A 
ENDBRANCH  10  11
ENDBRANCH   6   9
BRANCH   5  17
ATOM     17  C   UNL     1       6.712   0.201  -0.444  0.00  0.00    +0.000 C 
ATOM     18  O   UNL     1       7.320   1.239  -0.679  0.00  0.00    +0.000 OA
ENDBRANCH   5  17
TORSDOF 3
