REMARK  Name = *****
REMARK  5 active torsions:
REMARK  status: ('A' for Active; 'I' for Inactive)
REMARK    1  A    between atoms: C_1  and  C_2
REMARK    2  A    between atoms: C_2  and  C_3
REMARK    3  A    between atoms: C_8  and  O_9
REMARK    4  A    between atoms: O_9  and  C_10
REMARK    5  A    between atoms: C_10  and  C_12
REMARK                            x       y       z     vdW  Elec       q    Type
REMARK                         _______ _______ _______ _____ _____    ______ ____
ROOT
ATOM      1  C   UNL     1       2.895  -1.104  -0.985  0.00  0.00    +0.000 A 
ATOM      2  C   UNL     1       4.173  -0.740  -1.434  0.00  0.00    +0.000 A 
ATOM      3  C   UNL     1       4.942  -1.624  -2.196  0.00  0.00    +0.000 A 
ATOM      4  C   UNL     1       4.442  -2.883  -2.527  0.00  0.00    +0.000 A 
ATOM      5  C   UNL     1       3.175  -3.264  -2.092  0.00  0.00    +0.000 A 
ATOM      6  C   UNL     1       2.422  -2.382  -1.312  0.00  0.00    +0.000 A 
ENDROOT
BRANCH   1   8
ATOM      7  C   UNL     1       0.985   0.527  -1.022  0.00  0.00    +0.000 C 
ATOM      8  C   UNL     1       2.070  -0.130  -0.180  0.00  0.00    +0.000 C 
ATOM      9  F   UNL     1       2.825   0.879   0.355  0.00  0.00    +0.000 F 
ENDBRANCH   1   8
BRANCH   6  10
ATOM     10  O   UNL     1       1.125  -2.752  -0.928  0.00  0.00    +0.000 OA
BRANCH  10  11
ATOM     11  C   UNL     1       1.070  -3.721   0.057  0.00  0.00    +0.000 C 
ATOM     12  O   UNL     1       2.013  -4.244   0.631  0.00  0.00    +0.000 OA
BRANCH  11  13
ATOM     13  C   UNL     1      -0.352  -4.048   0.359  0.00  0.00    +0.000 A 
ATOM     14  C   UNL     1      -0.611  -4.981   1.373  0.00  0.00    +0.000 A 
ATOM     15  C   UNL     1      -1.925  -5.324   1.698  0.00  0.00    +0.000 A 
ATOM     16  C   UNL     1      -2.988  -4.738   1.013  0.00  0.00    +0.000 A 
ATOM     17  C   UNL     1      -2.740  -3.810   0.002  0.00  0.00    +0.000 A 
ATOM     18  C   UNL     1      -1.427  -3.464  -0.327  0.00  0.00    +0.000 A 
ENDBRANCH  11  13
ENDBRANCH  10  11
ENDBRANCH   6  10
TORSDOF 4
