REMARK  Name = *****
REMARK  1 active torsions:
REMARK  status: ('A' for Active; 'I' for Inactive)
REMARK    1  A    between atoms: C_4  and  P_7
REMARK                            x       y       z     vdW  Elec       q    Type
REMARK                         _______ _______ _______ _____ _____    ______ ____
ROOT
ATOM      1  P   UNL     1      -3.210   0.563  -0.364  0.00  0.00    +0.000 P 
ATOM      2  S   UNL     1      -3.753   1.223   1.542  0.00  0.00    +0.000 S 
ATOM      3  C   UNL     1      -3.363  -0.030   2.691  0.00  0.00    +0.000 C 
ATOM      4  O   UNL     1      -2.990   0.310   3.810  0.00  0.00    +0.000 OA
ATOM      5  C   UNL     1      -3.461  -1.484   2.357  0.00  0.00    +0.000 A 
ATOM      6  C   UNL     1      -3.129  -2.356   3.421  0.00  0.00    +0.000 A 
ATOM      7  C   UNL     1      -3.176  -3.744   3.283  0.00  0.00    +0.000 A 
ATOM      8  C   UNL     1      -3.559  -4.298   2.073  0.00  0.00    +0.000 A 
ATOM      9  C   UNL     1      -3.887  -3.460   1.009  0.00  0.00    +0.000 A 
ATOM     10  C   UNL     1      -3.837  -2.054   1.129  0.00  0.00    +0.000 A 
ATOM     11  S   UNL     1      -4.304  -1.170  -0.370  0.00  0.00    +0.000 S 
ATOM     12  O   UNL     1      -5.685  -0.656  -0.095  0.00  0.00    +0.000 OA
ENDROOT
BRANCH   1  16
ATOM     13  C   UNL     1       1.221  -0.825  -0.030  0.00  0.00    +0.000 A 
ATOM     14  C   UNL     1       0.350  -1.461  -0.908  0.00  0.00    +0.000 A 
ATOM     15  C   UNL     1      -0.980  -1.040  -1.005  0.00  0.00    +0.000 A 
ATOM     16  C   UNL     1      -1.470   0.013  -0.211  0.00  0.00    +0.000 A 
ATOM     17  C   UNL     1      -0.562   0.661   0.643  0.00  0.00    +0.000 A 
ATOM     18  C   UNL     1       0.768   0.240   0.741  0.00  0.00    +0.000 A 
ENDBRANCH   1  16
TORSDOF 1
