REMARK  Name = *****
REMARK  2 active torsions:
REMARK  status: ('A' for Active; 'I' for Inactive)
REMARK    1  A    between atoms: C_5  and  C_7
REMARK    2  A    between atoms: C_8  and  C_9
REMARK                            x       y       z     vdW  Elec       q    Type
REMARK                         _______ _______ _______ _____ _____    ______ ____
ROOT
ATOM      1  C   UNL     1       5.511   0.342  -0.523  0.00  0.00    +0.000 A 
ATOM      2  C   UNL     1       6.296  -0.810  -0.598  0.00  0.00    +0.000 A 
ATOM      3  C   UNL     1       7.678  -0.717  -0.731  0.00  0.00    +0.000 A 
ATOM      4  C   UNL     1       8.289   0.528  -0.790  0.00  0.00    +0.000 A 
ATOM      5  C   UNL     1       7.519   1.680  -0.715  0.00  0.00    +0.000 A 
ATOM      6  C   UNL     1       6.137   1.589  -0.582  0.00  0.00    +0.000 A 
ATOM      7  F   UNL     1       5.412   2.716  -0.512  0.00  0.00    +0.000 F 
ATOM      8  F   UNL     1       8.109   2.883  -0.772  0.00  0.00    +0.000 F 
ATOM      9  F   UNL     1       9.620   0.616  -0.918  0.00  0.00    +0.000 F 
ATOM     10  F   UNL     1       8.419  -1.832  -0.803  0.00  0.00    +0.000 F 
ATOM     11  F   UNL     1       5.723  -2.023  -0.544  0.00  0.00    +0.000 F 
ENDROOT
BRANCH   1  13
ATOM     12  C   UNL     1       2.898   0.150  -0.277  0.00  0.00    +0.000 C 
ATOM     13  C   UNL     1       4.091   0.242  -0.388  0.00  0.00    +0.000 C 
BRANCH  12  18
ATOM     14  C   UNL     1      -0.523  -1.241   0.042  0.00  0.00    +0.000 A 
ATOM     15  C   UNL     1      -1.233  -0.045   0.094  0.00  0.00    +0.000 A 
ATOM     16  C   UNL     1      -0.524   1.144   0.020  0.00  0.00    +0.000 A 
ATOM     17  N   UNL     1       0.820   1.212  -0.100  0.00  0.00    +0.000 NA
ATOM     18  C   UNL     1       1.481   0.036  -0.148  0.00  0.00    +0.000 A 
ATOM     19  C   UNL     1       0.863  -1.205  -0.081  0.00  0.00    +0.000 A 
ENDBRANCH  12  18
ENDBRANCH   1  13
TORSDOF 2
