REMARK  Name = *****
REMARK  3 active torsions:
REMARK  status: ('A' for Active; 'I' for Inactive)
REMARK    1  A    between atoms: C_1  and  C_2
REMARK    2  A    between atoms: C_3  and  C_9
REMARK    3  A    between atoms: C_10  and  C_11
REMARK                            x       y       z     vdW  Elec       q    Type
REMARK                         _______ _______ _______ _____ _____    ______ ____
ROOT
ATOM      1  C   UNL     1       2.699   0.526  -1.479  0.00  0.00    +0.000 C 
ATOM      2  C   UNL     1       1.472   0.268  -0.646  0.00  0.00    +0.000 A 
ATOM      3  C   UNL     1       1.174  -1.018  -0.145  0.00  0.00    +0.000 A 
ATOM      4  C   UNL     1       0.015  -1.206   0.622  0.00  0.00    +0.000 A 
ATOM      5  C   UNL     1      -0.825  -0.133   0.893  0.00  0.00    +0.000 A 
ATOM      6  C   UNL     1      -0.542   1.137   0.409  0.00  0.00    +0.000 A 
ATOM      7  C   UNL     1       0.603   1.337  -0.361  0.00  0.00    +0.000 A 
ATOM      8  F   UNL     1      -1.928  -0.327   1.627  0.00  0.00    +0.000 F 
ENDROOT
BRANCH   3   9
ATOM      9  C   UNL     1       2.034  -2.172  -0.444  0.00  0.00    +0.000 C 
ATOM     10  C   UNL     1       2.576  -2.935   0.518  0.00  0.00    +0.000 C 
BRANCH  10  11
ATOM     11  C   UNL     1       3.456  -4.080   0.247  0.00  0.00    +0.000 A 
ATOM     12  C   UNL     1       3.202  -4.986  -0.791  0.00  0.00    +0.000 A 
ATOM     13  C   UNL     1       4.045  -6.081  -0.999  0.00  0.00    +0.000 A 
ATOM     14  C   UNL     1       5.143  -6.286  -0.167  0.00  0.00    +0.000 A 
ATOM     15  C   UNL     1       5.397  -5.399   0.878  0.00  0.00    +0.000 A 
ATOM     16  C   UNL     1       4.554  -4.305   1.087  0.00  0.00    +0.000 A 
ENDBRANCH  10  11
ENDBRANCH   3   9
TORSDOF 2
