REMARK  Name = *****
REMARK  6 active torsions:
REMARK  status: ('A' for Active; 'I' for Inactive)
REMARK    1  A    between atoms: C_1  and  C_2
REMARK    2  A    between atoms: C_3  and  C_18
REMARK    3  A    between atoms: C_4  and  O_9
REMARK    4  A    between atoms: C_5  and  C_8
REMARK    5  A    between atoms: O_9  and  C_10
REMARK    6  A    between atoms: C_10  and  C_12
REMARK                            x       y       z     vdW  Elec       q    Type
REMARK                         _______ _______ _______ _____ _____    ______ ____
ROOT
ATOM      1  C   UNL     1      -2.537  -0.429  -0.486  0.00  0.00    +0.000 C 
ATOM      2  C   UNL     1      -1.054  -0.438  -0.233  0.00  0.00    +0.000 A 
ATOM      3  C   UNL     1      -0.360   0.726   0.159  0.00  0.00    +0.000 A 
ATOM      4  C   UNL     1       1.035   0.644   0.334  0.00  0.00    +0.000 A 
ATOM      5  C   UNL     1       1.739  -0.565   0.217  0.00  0.00    +0.000 A 
ATOM      6  C   UNL     1       1.027  -1.708  -0.152  0.00  0.00    +0.000 A 
ATOM      7  C   UNL     1      -0.350  -1.645  -0.375  0.00  0.00    +0.000 A 
ATOM      8  C   UNL     1       3.222  -0.636   0.428  0.00  0.00    +0.000 C 
ATOM      9  C   UNL     1      -1.074   2.042   0.316  0.00  0.00    +0.000 C 
ENDROOT
BRANCH   4  10
ATOM     10  O   UNL     1       1.745   1.792   0.720  0.00  0.00    +0.000 OA
BRANCH  10  11
ATOM     11  C   UNL     1       2.228   2.529  -0.345  0.00  0.00    +0.000 C 
ATOM     12  O   UNL     1       2.100   2.285  -1.536  0.00  0.00    +0.000 OA
BRANCH  11  13
ATOM     13  C   UNL     1       2.970   3.716   0.166  0.00  0.00    +0.000 A 
ATOM     14  C   UNL     1       3.591   4.556  -0.769  0.00  0.00    +0.000 A 
ATOM     15  C   UNL     1       4.300   5.682  -0.345  0.00  0.00    +0.000 A 
ATOM     16  C   UNL     1       4.392   5.976   1.014  0.00  0.00    +0.000 A 
ATOM     17  C   UNL     1       3.777   5.147   1.951  0.00  0.00    +0.000 A 
ATOM     18  C   UNL     1       3.066   4.019   1.532  0.00  0.00    +0.000 A 
ENDBRANCH  11  13
ENDBRANCH  10  11
ENDBRANCH   4  10
TORSDOF 3
