REMARK  Name = *****
REMARK  3 active torsions:
REMARK  status: ('A' for Active; 'I' for Inactive)
REMARK    1  A    between atoms: C_4  and  C_7
REMARK    2  A    between atoms: C_7  and  S_8
REMARK    3  A    between atoms: S_8  and  C_9
REMARK                            x       y       z     vdW  Elec       q    Type
REMARK                         _______ _______ _______ _____ _____    ______ ____
ROOT
ATOM      1  C   UNL     1      -2.930   0.268  -0.374  0.00  0.00    +0.000 C 
ENDROOT
BRANCH   1   5
ATOM      2  C   UNL     1       1.333  -0.161   0.137  0.00  0.00    +0.000 A 
ATOM      3  C   UNL     1       0.655  -0.972  -0.770  0.00  0.00    +0.000 A 
ATOM      4  C   UNL     1      -0.724  -0.834  -0.937  0.00  0.00    +0.000 A 
ATOM      5  C   UNL     1      -1.438   0.124  -0.201  0.00  0.00    +0.000 A 
ATOM      6  C   UNL     1      -0.745   0.928   0.716  0.00  0.00    +0.000 A 
ATOM      7  C   UNL     1       0.634   0.788   0.881  0.00  0.00    +0.000 A 
ENDBRANCH   1   5
BRANCH   1   8
ATOM      8  S   UNL     1      -3.840  -0.821   0.762  0.00  0.00    +0.000 S 
BRANCH   8   9
ATOM      9  C   UNL     1      -5.482  -0.630   0.167  0.00  0.00    +0.000 A 
ATOM     10  C   UNL     1      -6.311  -1.666  -0.208  0.00  0.00    +0.000 A 
ATOM     11  C   UNL     1      -7.593  -1.209  -0.633  0.00  0.00    +0.000 A 
ATOM     12  C   UNL     1      -7.702   0.162  -0.555  0.00  0.00    +0.000 A 
ATOM     13  S   UNL     1      -6.267   0.884   0.033  0.00  0.00    +0.000 S 
ENDBRANCH   8   9
ENDBRANCH   1   8
TORSDOF 3
