REMARK  Name = *****
REMARK  4 active torsions:
REMARK  status: ('A' for Active; 'I' for Inactive)
REMARK    1  A    between atoms: C_1  and  C_2
REMARK    2  A    between atoms: C_2  and  C_3
REMARK    3  A    between atoms: C_2  and  O_9
REMARK    4  A    between atoms: O_9  and  C_10
REMARK                            x       y       z     vdW  Elec       q    Type
REMARK                         _______ _______ _______ _____ _____    ______ ____
ROOT
ATOM      1  C   UNL     1       1.128  -0.305  -0.183  0.00  0.00    +0.000 C 
ATOM      2  C   UNL     1       2.617   0.034  -0.100  0.00  0.00    +0.000 C 
ENDROOT
BRANCH   2   3
ATOM      3  C   UNL     1       2.801   1.329   0.681  0.00  0.00    +0.000 A 
ATOM      4  C   UNL     1       2.851   1.340   2.085  0.00  0.00    +0.000 A 
ATOM      5  C   UNL     1       2.996   2.539   2.784  0.00  0.00    +0.000 A 
ATOM      6  C   UNL     1       3.086   3.744   2.091  0.00  0.00    +0.000 A 
ATOM      7  C   UNL     1       3.030   3.752   0.699  0.00  0.00    +0.000 A 
ATOM      8  C   UNL     1       2.886   2.552  -0.002  0.00  0.00    +0.000 A 
ENDBRANCH   2   3
BRANCH   2   9
ATOM      9  O   UNL     1       3.320  -1.015   0.578  0.00  0.00    +0.000 OA
BRANCH   9  10
ATOM     10  C   UNL     1       3.785  -2.087  -0.128  0.00  0.00    +0.000 A 
ATOM     11  C   UNL     1       3.570  -2.348  -1.483  0.00  0.00    +0.000 A 
ATOM     12  C   UNL     1       4.110  -3.498  -2.070  0.00  0.00    +0.000 A 
ATOM     13  C   UNL     1       4.858  -4.381  -1.300  0.00  0.00    +0.000 A 
ATOM     14  C   UNL     1       5.077  -4.138   0.048  0.00  0.00    +0.000 A 
ATOM     15  C   UNL     1       4.538  -2.991   0.632  0.00  0.00    +0.000 A 
ATOM     16  F   UNL     1       5.371  -5.480  -1.867  0.00  0.00    +0.000 F 
ENDBRANCH   9  10
ENDBRANCH   2   9
TORSDOF 3
