REMARK  Name = *****
REMARK  2 active torsions:
REMARK  status: ('A' for Active; 'I' for Inactive)
REMARK    1  A    between atoms: C_1  and  C_2
REMARK    2  A    between atoms: C_9  and  C_12
REMARK                            x       y       z     vdW  Elec       q    Type
REMARK                         _______ _______ _______ _____ _____    ______ ____
ROOT
ATOM      1  C   UNL     1       0.983  -0.018  -0.399  0.00  0.00    +0.000 C 
ATOM      2  C   UNL     1       2.437   0.063  -0.014  0.00  0.00    +0.000 A 
ATOM      3  C   UNL     1       3.198  -1.111   0.093  0.00  0.00    +0.000 A 
ATOM      4  C   UNL     1       4.557  -1.030   0.451  0.00  0.00    +0.000 A 
ATOM      5  C   UNL     1       5.114   0.252   0.694  0.00  0.00    +0.000 A 
ATOM      6  C   UNL     1       4.351   1.412   0.584  0.00  0.00    +0.000 A 
ATOM      7  C   UNL     1       3.014   1.318   0.229  0.00  0.00    +0.000 A 
ATOM      8  C   UNL     1       5.281  -2.246   0.546  0.00  0.00    +0.000 A 
ATOM      9  C   UNL     1       4.646  -3.459   0.279  0.00  0.00    +0.000 A 
ATOM     10  N   UNL     1       3.339  -3.477  -0.049  0.00  0.00    +0.000 NA
ATOM     11  N   UNL     1       2.629  -2.304  -0.141  0.00  0.00    +0.000 NA
ATOM     12 CL   UNL     1       6.953  -2.228   1.039  0.00  0.00    +0.000 Cl
ENDROOT
BRANCH   9  13
ATOM     13  C   UNL     1       5.275  -4.787   0.331  0.00  0.00    +0.000 A 
ATOM     14  C   UNL     1       4.789  -5.769   1.211  0.00  0.00    +0.000 A 
ATOM     15  C   UNL     1       5.370  -7.039   1.266  0.00  0.00    +0.000 A 
ATOM     16  C   UNL     1       6.442  -7.351   0.435  0.00  0.00    +0.000 A 
ATOM     17  C   UNL     1       6.930  -6.398  -0.456  0.00  0.00    +0.000 A 
ATOM     18  C   UNL     1       6.348  -5.128  -0.511  0.00  0.00    +0.000 A 
ENDBRANCH   9  13
TORSDOF 1
