REMARK  Name = *****
REMARK  4 active torsions:
REMARK  status: ('A' for Active; 'I' for Inactive)
REMARK    1  A    between atoms: C_1  and  C_2
REMARK    2  A    between atoms: C_4  and  C_16
REMARK    3  A    between atoms: C_5  and  C_8
REMARK    4  A    between atoms: C_9  and  C_10
REMARK                            x       y       z     vdW  Elec       q    Type
REMARK                         _______ _______ _______ _____ _____    ______ ____
ROOT
ATOM      1  C   UNL     1       1.086   0.087   0.129  0.00  0.00    +0.000 C 
ATOM      2  C   UNL     1       2.579   0.014   0.116  0.00  0.00    +0.000 A 
ATOM      3  C   UNL     1       3.258  -1.207   0.112  0.00  0.00    +0.000 A 
ATOM      4  C   UNL     1       4.658  -1.235   0.097  0.00  0.00    +0.000 A 
ATOM      5  C   UNL     1       5.320  -0.007   0.085  0.00  0.00    +0.000 A 
ATOM      6  N   UNL     1       4.694   1.192   0.089  0.00  0.00    +0.000 NA
ATOM      7  C   UNL     1       3.344   1.174   0.103  0.00  0.00    +0.000 A 
ATOM      8  C   UNL     1       5.394  -2.540   0.093  0.00  0.00    +0.000 C 
ENDROOT
BRANCH   5   9
ATOM      9  C   UNL     1       6.747   0.093   0.067  0.00  0.00    +0.000 C 
ATOM     10  C   UNL     1       7.945   0.174   0.050  0.00  0.00    +0.000 C 
BRANCH  10  11
ATOM     11  C   UNL     1       9.372   0.274   0.028  0.00  0.00    +0.000 A 
ATOM     12  C   UNL     1       9.984   1.529   0.024  0.00  0.00    +0.000 A 
ATOM     13  C   UNL     1      11.377   1.627   0.001  0.00  0.00    +0.000 A 
ATOM     14  C   UNL     1      12.157   0.471  -0.017  0.00  0.00    +0.000 A 
ATOM     15  C   UNL     1      11.547  -0.784  -0.013  0.00  0.00    +0.000 A 
ATOM     16  C   UNL     1      10.155  -0.883   0.010  0.00  0.00    +0.000 A 
ENDBRANCH  10  11
ENDBRANCH   5   9
TORSDOF 2
