REMARK  Name = *****
REMARK  4 active torsions:
REMARK  status: ('A' for Active; 'I' for Inactive)
REMARK    1  A    between atoms: C_4  and  C_7
REMARK    2  A    between atoms: C_7  and  O_8
REMARK    3  A    between atoms: O_8  and  C_9
REMARK    4  A    between atoms: C_9  and  C_11
REMARK                            x       y       z     vdW  Elec       q    Type
REMARK                         _______ _______ _______ _____ _____    ______ ____
ROOT
ATOM      1  C   UNL     1      -4.944  -0.546  -0.314  0.00  0.00    +0.000 C 
ATOM      2  O   UNL     1      -5.488   0.527  -0.126  0.00  0.00    +0.000 OA
ENDROOT
BRANCH   1   3
ATOM      3  C   UNL     1      -5.642  -1.844  -0.341  0.00  0.00    +0.000 A 
ATOM      4  C   UNL     1      -5.208  -2.856   0.532  0.00  0.00    +0.000 A 
ATOM      5  C   UNL     1      -5.865  -4.086   0.557  0.00  0.00    +0.000 A 
ATOM      6  C   UNL     1      -6.954  -4.310  -0.284  0.00  0.00    +0.000 A 
ATOM      7  C   UNL     1      -7.386  -3.304  -1.153  0.00  0.00    +0.000 A 
ATOM      8  C   UNL     1      -6.734  -2.067  -1.184  0.00  0.00    +0.000 A 
ATOM      9 CL   UNL     1      -7.297  -0.893  -2.317  0.00  0.00    +0.000 Cl
ENDBRANCH   1   3
BRANCH   1  10
ATOM     10  O   UNL     1      -3.624  -0.778  -0.511  0.00  0.00    +0.000 OA
BRANCH  10  11
ATOM     11  C   UNL     1      -2.779   0.376  -0.432  0.00  0.00    +0.000 C 
BRANCH  11  15
ATOM     12  C   UNL     1      -1.082   0.531   3.526  0.00  0.00    +0.000 A 
ATOM     13  C   UNL     1      -0.491  -0.265   2.546  0.00  0.00    +0.000 A 
ATOM     14  C   UNL     1      -1.036  -0.312   1.262  0.00  0.00    +0.000 A 
ATOM     15  C   UNL     1      -2.172   0.445   0.945  0.00  0.00    +0.000 A 
ATOM     16  C   UNL     1      -2.766   1.232   1.942  0.00  0.00    +0.000 A 
ATOM     17  C   UNL     1      -2.220   1.277   3.225  0.00  0.00    +0.000 A 
ENDBRANCH  11  15
ENDBRANCH  10  11
ENDBRANCH   1  10
TORSDOF 4
