REMARK  Name = *****
REMARK  5 active torsions:
REMARK  status: ('A' for Active; 'I' for Inactive)
REMARK    1  A    between atoms: C_1  and  C_2
REMARK    2  A    between atoms: C_5  and  C_8
REMARK    3  A    between atoms: C_8  and  C_9
REMARK    4  A    between atoms: C_9  and  C_10
REMARK    5  A    between atoms: C_10  and  C_12
REMARK                            x       y       z     vdW  Elec       q    Type
REMARK                         _______ _______ _______ _____ _____    ______ ____
ROOT
ATOM      1  C   UNL     1      -3.288   0.028  -0.027  0.00  0.00    +0.000 C 
ATOM      2  F   UNL     1      -3.824   1.279  -0.189  0.00  0.00    +0.000 F 
ENDROOT
BRANCH   1   7
ATOM      3  C   UNL     1       2.517   0.091  -0.597  0.00  0.00    +0.000 C 
ATOM      4  C   UNL     1       1.027   0.070  -0.422  0.00  0.00    +0.000 A 
ATOM      5  C   UNL     1       0.326  -1.141  -0.434  0.00  0.00    +0.000 A 
ATOM      6  C   UNL     1      -1.065  -1.156  -0.308  0.00  0.00    +0.000 A 
ATOM      7  C   UNL     1      -1.782   0.042  -0.173  0.00  0.00    +0.000 A 
ATOM      8  C   UNL     1      -1.078   1.253  -0.180  0.00  0.00    +0.000 A 
ATOM      9  C   UNL     1       0.312   1.267  -0.309  0.00  0.00    +0.000 A 
ENDBRANCH   1   7
BRANCH   1  10
ATOM     10  C   UNL     1      -3.706  -0.469   1.349  0.00  0.00    +0.000 C 
BRANCH  10  11
ATOM     11  C   UNL     1      -5.199  -0.691   1.358  0.00  0.00    +0.000 C 
ATOM     12  O   UNL     1      -5.674  -1.712   0.860  0.00  0.00    +0.000 OA
BRANCH  11  13
ATOM     13  C   UNL     1      -6.108   0.319   1.978  0.00  0.00    +0.000 A 
ATOM     14  C   UNL     1      -5.697   1.622   2.284  0.00  0.00    +0.000 A 
ATOM     15  C   UNL     1      -6.593   2.523   2.869  0.00  0.00    +0.000 A 
ATOM     16  C   UNL     1      -7.901   2.131   3.146  0.00  0.00    +0.000 A 
ATOM     17  C   UNL     1      -8.322   0.840   2.833  0.00  0.00    +0.000 A 
ATOM     18  C   UNL     1      -7.430  -0.062   2.250  0.00  0.00    +0.000 A 
ENDBRANCH  11  13
ENDBRANCH  10  11
ENDBRANCH   1  10
TORSDOF 4
