REMARK  Name = *****
REMARK  6 active torsions:
REMARK  status: ('A' for Active; 'I' for Inactive)
REMARK    1  A    between atoms: C_1  and  C_2
REMARK    2  A    between atoms: C_4  and  C_17
REMARK    3  A    between atoms: C_6  and  C_7
REMARK    4  A    between atoms: C_6  and  C_8
REMARK    5  A    between atoms: C_8  and  C_9
REMARK    6  A    between atoms: C_10  and  C_11
REMARK                            x       y       z     vdW  Elec       q    Type
REMARK                         _______ _______ _______ _____ _____    ______ ____
ROOT
ATOM      1  C   UNL     1       3.002  -2.071  -1.171  0.00  0.00    +0.000 C 
ENDROOT
BRANCH   1   7
ATOM      2  C   UNL     1       0.947   0.170  -0.090  0.00  0.00    +0.000 C 
ATOM      3  C   UNL     1       2.436   0.148  -0.069  0.00  0.00    +0.000 C 
ATOM      4  C   UNL     1       3.232   1.217  -0.137  0.00  0.00    +0.000 C 
ATOM      5  C   UNL     1       4.568   0.630  -0.064  0.00  0.00    +0.000 C 
ATOM      6  N   UNL     1       4.648  -0.664   0.039  0.00  0.00    +0.000 NA
ATOM      7  C   UNL     1       3.231  -1.134   0.045  0.00  0.00    +0.000 C 
ATOM      8  C   UNL     1       2.974  -1.841   1.382  0.00  0.00    +0.000 C 
ATOM      9  C   UNL     1       5.787   1.495  -0.108  0.00  0.00    +0.000 C 
ENDBRANCH   1   7
BRANCH   1  10
ATOM     10  C   UNL     1       3.879  -3.299  -1.179  0.00  0.00    +0.000 C 
ATOM     11  C   UNL     1       3.414  -4.558  -1.161  0.00  0.00    +0.000 C 
BRANCH  11  12
ATOM     12  C   UNL     1       4.274  -5.750  -1.145  0.00  0.00    +0.000 A 
ATOM     13  C   UNL     1       5.489  -5.786  -0.447  0.00  0.00    +0.000 A 
ATOM     14  C   UNL     1       6.264  -6.948  -0.424  0.00  0.00    +0.000 A 
ATOM     15  C   UNL     1       5.827  -8.091  -1.089  0.00  0.00    +0.000 A 
ATOM     16  C   UNL     1       4.613  -8.075  -1.772  0.00  0.00    +0.000 A 
ATOM     17  C   UNL     1       3.838  -6.912  -1.795  0.00  0.00    +0.000 A 
ENDBRANCH  11  12
ENDBRANCH   1  10
TORSDOF 3
