REMARK  Name = *****
REMARK  3 active torsions:
REMARK  status: ('A' for Active; 'I' for Inactive)
REMARK    1  A    between atoms: C_4  and  C_9
REMARK    2  A    between atoms: C_9  and  S_12
REMARK    3  A    between atoms: S_12  and  C_13
REMARK                            x       y       z     vdW  Elec       q    Type
REMARK                         _______ _______ _______ _____ _____    ______ ____
ROOT
ATOM      1  C   UNL     1      -0.333  -0.488  -2.160  0.00  0.00    +0.000 C 
ATOM      2  C   UNL     1       0.048  -1.842  -2.751  0.00  0.00    +0.000 C 
ATOM      3  C   UNL     1       1.071  -0.753  -2.688  0.00  0.00    +0.000 C 
ENDROOT
BRANCH   1   7
ATOM      4  C   UNL     1       1.798   0.621   1.133  0.00  0.00    +0.000 C 
ATOM      5  C   UNL     1       1.572  -0.837   0.738  0.00  0.00    +0.000 C 
ATOM      6  C   UNL     1       0.144  -1.231   0.357  0.00  0.00    +0.000 C 
ATOM      7  C   UNL     1      -0.653  -0.389  -0.656  0.00  0.00    +0.000 C 
ATOM      8  C   UNL     1      -0.819   1.023  -0.112  0.00  0.00    +0.000 C 
ATOM      9  O   UNL     1      -1.832   1.329   0.527  0.00  0.00    +0.000 OA
ATOM     10  C   UNL     1       0.266   2.053  -0.331  0.00  0.00    +0.000 C 
ATOM     11  C   UNL     1       1.682   1.585  -0.042  0.00  0.00    +0.000 C 
ENDBRANCH   1   7
BRANCH   1  12
ATOM     12  S   UNL     1      -1.349   0.561  -3.211  0.00  0.00    +0.000 S 
BRANCH  12  13
ATOM     13  C   UNL     1      -2.921  -0.272  -3.068  0.00  0.00    +0.000 A 
ATOM     14  C   UNL     1      -3.869   0.170  -2.139  0.00  0.00    +0.000 A 
ATOM     15  C   UNL     1      -5.107  -0.468  -2.035  0.00  0.00    +0.000 A 
ATOM     16  C   UNL     1      -5.411  -1.541  -2.870  0.00  0.00    +0.000 A 
ATOM     17  C   UNL     1      -4.480  -1.973  -3.813  0.00  0.00    +0.000 A 
ATOM     18  C   UNL     1      -3.242  -1.336  -3.916  0.00  0.00    +0.000 A 
ENDBRANCH  12  13
ENDBRANCH   1  12
TORSDOF 3
