REMARK  Name = *****
REMARK  3 active torsions:
REMARK  status: ('A' for Active; 'I' for Inactive)
REMARK    1  A    between atoms: C_2  and  C_3
REMARK    2  A    between atoms: C_6  and  C_8
REMARK    3  A    between atoms: C_9  and  C_10
REMARK                            x       y       z     vdW  Elec       q    Type
REMARK                         _______ _______ _______ _____ _____    ______ ____
ROOT
ATOM      1  C   UNL     1       4.523  -3.592  -1.910  0.00  0.00    +0.000 C 
ATOM      2  C   UNL     1       4.725  -4.897  -2.155  0.00  0.00    +0.000 C 
ENDROOT
BRANCH   2   3
ATOM      3  C   UNL     1       6.043  -5.544  -2.117  0.00  0.00    +0.000 A 
ATOM      4  C   UNL     1       7.002  -5.227  -1.143  0.00  0.00    +0.000 A 
ATOM      5  C   UNL     1       8.234  -5.886  -1.120  0.00  0.00    +0.000 A 
ATOM      6  C   UNL     1       8.503  -6.869  -2.063  0.00  0.00    +0.000 A 
ATOM      7  C   UNL     1       7.562  -7.210  -3.027  0.00  0.00    +0.000 A 
ATOM      8  C   UNL     1       6.330  -6.552  -3.050  0.00  0.00    +0.000 A 
ATOM      9  F   UNL     1       9.684  -7.501  -2.040  0.00  0.00    +0.000 F 
ENDBRANCH   2   3
BRANCH   1  13
ATOM     10  C   UNL     1       2.847  -0.752  -0.909  0.00  0.00    +0.000 C 
ATOM     11  C   UNL     1       2.369  -0.675  -2.357  0.00  0.00    +0.000 C 
ATOM     12  C   UNL     1       3.110  -1.828  -3.021  0.00  0.00    +0.000 C 
ATOM     13  C   UNL     1       3.168  -2.937  -1.956  0.00  0.00    +0.000 C 
ATOM     14  C   UNL     1       2.806  -2.256  -0.622  0.00  0.00    +0.000 C 
BRANCH  10  16
ATOM     15  C   UNL     1       2.472   1.028   0.817  0.00  0.00    +0.000 C 
ATOM     16  C   UNL     1       1.999   0.051   0.033  0.00  0.00    +0.000 C 
ENDBRANCH  10  16
ENDBRANCH   1  13
TORSDOF 3
