REMARK  Name = *****
REMARK  6 active torsions:
REMARK  status: ('A' for Active; 'I' for Inactive)
REMARK    1  A    between atoms: C_1  and  O_2
REMARK    2  A    between atoms: O_2  and  C_3
REMARK    3  A    between atoms: C_8  and  P_9
REMARK    4  A    between atoms: P_9  and  C_10
REMARK    5  A    between atoms: P_9  and  C_11
REMARK    6  A    between atoms: C_11  and  C_12
REMARK                            x       y       z     vdW  Elec       q    Type
REMARK                         _______ _______ _______ _____ _____    ______ ____
ROOT
ATOM      1  P   UNL     1       4.591  -0.027  -2.393  0.00  0.00    +0.000 P 
ATOM      2  C   UNL     1       6.078  -0.701  -1.564  0.00  0.00    +0.000 C 
ENDROOT
BRANCH   1   8
ATOM      3  C   UNL     1       3.681   0.986   0.170  0.00  0.00    +0.000 A 
ATOM      4  C   UNL     1       3.261   2.056   0.976  0.00  0.00    +0.000 A 
ATOM      5  C   UNL     1       3.175   3.351   0.461  0.00  0.00    +0.000 A 
ATOM      6  C   UNL     1       3.509   3.594  -0.864  0.00  0.00    +0.000 A 
ATOM      7  C   UNL     1       3.928   2.540  -1.676  0.00  0.00    +0.000 A 
ATOM      8  C   UNL     1       4.022   1.224  -1.179  0.00  0.00    +0.000 A 
BRANCH   3  10
ATOM      9  C   UNL     1       3.432  -0.568   1.975  0.00  0.00    +0.000 C 
ATOM     10  O   UNL     1       3.786  -0.304   0.625  0.00  0.00    +0.000 OA
ENDBRANCH   3  10
ENDBRANCH   1   8
BRANCH   1  11
ATOM     11  C   UNL     1       3.396  -1.391  -2.161  0.00  0.00    +0.000 C 
BRANCH  11  12
ATOM     12  C   UNL     1       3.642  -2.308  -3.335  0.00  0.00    +0.000 A 
ATOM     13  C   UNL     1       4.442  -3.454  -3.193  0.00  0.00    +0.000 A 
ATOM     14  C   UNL     1       4.653  -4.315  -4.271  0.00  0.00    +0.000 A 
ATOM     15  C   UNL     1       4.061  -4.048  -5.504  0.00  0.00    +0.000 A 
ATOM     16  C   UNL     1       3.258  -2.921  -5.660  0.00  0.00    +0.000 A 
ATOM     17  C   UNL     1       3.046  -2.058  -4.583  0.00  0.00    +0.000 A 
ENDBRANCH  11  12
ENDBRANCH   1  11
TORSDOF 4
