REMARK  Name = *****
REMARK  3 active torsions:
REMARK  status: ('A' for Active; 'I' for Inactive)
REMARK    1  A    between atoms: C_3  and  O_8
REMARK    2  A    between atoms: O_8  and  C_9
REMARK    3  A    between atoms: C_9  and  C_10
REMARK                            x       y       z     vdW  Elec       q    Type
REMARK                         _______ _______ _______ _____ _____    ______ ____
ROOT
ATOM      1  C   UNL     1      -0.395   0.153  -0.906  0.00  0.00    +0.000 A 
ATOM      2  C   UNL     1       0.259   1.352  -0.607  0.00  0.00    +0.000 A 
ATOM      3  C   UNL     1       1.380   1.352   0.227  0.00  0.00    +0.000 A 
ATOM      4  C   UNL     1       1.846   0.143   0.750  0.00  0.00    +0.000 A 
ATOM      5  C   UNL     1       1.191  -1.050   0.449  0.00  0.00    +0.000 A 
ATOM      6  C   UNL     1       0.070  -1.051  -0.376  0.00  0.00    +0.000 A 
ATOM      7 CL   UNL     1       1.770  -2.533   1.103  0.00  0.00    +0.000 Cl
ENDROOT
BRANCH   3   8
ATOM      8  O   UNL     1       2.105   2.450   0.601  0.00  0.00    +0.000 OA
BRANCH   8   9
ATOM      9  C   UNL     1       1.624   3.725   0.175  0.00  0.00    +0.000 C 
BRANCH   9  10
ATOM     10  C   UNL     1       2.544   4.754   0.764  0.00  0.00    +0.000 A 
ATOM     11  C   UNL     1       3.926   4.775   0.767  0.00  0.00    +0.000 A 
ATOM     12  C   UNL     1       4.453   5.927   1.418  0.00  0.00    +0.000 A 
ATOM     13  C   UNL     1       3.456   6.754   1.884  0.00  0.00    +0.000 A 
ATOM     14  S   UNL     1       1.898   6.142   1.535  0.00  0.00    +0.000 S 
ENDBRANCH   9  10
ENDBRANCH   8   9
ENDBRANCH   3   8
TORSDOF 3
