REMARK  Name = *****
REMARK  4 active torsions:
REMARK  status: ('A' for Active; 'I' for Inactive)
REMARK    1  A    between atoms: C_1  and  C_2
REMARK    2  A    between atoms: C_4  and  O_7
REMARK    3  A    between atoms: O_7  and  C_8
REMARK    4  A    between atoms: C_8  and  C_10
REMARK                            x       y       z     vdW  Elec       q    Type
REMARK                         _______ _______ _______ _____ _____    ______ ____
ROOT
ATOM      1  C   UNL     1       2.241   2.458   1.693  0.00  0.00    +0.000 C 
ATOM      2  O   UNL     1       2.284   3.350   0.860  0.00  0.00    +0.000 OA
ENDROOT
BRANCH   1   3
ATOM      3  C   UNL     1       2.630   2.649   3.118  0.00  0.00    +0.000 A 
ATOM      4  C   UNL     1       3.087   3.914   3.515  0.00  0.00    +0.000 A 
ATOM      5  C   UNL     1       3.463   4.144   4.840  0.00  0.00    +0.000 A 
ATOM      6  C   UNL     1       3.383   3.113   5.775  0.00  0.00    +0.000 A 
ATOM      7  C   UNL     1       2.928   1.852   5.389  0.00  0.00    +0.000 A 
ATOM      8  C   UNL     1       2.551   1.619   4.064  0.00  0.00    +0.000 A 
ENDBRANCH   1   3
BRANCH   1   9
ATOM      9  O   UNL     1       1.850   1.180   1.477  0.00  0.00    +0.000 OA
BRANCH   9  13
ATOM     10  C   UNL     1      -2.239  -0.103  -0.040  0.00  0.00    +0.000 C 
ATOM     11  C   UNL     1      -0.760   0.020   0.031  0.00  0.00    +0.000 C 
ATOM     12  C   UNL     1      -0.037   1.146   0.008  0.00  0.00    +0.000 C 
ATOM     13  C   UNL     1       1.430   0.883   0.142  0.00  0.00    +0.000 C 
ATOM     14  C   UNL     1       1.514  -0.631  -0.088  0.00  0.00    +0.000 C 
ATOM     15  C   UNL     1       0.114  -1.183   0.195  0.00  0.00    +0.000 C 
ENDBRANCH   9  13
ENDBRANCH   1   9
TORSDOF 3
