REMARK  Name = *****
REMARK  5 active torsions:
REMARK  status: ('A' for Active; 'I' for Inactive)
REMARK    1  A    between atoms: C_1  and  C_2
REMARK    2  A    between atoms: C_7  and  C_8
REMARK    3  A    between atoms: C_8  and  C_9
REMARK    4  A    between atoms: C_9  and  C_10
REMARK    5  A    between atoms: C_10  and  C_12
REMARK                            x       y       z     vdW  Elec       q    Type
REMARK                         _______ _______ _______ _____ _____    ______ ____
ROOT
ATOM      1  C   UNL     1       2.541  -2.359  -0.045  0.00  0.00    +0.000 C 
ENDROOT
BRANCH   1   2
ATOM      2  C   UNL     1       3.240  -3.701   0.091  0.00  0.00    +0.000 C 
ATOM      3  O   UNL     1       2.615  -4.749   0.251  0.00  0.00    +0.000 OA
BRANCH   2   4
ATOM      4  C   UNL     1       4.764  -3.680  -0.008  0.00  0.00    +0.000 C 
ATOM      5  C   UNL     1       5.189  -3.736  -1.478  0.00  0.00    +0.000 C 
ATOM      6  C   UNL     1       6.709  -3.775  -1.625  0.00  0.00    +0.000 C 
ATOM      7  C   UNL     1       7.328  -4.912  -0.819  0.00  0.00    +0.000 C 
ATOM      8  C   UNL     1       6.907  -4.856   0.647  0.00  0.00    +0.000 C 
ATOM      9  C   UNL     1       5.388  -4.831   0.792  0.00  0.00    +0.000 C 
ENDBRANCH   2   4
ENDBRANCH   1   2
BRANCH   1  10
ATOM     10  C   UNL     1       1.021  -2.497   0.001  0.00  0.00    +0.000 C 
BRANCH  10  17
ATOM     11  C   UNL     1       0.203  -0.848   2.396  0.00  0.00    +0.000 C 
ATOM     12  C   UNL     1      -0.019  -0.371   0.986  0.00  0.00    +0.000 A 
ATOM     13  C   UNL     1      -0.633   0.875   0.781  0.00  0.00    +0.000 A 
ATOM     14  C   UNL     1      -0.875   1.353  -0.506  0.00  0.00    +0.000 A 
ATOM     15  C   UNL     1      -0.511   0.590  -1.609  0.00  0.00    +0.000 A 
ATOM     16  C   UNL     1       0.094  -0.653  -1.424  0.00  0.00    +0.000 A 
ATOM     17  C   UNL     1       0.342  -1.151  -0.132  0.00  0.00    +0.000 A 
ENDBRANCH  10  17
ENDBRANCH   1  10
TORSDOF 4
