REMARK  Name = *****
REMARK  3 active torsions:
REMARK  status: ('A' for Active; 'I' for Inactive)
REMARK    1  A    between atoms: C_3  and  C_20
REMARK    2  A    between atoms: C_6  and  C_7
REMARK    3  A    between atoms: C_8  and  C_9
REMARK                            x       y       z     vdW  Elec       q    Type
REMARK                         _______ _______ _______ _____ _____    ______ ____
ROOT
ATOM      1  C   UNL     1       4.029   3.245  -0.597  0.00  0.00    +0.000 A 
ATOM      2  C   UNL     1       3.819   4.500  -0.007  0.00  0.00    +0.000 A 
ATOM      3  C   UNL     1       4.737   5.536  -0.171  0.00  0.00    +0.000 A 
ATOM      4  C   UNL     1       5.889   5.336  -0.916  0.00  0.00    +0.000 A 
ATOM      5  C   UNL     1       6.128   4.100  -1.494  0.00  0.00    +0.000 A 
ATOM      6  C   UNL     1       5.211   3.064  -1.331  0.00  0.00    +0.000 A 
ATOM      7  F   UNL     1       5.472   1.875  -1.897  0.00  0.00    +0.000 F 
ATOM      8  F   UNL     1       7.244   3.898  -2.208  0.00  0.00    +0.000 F 
ATOM      9  F   UNL     1       6.770   6.333  -1.071  0.00  0.00    +0.000 F 
ATOM     10  F   UNL     1       4.508   6.726   0.401  0.00  0.00    +0.000 F 
ATOM     11  F   UNL     1       2.731   4.727   0.745  0.00  0.00    +0.000 F 
ENDROOT
BRANCH   1  13
ATOM     12  C   UNL     1       1.777   2.203  -0.325  0.00  0.00    +0.000 C 
ATOM     13  C   UNL     1       3.111   2.102  -0.438  0.00  0.00    +0.000 C 
BRANCH  12  19
ATOM     14  C   UNL     1       1.074  -0.147  -0.883  0.00  0.00    +0.000 A 
ATOM     15  C   UNL     1       0.184  -1.214  -0.733  0.00  0.00    +0.000 A 
ATOM     16  C   UNL     1      -0.912  -1.089   0.123  0.00  0.00    +0.000 A 
ATOM     17  C   UNL     1      -1.126   0.099   0.825  0.00  0.00    +0.000 A 
ATOM     18  C   UNL     1      -0.233   1.163   0.670  0.00  0.00    +0.000 A 
ATOM     19  C   UNL     1       0.882   1.047  -0.173  0.00  0.00    +0.000 A 
BRANCH  16  20
ATOM     20  C   UNL     1      -1.859  -2.210   0.287  0.00  0.00    +0.000 C 
ATOM     21  O   UNL     1      -1.720  -3.273  -0.305  0.00  0.00    +0.000 OA
ENDBRANCH  16  20
ENDBRANCH  12  19
ENDBRANCH   1  13
TORSDOF 3
