REMARK  Name = *****
REMARK  3 active torsions:
REMARK  status: ('A' for Active; 'I' for Inactive)
REMARK    1  A    between atoms: C_1  and  C_2
REMARK    2  A    between atoms: C_2  and  C_8
REMARK    3  A    between atoms: C_8  and  C_10
REMARK                            x       y       z     vdW  Elec       q    Type
REMARK                         _______ _______ _______ _____ _____    ______ ____
ROOT
ATOM      1  C   UNL     1       2.904   1.584  -0.910  0.00  0.00    +0.000 C 
ATOM      2  O   UNL     1       3.609   2.068  -1.791  0.00  0.00    +0.000 OA
ENDROOT
BRANCH   1   4
ATOM      3  C   UNL     1       1.214   0.167  -2.053  0.00  0.00    +0.000 C 
ATOM      4  C   UNL     1       2.355   0.206  -1.076  0.00  0.00    +0.000 C 
ATOM      5  C   UNL     1       2.923  -0.830  -0.427  0.00  0.00    +0.000 C 
ATOM      6  S   UNL     1       4.301  -0.666   0.641  0.00  0.00    +0.000 S 
ATOM      7  C   UNL     1       4.690  -2.437   0.716  0.00  0.00    +0.000 C 
ATOM      8  C   UNL     1       3.373  -3.187   0.714  0.00  0.00    +0.000 C 
ATOM      9  S   UNL     1       2.331  -2.470  -0.590  0.00  0.00    +0.000 S 
ENDBRANCH   1   4
BRANCH   1  10
ATOM     10  C   UNL     1       2.518   2.376   0.296  0.00  0.00    +0.000 A 
ATOM     11  C   UNL     1       1.545   1.946   1.209  0.00  0.00    +0.000 A 
ATOM     12  C   UNL     1       1.219   2.738   2.313  0.00  0.00    +0.000 A 
ATOM     13  C   UNL     1       1.857   3.963   2.510  0.00  0.00    +0.000 A 
ATOM     14  C   UNL     1       2.821   4.400   1.604  0.00  0.00    +0.000 A 
ATOM     15  C   UNL     1       3.150   3.611   0.500  0.00  0.00    +0.000 A 
ENDBRANCH   1  10
TORSDOF 2
