REMARK  Name = *****
REMARK  4 active torsions:
REMARK  status: ('A' for Active; 'I' for Inactive)
REMARK    1  A    between atoms: C_4  and  S_7
REMARK    2  A    between atoms: S_7  and  O_8
REMARK    3  A    between atoms: O_8  and  C_9
REMARK    4  A    between atoms: C_9  and  C_10
REMARK                            x       y       z     vdW  Elec       q    Type
REMARK                         _______ _______ _______ _____ _____    ______ ____
ROOT
ATOM      1  C   UNL     1      -5.616  -1.915  -0.804  0.00  0.00    +0.000 A 
ATOM      2  C   UNL     1      -5.263  -2.863   0.161  0.00  0.00    +0.000 A 
ATOM      3  C   UNL     1      -5.982  -4.047   0.300  0.00  0.00    +0.000 A 
ATOM      4  C   UNL     1      -7.064  -4.304  -0.529  0.00  0.00    +0.000 A 
ATOM      5  C   UNL     1      -7.425  -3.378  -1.498  0.00  0.00    +0.000 A 
ATOM      6  C   UNL     1      -6.703  -2.195  -1.635  0.00  0.00    +0.000 A 
ATOM      7  F   UNL     1      -7.064  -1.311  -2.575  0.00  0.00    +0.000 F 
ATOM      8  F   UNL     1      -8.470  -3.621  -2.301  0.00  0.00    +0.000 F 
ATOM      9  F   UNL     1      -7.759  -5.442  -0.395  0.00  0.00    +0.000 F 
ATOM     10  F   UNL     1      -5.628  -4.938   1.237  0.00  0.00    +0.000 F 
ATOM     11  F   UNL     1      -4.218  -2.630   0.968  0.00  0.00    +0.000 F 
ENDROOT
BRANCH   1  12
ATOM     12  C   UNL     1      -4.811  -0.662  -0.977  0.00  0.00    +0.000 C 
BRANCH  12  13
ATOM     13  O   UNL     1      -3.680  -0.986  -1.781  0.00  0.00    +0.000 OA
BRANCH  13  14
ATOM     14  S   UNL     1      -2.639   0.289  -2.046  0.00  0.00    +0.000 S 
BRANCH  14  18
ATOM     15  C   UNL     1       0.355  -0.392   1.368  0.00  0.00    +0.000 A 
ATOM     16  C   UNL     1      -0.238  -1.490   0.747  0.00  0.00    +0.000 A 
ATOM     17  C   UNL     1      -1.149  -1.297  -0.294  0.00  0.00    +0.000 A 
ATOM     18  C   UNL     1      -1.479  -0.005  -0.717  0.00  0.00    +0.000 A 
ATOM     19  C   UNL     1      -0.872   1.092  -0.094  0.00  0.00    +0.000 A 
ATOM     20  C   UNL     1       0.040   0.899   0.946  0.00  0.00    +0.000 A 
ENDBRANCH  14  18
ENDBRANCH  13  14
ENDBRANCH  12  13
ENDBRANCH   1  12
TORSDOF 4
