REMARK  Name = *****
REMARK  8 active torsions:
REMARK  status: ('A' for Active; 'I' for Inactive)
REMARK    1  A    between atoms: C_1  and  C_2
REMARK    2  A    between atoms: C_3  and  C_18
REMARK    3  A    between atoms: C_4  and  C_17
REMARK    4  A    between atoms: C_5  and  C_10
REMARK    5  A    between atoms: C_6  and  C_9
REMARK    6  A    between atoms: C_7  and  C_8
REMARK    7  A    between atoms: C_10  and  S_11
REMARK    8  A    between atoms: S_11  and  C_12
REMARK                            x       y       z     vdW  Elec       q    Type
REMARK                         _______ _______ _______ _____ _____    ______ ____
ROOT
ATOM      1  C   UNL     1      -2.550   1.656  -0.047  0.00  0.00    +0.000 C 
ATOM      2  C   UNL     1      -1.210   0.951  -0.021  0.00  0.00    +0.000 A 
ATOM      3  C   UNL     1      -0.025   1.730   0.025  0.00  0.00    +0.000 A 
ATOM      4  C   UNL     1       1.246   1.097  -0.012  0.00  0.00    +0.000 A 
ATOM      5  C   UNL     1       1.334  -0.320   0.061  0.00  0.00    +0.000 A 
ATOM      6  C   UNL     1       0.140  -1.093   0.148  0.00  0.00    +0.000 A 
ATOM      7  C   UNL     1      -1.126  -0.463   0.011  0.00  0.00    +0.000 A 
ATOM      8  C   UNL     1      -2.392  -1.290  -0.072  0.00  0.00    +0.000 C 
ATOM      9  C   UNL     1       0.211  -2.593   0.348  0.00  0.00    +0.000 C 
ATOM     10  C   UNL     1       2.492   1.960  -0.046  0.00  0.00    +0.000 C 
ATOM     11  C   UNL     1      -0.111   3.243   0.050  0.00  0.00    +0.000 C 
ENDROOT
BRANCH   5  12
ATOM     12  C   UNL     1       2.692  -1.014   0.060  0.00  0.00    +0.000 C 
BRANCH  12  13
ATOM     13  S   UNL     1       3.449  -1.021   1.713  0.00  0.00    +0.000 S 
BRANCH  13  14
ATOM     14  C   UNL     1       4.943  -1.823   1.362  0.00  0.00    +0.000 C 
ATOM     15  N   UNL     1       5.249  -2.313   0.202  0.00  0.00    +0.000 NA
ATOM     16  C   UNL     1       6.582  -2.922   0.390  0.00  0.00    +0.000 C 
ATOM     17  C   UNL     1       7.164  -2.267   1.631  0.00  0.00    +0.000 C 
ATOM     18  C   UNL     1       5.935  -1.990   2.466  0.00  0.00    +0.000 C 
ENDBRANCH  13  14
ENDBRANCH  12  13
ENDBRANCH   5  12
TORSDOF 3
