REMARK  Name = *****
REMARK  4 active torsions:
REMARK  status: ('A' for Active; 'I' for Inactive)
REMARK    1  A    between atoms: C_1  and  C_2
REMARK    2  A    between atoms: C_2  and  C_4
REMARK    3  A    between atoms: C_7  and  C_10
REMARK    4  A    between atoms: C_11  and  C_12
REMARK                            x       y       z     vdW  Elec       q    Type
REMARK                         _______ _______ _______ _____ _____    ______ ____
ROOT
ATOM      1  C   UNL     1       3.203  -0.981  -0.902  0.00  0.00    +0.000 A 
ATOM      2  C   UNL     1       2.696  -1.282  -2.172  0.00  0.00    +0.000 A 
ATOM      3  C   UNL     1       3.169  -2.398  -2.871  0.00  0.00    +0.000 A 
ATOM      4  C   UNL     1       4.150  -3.218  -2.308  0.00  0.00    +0.000 A 
ATOM      5  C   UNL     1       4.666  -2.916  -1.047  0.00  0.00    +0.000 A 
ATOM      6  C   UNL     1       4.196  -1.801  -0.347  0.00  0.00    +0.000 A 
ENDROOT
BRANCH   1   8
ATOM      7  C   UNL     1       1.535   0.971  -0.611  0.00  0.00    +0.000 C 
ATOM      8  C   UNL     1       2.721   0.189  -0.109  0.00  0.00    +0.000 C 
ATOM      9  O   UNL     1       3.291   0.499   0.935  0.00  0.00    +0.000 OA
ENDBRANCH   1   8
BRANCH   4  10
ATOM     10  C   UNL     1       4.609  -4.373  -3.013  0.00  0.00    +0.000 C 
ATOM     11  C   UNL     1       4.974  -5.360  -3.592  0.00  0.00    +0.000 C 
BRANCH  11  12
ATOM     12  C   UNL     1       5.387  -6.553  -4.271  0.00  0.00    +0.000 A 
ATOM     13  C   UNL     1       5.885  -6.444  -5.575  0.00  0.00    +0.000 A 
ATOM     14  C   UNL     1       6.288  -7.583  -6.276  0.00  0.00    +0.000 A 
ATOM     15  C   UNL     1       6.194  -8.839  -5.679  0.00  0.00    +0.000 A 
ATOM     16  C   UNL     1       5.701  -8.958  -4.379  0.00  0.00    +0.000 A 
ATOM     17  C   UNL     1       5.297  -7.819  -3.675  0.00  0.00    +0.000 A 
ATOM     18 CL   UNL     1       4.694  -8.035  -2.068  0.00  0.00    +0.000 Cl
ENDBRANCH  11  12
ENDBRANCH   4  10
TORSDOF 3
