REMARK  Name = *****
REMARK  4 active torsions:
REMARK  status: ('A' for Active; 'I' for Inactive)
REMARK    1  A    between atoms: C_1  and  O_2
REMARK    2  A    between atoms: O_2  and  C_3
REMARK    3  A    between atoms: C_6  and  C_9
REMARK    4  A    between atoms: C_10  and  C_11
REMARK                            x       y       z     vdW  Elec       q    Type
REMARK                         _______ _______ _______ _____ _____    ______ ____
ROOT
ATOM      1  C   UNL     1       4.985   4.744  -1.558  0.00  0.00    +0.000 C 
ATOM      2  C   UNL     1       4.657   5.988  -1.169  0.00  0.00    +0.000 C 
ENDROOT
BRANCH   2   3
ATOM      3  C   UNL     1       5.335   7.215  -1.622  0.00  0.00    +0.000 A 
ATOM      4  C   UNL     1       5.921   7.330  -2.891  0.00  0.00    +0.000 A 
ATOM      5  C   UNL     1       6.529   8.525  -3.292  0.00  0.00    +0.000 A 
ATOM      6  C   UNL     1       6.548   9.626  -2.437  0.00  0.00    +0.000 A 
ATOM      7  C   UNL     1       5.954   9.535  -1.181  0.00  0.00    +0.000 A 
ATOM      8  C   UNL     1       5.350   8.341  -0.787  0.00  0.00    +0.000 A 
ATOM      9  F   UNL     1       4.778   8.291   0.426  0.00  0.00    +0.000 F 
ENDBRANCH   2   3
BRANCH   1  13
ATOM     10  C   UNL     1       3.058   1.142  -0.243  0.00  0.00    +0.000 A 
ATOM     11  C   UNL     1       2.303   2.298  -0.438  0.00  0.00    +0.000 A 
ATOM     12  C   UNL     1       2.923   3.482  -0.859  0.00  0.00    +0.000 A 
ATOM     13  C   UNL     1       4.305   3.531  -1.080  0.00  0.00    +0.000 A 
ATOM     14  C   UNL     1       5.053   2.363  -0.897  0.00  0.00    +0.000 A 
ATOM     15  C   UNL     1       4.433   1.182  -0.477  0.00  0.00    +0.000 A 
BRANCH  10  17
ATOM     16  C   UNL     1       1.185  -0.162   0.420  0.00  0.00    +0.000 C 
ATOM     17  O   UNL     1       2.581  -0.074   0.161  0.00  0.00    +0.000 OA
ENDBRANCH  10  17
ENDBRANCH   1  13
TORSDOF 3
