REMARK  Name = *****
REMARK  4 active torsions:
REMARK  status: ('A' for Active; 'I' for Inactive)
REMARK    1  A    between atoms: C_1  and  O_2
REMARK    2  A    between atoms: O_2  and  C_3
REMARK    3  A    between atoms: C_9  and  C_10
REMARK    4  A    between atoms: C_10  and  C_11
REMARK                            x       y       z     vdW  Elec       q    Type
REMARK                         _______ _______ _______ _____ _____    ______ ____
ROOT
ATOM      1  C   UNL     1       2.725   1.015   1.137  0.00  0.00    +0.000 C 
ATOM      2  C   UNL     1       1.845   2.231   0.815  0.00  0.00    +0.000 C 
ATOM      3  C   UNL     1       1.924   3.301   1.901  0.00  0.00    +0.000 C 
ATOM      4  C   UNL     1       1.606   2.724   3.279  0.00  0.00    +0.000 C 
ATOM      5  C   UNL     1       2.484   1.515   3.601  0.00  0.00    +0.000 C 
ATOM      6  C   UNL     1       2.376   0.465   2.517  0.00  0.00    +0.000 C 
ATOM      7  C   UNL     1       2.023  -0.821   2.733  0.00  0.00    +0.000 C 
ENDROOT
BRANCH   1   9
ATOM      8  C   UNL     1       3.446   0.132  -0.948  0.00  0.00    +0.000 C 
ATOM      9  O   UNL     1       2.525   0.021   0.127  0.00  0.00    +0.000 OA
ENDBRANCH   1   9
BRANCH   7  10
ATOM     10  C   UNL     1       1.632  -1.485   4.023  0.00  0.00    +0.000 C 
BRANCH  10  11
ATOM     11  C   UNL     1       2.702  -2.420   4.535  0.00  0.00    +0.000 A 
ATOM     12  C   UNL     1       3.726  -1.942   5.364  0.00  0.00    +0.000 A 
ATOM     13  C   UNL     1       4.724  -2.802   5.826  0.00  0.00    +0.000 A 
ATOM     14  C   UNL     1       4.712  -4.146   5.458  0.00  0.00    +0.000 A 
ATOM     15  C   UNL     1       3.704  -4.631   4.626  0.00  0.00    +0.000 A 
ATOM     16  C   UNL     1       2.706  -3.772   4.163  0.00  0.00    +0.000 A 
ENDBRANCH  10  11
ENDBRANCH   7  10
TORSDOF 3
