REMARK  Name = *****
REMARK  5 active torsions:
REMARK  status: ('A' for Active; 'I' for Inactive)
REMARK    1  A    between atoms: C_1  and  C_2
REMARK    2  A    between atoms: C_5  and  C_8
REMARK    3  A    between atoms: C_8  and  O_10
REMARK    4  A    between atoms: O_10  and  C_11
REMARK    5  A    between atoms: C_15  and  C_17
REMARK                            x       y       z     vdW  Elec       q    Type
REMARK                         _______ _______ _______ _____ _____    ______ ____
ROOT
ATOM      1  C   UNL     1      -3.016   0.217  -1.010  0.00  0.00    +0.000 C 
ATOM      2  O   UNL     1      -3.773  -0.739  -0.928  0.00  0.00    +0.000 OA
ENDROOT
BRANCH   1   7
ATOM      3  C   UNL     1       2.410  -0.059   1.034  0.00  0.00    +0.000 C 
ATOM      4  C   UNL     1       1.019   0.021   0.476  0.00  0.00    +0.000 A 
ATOM      5  C   UNL     1       0.554   1.205  -0.109  0.00  0.00    +0.000 A 
ATOM      6  C   UNL     1      -0.752   1.290  -0.601  0.00  0.00    +0.000 A 
ATOM      7  C   UNL     1      -1.615   0.191  -0.503  0.00  0.00    +0.000 A 
ATOM      8  C   UNL     1      -1.155  -0.989   0.097  0.00  0.00    +0.000 A 
ATOM      9  C   UNL     1       0.151  -1.071   0.587  0.00  0.00    +0.000 A 
ENDBRANCH   1   7
BRANCH   1  10
ATOM     10  O   UNL     1      -3.289   1.456  -1.560  0.00  0.00    +0.000 OA
BRANCH  10  11
ATOM     11  C   UNL     1      -4.577   1.582  -2.088  0.00  0.00    +0.000 A 
ATOM     12  C   UNL     1      -4.912   0.954  -3.286  0.00  0.00    +0.000 A 
ATOM     13  C   UNL     1      -6.188   1.139  -3.814  0.00  0.00    +0.000 A 
ATOM     14  C   UNL     1      -7.106   1.963  -3.157  0.00  0.00    +0.000 A 
ATOM     15  C   UNL     1      -6.753   2.623  -1.970  0.00  0.00    +0.000 A 
ATOM     16  C   UNL     1      -5.476   2.422  -1.433  0.00  0.00    +0.000 A 
ATOM     17  C   UNL     1      -7.753   3.481  -1.253  0.00  0.00    +0.000 C 
ENDBRANCH  10  11
ENDBRANCH   1  10
TORSDOF 3
