REMARK  Name = *****
REMARK  4 active torsions:
REMARK  status: ('A' for Active; 'I' for Inactive)
REMARK    1  A    between atoms: C_1  and  C_2
REMARK    2  A    between atoms: C_5  and  C_7
REMARK    3  A    between atoms: C_7  and  C_8
REMARK    4  A    between atoms: C_9  and  C_10
REMARK                            x       y       z     vdW  Elec       q    Type
REMARK                         _______ _______ _______ _____ _____    ______ ____
ROOT
ATOM      1  C   UNL     1      -3.737   0.723   0.059  0.00  0.00    +0.000 C 
ATOM      2  C   UNL     1      -4.855   1.436   0.273  0.00  0.00    +0.000 C 
ENDROOT
BRANCH   2   3
ATOM      3  C   UNL     1      -6.211   0.873   0.214  0.00  0.00    +0.000 A 
ATOM      4  C   UNL     1      -7.177   1.335   1.116  0.00  0.00    +0.000 A 
ATOM      5  C   UNL     1      -8.485   0.845   1.071  0.00  0.00    +0.000 A 
ATOM      6  C   UNL     1      -8.842  -0.103   0.115  0.00  0.00    +0.000 A 
ATOM      7  C   UNL     1      -7.894  -0.558  -0.798  0.00  0.00    +0.000 A 
ATOM      8  C   UNL     1      -6.586  -0.070  -0.753  0.00  0.00    +0.000 A 
ENDBRANCH   2   3
BRANCH   1   9
ATOM      9  C   UNL     1      -2.347   1.296   0.124  0.00  0.00    +0.000 C 
BRANCH   9  14
ATOM     10  C   UNL     1       1.213  -0.503  -2.600  0.00  0.00    +0.000 C 
ATOM     11  C   UNL     1       0.036   0.359  -2.383  0.00  0.00    +0.000 A 
ATOM     12  C   UNL     1      -0.662   1.235  -3.186  0.00  0.00    +0.000 A 
ATOM     13  C   UNL     1      -1.705   1.762  -2.387  0.00  0.00    +0.000 A 
ATOM     14  C   UNL     1      -1.580   1.175  -1.145  0.00  0.00    +0.000 A 
ATOM     15  O   UNL     1      -0.519   0.319  -1.140  0.00  0.00    +0.000 OA
ENDBRANCH   9  14
ENDBRANCH   1   9
TORSDOF 3
