REMARK  Name = *****
REMARK  5 active torsions:
REMARK  status: ('A' for Active; 'I' for Inactive)
REMARK    1  A    between atoms: C_1  and  N_2
REMARK    2  A    between atoms: N_2  and  C_3
REMARK    3  A    between atoms: N_2  and  C_9
REMARK    4  A    between atoms: C_9  and  S_10
REMARK    5  A    between atoms: C_9  and  C_12
REMARK                            x       y       z     vdW  Elec       q    Type
REMARK                         _______ _______ _______ _____ _____    ______ ____
ROOT
ATOM      1  C   UNL     1       3.328   1.370   0.146  0.00  0.00    +0.000 C 
ENDROOT
BRANCH   1   2
ATOM      2  C   UNL     1       2.675   2.121   1.249  0.00  0.00    +0.000 A 
ATOM      3  C   UNL     1       2.161   1.404   2.338  0.00  0.00    +0.000 A 
ATOM      4  C   UNL     1       1.537   2.080   3.387  0.00  0.00    +0.000 A 
ATOM      5  C   UNL     1       1.422   3.470   3.350  0.00  0.00    +0.000 A 
ATOM      6  C   UNL     1       1.929   4.187   2.266  0.00  0.00    +0.000 A 
ATOM      7  C   UNL     1       2.556   3.516   1.214  0.00  0.00    +0.000 A 
ENDBRANCH   1   2
BRANCH   1   9
ATOM      8  C   UNL     1       1.239   0.432  -0.753  0.00  0.00    +0.000 C 
ATOM      9  N   UNL     1       2.643   0.263  -0.382  0.00  0.00    +0.000 N 
BRANCH   9  10
ATOM     10  C   UNL     1       3.247  -1.032  -0.570  0.00  0.00    +0.000 A 
ATOM     11  C   UNL     1       2.639  -2.010  -1.374  0.00  0.00    +0.000 A 
ATOM     12  C   UNL     1       3.203  -3.283  -1.523  0.00  0.00    +0.000 A 
ATOM     13  C   UNL     1       4.380  -3.609  -0.860  0.00  0.00    +0.000 A 
ATOM     14  C   UNL     1       4.989  -2.663  -0.044  0.00  0.00    +0.000 A 
ATOM     15  C   UNL     1       4.424  -1.391   0.104  0.00  0.00    +0.000 A 
ENDBRANCH   9  10
ENDBRANCH   1   9
BRANCH   1  16
ATOM     16  S   UNL     1       4.778   1.912  -0.428  0.00  0.00    +0.000 S 
ATOM     17  O   UNL     1       5.339   1.158  -1.584  0.00  0.00    +0.000 OA
ENDBRANCH   1  16
TORSDOF 4
