REMARK  Name = *****
REMARK  4 active torsions:
REMARK  status: ('A' for Active; 'I' for Inactive)
REMARK    1  A    between atoms: C_1  and  C_2
REMARK    2  A    between atoms: C_7  and  C_8
REMARK    3  A    between atoms: C_8  and  O_10
REMARK    4  A    between atoms: O_10  and  C_11
REMARK                            x       y       z     vdW  Elec       q    Type
REMARK                         _______ _______ _______ _____ _____    ______ ____
ROOT
ATOM      1  C   UNL     1       1.018  -2.731  -0.350  0.00  0.00    +0.000 C 
ATOM      2  O   UNL     1       2.039  -3.029   0.248  0.00  0.00    +0.000 OA
ENDROOT
BRANCH   1   9
ATOM      3  C   UNL     1       2.537  -0.187   0.000  0.00  0.00    +0.000 C 
ATOM      4  C   UNL     1       1.034  -0.227  -0.038  0.00  0.00    +0.000 A 
ATOM      5  C   UNL     1       0.319   0.971   0.126  0.00  0.00    +0.000 A 
ATOM      6  C   UNL     1      -1.077   0.983   0.103  0.00  0.00    +0.000 A 
ATOM      7  C   UNL     1      -1.782  -0.202  -0.077  0.00  0.00    +0.000 A 
ATOM      8  C   UNL     1      -1.092  -1.404  -0.232  0.00  0.00    +0.000 A 
ATOM      9  C   UNL     1       0.313  -1.426  -0.215  0.00  0.00    +0.000 A 
ENDBRANCH   1   9
BRANCH   1  10
ATOM     10  O   UNL     1       0.336  -3.501  -1.278  0.00  0.00    +0.000 OA
BRANCH  10  11
ATOM     11  C   UNL     1       0.907  -4.756  -1.508  0.00  0.00    +0.000 A 
ATOM     12  C   UNL     1       2.105  -4.875  -2.211  0.00  0.00    +0.000 A 
ATOM     13  C   UNL     1       2.610  -6.147  -2.458  0.00  0.00    +0.000 A 
ATOM     14  C   UNL     1       1.934  -7.286  -2.034  0.00  0.00    +0.000 A 
ATOM     15  C   UNL     1       0.730  -7.139  -1.355  0.00  0.00    +0.000 A 
ATOM     16  C   UNL     1       0.200  -5.881  -1.091  0.00  0.00    +0.000 A 
ATOM     17  F   UNL     1       0.064  -8.230  -0.954  0.00  0.00    +0.000 F 
ATOM     18  F   UNL     1       3.764  -6.279  -3.125  0.00  0.00    +0.000 F 
ENDBRANCH  10  11
ENDBRANCH   1  10
TORSDOF 3
