REMARK  Name = *****
REMARK  4 active torsions:
REMARK  status: ('A' for Active; 'I' for Inactive)
REMARK    1  A    between atoms: C_1  and  C_2
REMARK    2  A    between atoms: C_3  and  C_17
REMARK    3  A    between atoms: C_5  and  N_8
REMARK    4  A    between atoms: C_9  and  C_10
REMARK                            x       y       z     vdW  Elec       q    Type
REMARK                         _______ _______ _______ _____ _____    ______ ____
ROOT
ATOM      1  N   UNL     1      -3.172  -1.243   0.585  0.00  0.00    +0.000 NA
ATOM      2  C   UNL     1      -3.971  -1.193  -0.434  0.00  0.00    +0.000 C 
ENDROOT
BRANCH   1   7
ATOM      3  C   UNL     1       1.825   1.487   0.012  0.00  0.00    +0.000 C 
ATOM      4  C   UNL     1       0.522   0.748   0.147  0.00  0.00    +0.000 A 
ATOM      5  C   UNL     1       0.425  -0.630  -0.132  0.00  0.00    +0.000 A 
ATOM      6  C   UNL     1      -0.814  -1.275   0.016  0.00  0.00    +0.000 A 
ATOM      7  C   UNL     1      -1.949  -0.576   0.433  0.00  0.00    +0.000 A 
ATOM      8  C   UNL     1      -1.840   0.781   0.732  0.00  0.00    +0.000 A 
ATOM      9  C   UNL     1      -0.618   1.440   0.587  0.00  0.00    +0.000 A 
ATOM     10  C   UNL     1       1.618  -1.426  -0.587  0.00  0.00    +0.000 C 
ENDBRANCH   1   7
BRANCH   2  11
ATOM     11  C   UNL     1      -5.293  -1.848  -0.420  0.00  0.00    +0.000 A 
ATOM     12  C   UNL     1      -5.725  -2.565   0.701  0.00  0.00    +0.000 A 
ATOM     13  C   UNL     1      -6.980  -3.178   0.693  0.00  0.00    +0.000 A 
ATOM     14  C   UNL     1      -7.795  -3.070  -0.434  0.00  0.00    +0.000 A 
ATOM     15  C   UNL     1      -7.367  -2.356  -1.553  0.00  0.00    +0.000 A 
ATOM     16  C   UNL     1      -6.112  -1.742  -1.549  0.00  0.00    +0.000 A 
ATOM     17 CL   UNL     1      -9.342  -3.825  -0.444  0.00  0.00    +0.000 Cl
ENDBRANCH   2  11
TORSDOF 2
