REMARK  Name = *****
REMARK  6 active torsions:
REMARK  status: ('A' for Active; 'I' for Inactive)
REMARK    1  A    between atoms: C_1  and  C_2
REMARK    2  A    between atoms: C_2  and  N_3
REMARK    3  A    between atoms: C_2  and  N_10
REMARK    4  A    between atoms: N_3  and  C_4
REMARK    5  A    between atoms: N_10  and  C_11
REMARK    6  A    between atoms: N_10  and  C_12
REMARK                            x       y       z     vdW  Elec       q    Type
REMARK                         _______ _______ _______ _____ _____    ______ ____
ROOT
ATOM      1  C   UNL     1       1.269   0.687  -0.523  0.00  0.00    +0.000 C 
ATOM      2  C   UNL     1       2.488  -0.068   0.020  0.00  0.00    +0.000 C 
ENDROOT
BRANCH   2   3
ATOM      3  N   UNL     1       2.965   0.181   1.212  0.00  0.00    +0.000 N 
ATOM      4  H   UNL     1       3.757  -0.314   1.521  0.00  0.00    +0.000 HD
BRANCH   3   5
ATOM      5  C   UNL     1       2.386   1.128   2.060  0.00  0.00    +0.000 A 
ATOM      6  C   UNL     1       1.302   0.788   2.874  0.00  0.00    +0.000 A 
ATOM      7  C   UNL     1       0.746   1.730   3.741  0.00  0.00    +0.000 A 
ATOM      8  C   UNL     1       1.283   3.015   3.810  0.00  0.00    +0.000 A 
ATOM      9  C   UNL     1       2.379   3.355   3.018  0.00  0.00    +0.000 A 
ATOM     10  C   UNL     1       2.933   2.411   2.152  0.00  0.00    +0.000 A 
ENDBRANCH   3   5
ENDBRANCH   2   3
BRANCH   2  11
ATOM     11  N   UNL     1       3.058  -1.044  -0.819  0.00  0.00    +0.000 N 
ATOM     12  C   UNL     1       2.581  -1.288  -2.178  0.00  0.00    +0.000 C 
BRANCH  11  13
ATOM     13  C   UNL     1       4.247  -1.747  -0.481  0.00  0.00    +0.000 A 
ATOM     14  C   UNL     1       5.299  -1.904  -1.400  0.00  0.00    +0.000 A 
ATOM     15  C   UNL     1       6.458  -2.605  -1.055  0.00  0.00    +0.000 A 
ATOM     16  C   UNL     1       6.598  -3.168   0.209  0.00  0.00    +0.000 A 
ATOM     17  C   UNL     1       5.572  -3.025   1.136  0.00  0.00    +0.000 A 
ATOM     18  C   UNL     1       4.412  -2.322   0.792  0.00  0.00    +0.000 A 
ATOM     19 CL   UNL     1       7.727  -2.772  -2.208  0.00  0.00    +0.000 Cl
ENDBRANCH  11  13
ENDBRANCH   2  11
TORSDOF 4
