REMARK  Name = *****
REMARK  4 active torsions:
REMARK  status: ('A' for Active; 'I' for Inactive)
REMARK    1  A    between atoms: C_4  and  C_7
REMARK    2  A    between atoms: C_7  and  C_8
REMARK    3  A    between atoms: C_8  and  C_9
REMARK    4  A    between atoms: C_8  and  C_11
REMARK                            x       y       z     vdW  Elec       q    Type
REMARK                         _______ _______ _______ _____ _____    ______ ____
ROOT
ATOM      1  C   UNL     1      -3.683  -0.853   0.291  0.00  0.00    +0.000 C 
ENDROOT
BRANCH   1   2
ATOM      2  C   UNL     1      -5.116  -0.640  -0.192  0.00  0.00    +0.000 A 
ATOM      3  C   UNL     1      -5.625  -1.428  -1.239  0.00  0.00    +0.000 A 
ATOM      4  C   UNL     1      -6.931  -1.242  -1.697  0.00  0.00    +0.000 A 
ATOM      5  C   UNL     1      -7.733  -0.271  -1.110  0.00  0.00    +0.000 A 
ATOM      6  C   UNL     1      -7.254   0.518  -0.073  0.00  0.00    +0.000 A 
ATOM      7  C   UNL     1      -5.949   0.336   0.388  0.00  0.00    +0.000 A 
ATOM      8  F   UNL     1      -8.985  -0.095  -1.552  0.00  0.00    +0.000 F 
ENDBRANCH   1   2
BRANCH   1   9
ATOM      9  C   UNL     1      -3.656  -1.296   1.703  0.00  0.00    +0.000 C 
ATOM     10  N   UNL     1      -3.633  -1.625   2.817  0.00  0.00    +0.000 NA
ENDBRANCH   1   9
BRANCH   1  11
ATOM     11  C   UNL     1      -2.843   0.427   0.098  0.00  0.00    +0.000 C 
BRANCH  11  15
ATOM     12  C   UNL     1       1.397  -0.373   0.160  0.00  0.00    +0.000 A 
ATOM     13  C   UNL     1       0.691  -0.446  -1.039  0.00  0.00    +0.000 A 
ATOM     14  C   UNL     1      -0.679  -0.180  -1.060  0.00  0.00    +0.000 A 
ATOM     15  C   UNL     1      -1.354   0.164   0.120  0.00  0.00    +0.000 A 
ATOM     16  C   UNL     1      -0.634   0.233   1.320  0.00  0.00    +0.000 A 
ATOM     17  C   UNL     1       0.736  -0.035   1.338  0.00  0.00    +0.000 A 
ENDBRANCH  11  15
ENDBRANCH   1  11
TORSDOF 4
