REMARK  Name = *****
REMARK  2 active torsions:
REMARK  status: ('A' for Active; 'I' for Inactive)
REMARK    1  A    between atoms: C_5  and  C_7
REMARK    2  A    between atoms: C_8  and  C_9
REMARK                            x       y       z     vdW  Elec       q    Type
REMARK                         _______ _______ _______ _____ _____    ______ ____
ROOT
ATOM      1  C   UNL     1       1.541  -1.572  -1.380  0.00  0.00    +0.000 C 
ATOM      2  C   UNL     1       1.937  -1.941  -2.453  0.00  0.00    +0.000 C 
ENDROOT
BRANCH   2   3
ATOM      3  C   UNL     1       2.410  -2.390  -3.725  0.00  0.00    +0.000 A 
ATOM      4  C   UNL     1       2.532  -1.489  -4.786  0.00  0.00    +0.000 A 
ATOM      5  C   UNL     1       2.995  -1.929  -6.029  0.00  0.00    +0.000 A 
ATOM      6  C   UNL     1       3.333  -3.270  -6.205  0.00  0.00    +0.000 A 
ATOM      7  C   UNL     1       3.214  -4.175  -5.151  0.00  0.00    +0.000 A 
ATOM      8  C   UNL     1       2.751  -3.733  -3.909  0.00  0.00    +0.000 A 
ATOM      9 BR   UNL     1       3.960  -3.868  -7.886  0.00  0.00    +0.000 Br
ENDBRANCH   2   3
BRANCH   1  14
ATOM     10  C   UNL     1       0.457   1.311  -0.450  0.00  0.00    +0.000 C 
ATOM     11  C   UNL     1      -0.981   1.064   0.012  0.00  0.00    +0.000 C 
ATOM     12  C   UNL     1      -1.337  -0.392   0.077  0.00  0.00    +0.000 C 
ATOM     13  C   UNL     1      -0.423  -1.374   0.027  0.00  0.00    +0.000 C 
ATOM     14  C   UNL     1       1.062  -1.132  -0.056  0.00  0.00    +0.000 C 
ATOM     15  C   UNL     1       1.434   0.337   0.211  0.00  0.00    +0.000 C 
ENDBRANCH   1  14
TORSDOF 2
