REMARK  Name = *****
REMARK  4 active torsions:
REMARK  status: ('A' for Active; 'I' for Inactive)
REMARK    1  A    between atoms: C_1  and  C_2
REMARK    2  A    between atoms: C_5  and  S_8
REMARK    3  A    between atoms: S_8  and  C_9
REMARK    4  A    between atoms: C_9  and  C_10
REMARK                            x       y       z     vdW  Elec       q    Type
REMARK                         _______ _______ _______ _____ _____    ______ ____
ROOT
ATOM      1  S   UNL     1      -3.459   0.118  -0.966  0.00  0.00    +0.000 S 
ENDROOT
BRANCH   1   6
ATOM      2  C   UNL     1       2.334  -0.607   0.789  0.00  0.00    +0.000 C 
ATOM      3  C   UNL     1       0.917  -0.431   0.329  0.00  0.00    +0.000 A 
ATOM      4  C   UNL     1       0.525   0.735  -0.337  0.00  0.00    +0.000 A 
ATOM      5  C   UNL     1      -0.802   0.911  -0.739  0.00  0.00    +0.000 A 
ATOM      6  C   UNL     1      -1.759  -0.069  -0.463  0.00  0.00    +0.000 A 
ATOM      7  C   UNL     1      -1.370  -1.235   0.202  0.00  0.00    +0.000 A 
ATOM      8  C   UNL     1      -0.044  -1.411   0.604  0.00  0.00    +0.000 A 
ENDBRANCH   1   6
BRANCH   1   9
ATOM      9  C   UNL     1      -3.884   1.637  -0.052  0.00  0.00    +0.000 C 
BRANCH   9  10
ATOM     10  C   UNL     1      -5.357   1.949  -0.161  0.00  0.00    +0.000 A 
ATOM     11  C   UNL     1      -6.261   1.462   0.798  0.00  0.00    +0.000 A 
ATOM     12  C   UNL     1      -7.624   1.741   0.689  0.00  0.00    +0.000 A 
ATOM     13  C   UNL     1      -8.086   2.500  -0.379  0.00  0.00    +0.000 A 
ATOM     14  C   UNL     1      -7.211   2.984  -1.344  0.00  0.00    +0.000 A 
ATOM     15  C   UNL     1      -5.847   2.707  -1.238  0.00  0.00    +0.000 A 
ATOM     16  F   UNL     1      -9.394   2.767  -0.482  0.00  0.00    +0.000 F 
ENDBRANCH   9  10
ENDBRANCH   1   9
TORSDOF 3
