REMARK  Name = *****
REMARK  6 active torsions:
REMARK  status: ('A' for Active; 'I' for Inactive)
REMARK    1  A    between atoms: C_1  and  C_2
REMARK    2  A    between atoms: C_2  and  O_3
REMARK    3  A    between atoms: O_3  and  C_4
REMARK    4  A    between atoms: C_4  and  C_5
REMARK    5  A    between atoms: C_4  and  C_12
REMARK    6  A    between atoms: C_5  and  C_6
REMARK                            x       y       z     vdW  Elec       q    Type
REMARK                         _______ _______ _______ _____ _____    ______ ____
ROOT
ATOM      1  C   UNL     1       4.588  -1.245  -0.547  0.00  0.00    +0.000 C 
ATOM      2  S   UNL     1       5.349  -2.946  -0.940  0.00  0.00    +0.000 S 
ENDROOT
BRANCH   1   3
ATOM      3  C   UNL     1       5.058  -0.909   0.929  0.00  0.00    +0.000 C 
ATOM      4  C   UNL     1       4.196   0.181   1.616  0.00  0.00    +0.000 C 
ATOM      5  C   UNL     1       4.592   0.382   3.079  0.00  0.00    +0.000 C 
ATOM      6  C   UNL     1       6.072   0.715   3.220  0.00  0.00    +0.000 C 
ATOM      7  C   UNL     1       6.944  -0.335   2.545  0.00  0.00    +0.000 C 
ATOM      8  C   UNL     1       6.553  -0.538   1.080  0.00  0.00    +0.000 C 
ENDBRANCH   1   3
BRANCH   1   9
ATOM      9  O   UNL     1       3.150  -1.356  -0.508  0.00  0.00    +0.000 OA
BRANCH   9  11
ATOM     10  C   UNL     1       0.983  -1.708  -1.417  0.00  0.00    +0.000 C 
ATOM     11  C   UNL     1       2.476  -1.857  -1.658  0.00  0.00    +0.000 C 
ENDBRANCH   9  11
ENDBRANCH   1   9
BRANCH   1  12
ATOM     12  C   UNL     1       5.117  -0.269  -1.655  0.00  0.00    +0.000 C 
BRANCH  12  13
ATOM     13  C   UNL     1       4.772   1.211  -1.562  0.00  0.00    +0.000 A 
ATOM     14  C   UNL     1       5.798   2.169  -1.550  0.00  0.00    +0.000 A 
ATOM     15  C   UNL     1       5.507   3.534  -1.496  0.00  0.00    +0.000 A 
ATOM     16  C   UNL     1       4.182   3.962  -1.466  0.00  0.00    +0.000 A 
ATOM     17  C   UNL     1       3.152   3.025  -1.494  0.00  0.00    +0.000 A 
ATOM     18  C   UNL     1       3.446   1.661  -1.547  0.00  0.00    +0.000 A 
ENDBRANCH  12  13
ENDBRANCH   1  12
TORSDOF 5
