REMARK  Name = *****
REMARK  5 active torsions:
REMARK  status: ('A' for Active; 'I' for Inactive)
REMARK    1  A    between atoms: C_1  and  C_2
REMARK    2  A    between atoms: C_5  and  S_8
REMARK    3  A    between atoms: S_8  and  O_10
REMARK    4  A    between atoms: O_10  and  C_11
REMARK    5  A    between atoms: C_11  and  C_12
REMARK                            x       y       z     vdW  Elec       q    Type
REMARK                         _______ _______ _______ _____ _____    ______ ____
ROOT
ATOM      1  S   UNL     1      -3.157   0.081  -0.791  0.00  0.00    +0.000 S 
ATOM      2  O   UNL     1      -4.026  -0.299   0.372  0.00  0.00    +0.000 OA
ENDROOT
BRANCH   1   7
ATOM      3  C   UNL     1       2.615   0.151   1.253  0.00  0.00    +0.000 C 
ATOM      4  C   UNL     1       1.202   0.106   0.752  0.00  0.00    +0.000 A 
ATOM      5  C   UNL     1       0.909   0.469  -0.568  0.00  0.00    +0.000 A 
ATOM      6  C   UNL     1      -0.410   0.463  -1.028  0.00  0.00    +0.000 A 
ATOM      7  C   UNL     1      -1.456   0.104  -0.170  0.00  0.00    +0.000 A 
ATOM      8  C   UNL     1      -1.167  -0.251   1.151  0.00  0.00    +0.000 A 
ATOM      9  C   UNL     1       0.153  -0.241   1.611  0.00  0.00    +0.000 A 
ENDBRANCH   1   7
BRANCH   1  10
ATOM     10  O   UNL     1      -3.209   1.684  -0.943  0.00  0.00    +0.000 OA
BRANCH  10  11
ATOM     11  C   UNL     1      -4.511   2.251  -0.856  0.00  0.00    +0.000 C 
BRANCH  11  12
ATOM     12  C   UNL     1      -4.411   3.731  -1.136  0.00  0.00    +0.000 A 
ATOM     13  C   UNL     1      -4.794   4.669  -0.166  0.00  0.00    +0.000 A 
ATOM     14  C   UNL     1      -4.708   6.037  -0.431  0.00  0.00    +0.000 A 
ATOM     15  C   UNL     1      -4.238   6.481  -1.665  0.00  0.00    +0.000 A 
ATOM     16  C   UNL     1      -3.854   5.559  -2.637  0.00  0.00    +0.000 A 
ATOM     17  C   UNL     1      -3.941   4.191  -2.375  0.00  0.00    +0.000 A 
ENDBRANCH  11  12
ENDBRANCH  10  11
ENDBRANCH   1  10
TORSDOF 4
