REMARK  Name = *****
REMARK  2 active torsions:
REMARK  status: ('A' for Active; 'I' for Inactive)
REMARK    1  A    between atoms: C_3  and  C_6
REMARK    2  A    between atoms: C_7  and  C_8
REMARK                            x       y       z     vdW  Elec       q    Type
REMARK                         _______ _______ _______ _____ _____    ______ ____
ROOT
ATOM      1  C   UNL     1       0.200  -2.163   1.210  0.00  0.00    +0.000 C 
ATOM      2  C   UNL     1       1.198  -3.027   1.459  0.00  0.00    +0.000 C 
ENDROOT
BRANCH   2   3
ATOM      3  C   UNL     1       1.226  -3.865   2.613  0.00  0.00    +0.000 A 
ATOM      4  C   UNL     1       0.319  -4.024   3.652  0.00  0.00    +0.000 A 
ATOM      5  C   UNL     1       0.736  -4.981   4.628  0.00  0.00    +0.000 A 
ATOM      6  C   UNL     1       1.949  -5.521   4.297  0.00  0.00    +0.000 A 
ATOM      7  S   UNL     1       2.585  -4.908   2.856  0.00  0.00    +0.000 S 
ATOM      8  I   UNL     1       2.914  -6.938   5.429  0.00  0.00    +0.000 I 
ENDBRANCH   2   3
BRANCH   1  11
ATOM      9  C   UNL     1      -1.076   0.706  -0.128  0.00  0.00    +0.000 C 
ATOM     10  C   UNL     1       0.053   0.182   0.376  0.00  0.00    +0.000 C 
ATOM     11  C   UNL     1       0.158  -1.274   0.000  0.00  0.00    +0.000 C 
ATOM     12  C   UNL     1      -1.108  -1.465  -0.794  0.00  0.00    +0.000 C 
ATOM     13  C   UNL     1      -1.794  -0.314  -0.852  0.00  0.00    +0.000 C 
ENDBRANCH   1  11
TORSDOF 2
