REMARK  Name = *****
REMARK  5 active torsions:
REMARK  status: ('A' for Active; 'I' for Inactive)
REMARK    1  A    between atoms: C_6  and  C_7
REMARK    2  A    between atoms: C_8  and  C_9
REMARK    3  A    between atoms: C_11  and  N_17
REMARK    4  A    between atoms: C_12  and  N_15
REMARK    5  A    between atoms: N_17  and  O_18
REMARK                            x       y       z     vdW  Elec       q    Type
REMARK                         _______ _______ _______ _____ _____    ______ ____
ROOT
ATOM      1  C   UNL     1       6.070   1.181  -0.025  0.00  0.00    +0.000 A 
ATOM      2  C   UNL     1       6.808   0.206  -0.711  0.00  0.00    +0.000 A 
ATOM      3  C   UNL     1       8.216   0.228  -0.734  0.00  0.00    +0.000 A 
ATOM      4  C   UNL     1       8.894   1.244  -0.014  0.00  0.00    +0.000 A 
ATOM      5  C   UNL     1       8.151   2.220   0.666  0.00  0.00    +0.000 A 
ATOM      6  C   UNL     1       6.753   2.197   0.649  0.00  0.00    +0.000 A 
ENDROOT
BRANCH   1   8
ATOM      7  C   UNL     1       3.840   0.097   0.057  0.00  0.00    +0.000 C 
ATOM      8  C   UNL     1       4.600   1.201  -0.032  0.00  0.00    +0.000 C 
BRANCH   7  14
ATOM      9  C   UNL     1       1.627   1.092   0.718  0.00  0.00    +0.000 A 
ATOM     10  C   UNL     1       0.229   1.056   0.706  0.00  0.00    +0.000 A 
ATOM     11  C   UNL     1      -0.432   0.036   0.026  0.00  0.00    +0.000 A 
ATOM     12  C   UNL     1       0.292  -0.952  -0.636  0.00  0.00    +0.000 A 
ATOM     13  C   UNL     1       1.689  -0.916  -0.621  0.00  0.00    +0.000 A 
ATOM     14  C   UNL     1       2.370   0.114   0.043  0.00  0.00    +0.000 A 
ATOM     15 CL   UNL     1      -2.152  -0.008   0.012  0.00  0.00    +0.000 Cl
ENDBRANCH   7  14
ENDBRANCH   1   8
BRANCH   4  16
ATOM     16  N   UNL     1      10.273   1.309   0.080  0.00  0.00    +0.000 NA
ATOM     17  O   UNL     1      10.826   1.335  -1.026  0.00  0.00    +0.000 OA
ENDBRANCH   4  16
BRANCH   3  18
ATOM     18  N   UNL     1       8.930  -0.835  -1.362  0.00  0.00    +0.000 N 
ATOM     19  H   UNL     1       9.871  -1.009  -1.130  0.00  0.00    +0.000 HD
BRANCH  18  20
ATOM     20  O   UNL     1       8.279  -1.627  -2.309  0.00  0.00    +0.000 OA
ATOM     21  H   UNL     1       7.365  -1.319  -2.414  0.00  0.00    +0.000 HD
ENDBRANCH  18  20
ENDBRANCH   3  18
TORSDOF 5
