REMARK  Name = *****
REMARK  3 active torsions:
REMARK  status: ('A' for Active; 'I' for Inactive)
REMARK    1  A    between atoms: C_4  and  C_16
REMARK    2  A    between atoms: C_5  and  C_7
REMARK    3  A    between atoms: C_8  and  C_9
REMARK                            x       y       z     vdW  Elec       q    Type
REMARK                         _______ _______ _______ _____ _____    ______ ____
ROOT
ATOM      1  C   UNL     1      -1.108   2.613   0.279  0.00  0.00    +0.000 C 
ATOM      2  C   UNL     1      -2.388   2.835   0.617  0.00  0.00    +0.000 C 
ENDROOT
BRANCH   2   3
ATOM      3  C   UNL     1      -2.947   4.172   0.857  0.00  0.00    +0.000 A 
ATOM      4  C   UNL     1      -2.601   5.279   0.070  0.00  0.00    +0.000 A 
ATOM      5  C   UNL     1      -3.177   6.530   0.311  0.00  0.00    +0.000 A 
ATOM      6  C   UNL     1      -4.110   6.678   1.334  0.00  0.00    +0.000 A 
ATOM      7  C   UNL     1      -4.476   5.585   2.115  0.00  0.00    +0.000 A 
ATOM      8  C   UNL     1      -3.900   4.334   1.872  0.00  0.00    +0.000 A 
ATOM      9 CL   UNL     1      -4.820   8.217   1.630  0.00  0.00    +0.000 Cl
ENDBRANCH   2   3
BRANCH   1  14
ATOM     10  C   UNL     1      -0.462  -0.693  -1.384  0.00  0.00    +0.000 A 
ATOM     11  C   UNL     1       0.327  -1.352  -0.444  0.00  0.00    +0.000 A 
ATOM     12  C   UNL     1       0.655  -0.718   0.754  0.00  0.00    +0.000 A 
ATOM     13  C   UNL     1       0.195   0.581   1.016  0.00  0.00    +0.000 A 
ATOM     14  C   UNL     1      -0.598   1.254   0.072  0.00  0.00    +0.000 A 
ATOM     15  C   UNL     1      -0.922   0.601  -1.129  0.00  0.00    +0.000 A 
BRANCH  13  16
ATOM     16  C   UNL     1       0.561   1.208   2.308  0.00  0.00    +0.000 C 
ATOM     17  O   UNL     1       1.264   0.634   3.133  0.00  0.00    +0.000 OA
ENDBRANCH  13  16
ENDBRANCH   1  14
TORSDOF 3
