REMARK  Name = *****
REMARK  4 active torsions:
REMARK  status: ('A' for Active; 'I' for Inactive)
REMARK    1  A    between atoms: C_1  and  C_2
REMARK    2  A    between atoms: C_3  and  O_9
REMARK    3  A    between atoms: O_9  and  C_10
REMARK    4  A    between atoms: C_10  and  C_12
REMARK                            x       y       z     vdW  Elec       q    Type
REMARK                         _______ _______ _______ _____ _____    ______ ____
ROOT
ATOM      1  C   UNL     1      -3.937  -1.933   0.764  0.00  0.00    +0.000 C 
ATOM      2  O   UNL     1      -3.557  -3.018   0.357  0.00  0.00    +0.000 OA
ENDROOT
BRANCH   1   3
ATOM      3  C   UNL     1      -5.258  -1.735   1.387  0.00  0.00    +0.000 A 
ATOM      4  C   UNL     1      -5.999  -0.572   1.176  0.00  0.00    +0.000 A 
ATOM      5  C   UNL     1      -7.242  -0.421   1.779  0.00  0.00    +0.000 A 
ATOM      6  C   UNL     1      -7.750  -1.431   2.588  0.00  0.00    +0.000 A 
ATOM      7  C   UNL     1      -7.029  -2.604   2.797  0.00  0.00    +0.000 A 
ATOM      8  C   UNL     1      -5.781  -2.762   2.189  0.00  0.00    +0.000 A 
ATOM      9  F   UNL     1      -8.946  -1.286   3.173  0.00  0.00    +0.000 F 
ATOM     10  F   UNL     1      -7.954   0.696   1.575  0.00  0.00    +0.000 F 
ATOM     11  F   UNL     1      -5.542   0.402   0.375  0.00  0.00    +0.000 F 
ENDBRANCH   1   3
BRANCH   1  12
ATOM     12  O   UNL     1      -3.233  -0.744   0.830  0.00  0.00    +0.000 OA
BRANCH  12  15
ATOM     13  C   UNL     1      -2.519   1.774  -0.193  0.00  0.00    +0.000 C 
ATOM     14  C   UNL     1      -1.528   0.648  -0.116  0.00  0.00    +0.000 A 
ATOM     15  C   UNL     1      -1.901  -0.616   0.373  0.00  0.00    +0.000 A 
ATOM     16  C   UNL     1      -0.971  -1.653   0.471  0.00  0.00    +0.000 A 
ATOM     17  C   UNL     1       0.342  -1.444   0.045  0.00  0.00    +0.000 A 
ATOM     18  C   UNL     1       0.719  -0.200  -0.457  0.00  0.00    +0.000 A 
ATOM     19  C   UNL     1      -0.205   0.843  -0.536  0.00  0.00    +0.000 A 
ATOM     20 CL   UNL     1       2.341   0.056  -0.972  0.00  0.00    +0.000 Cl
ENDBRANCH  12  15
ENDBRANCH   1  12
TORSDOF 3
