REMARK  Name = *****
REMARK  3 active torsions:
REMARK  status: ('A' for Active; 'I' for Inactive)
REMARK    1  A    between atoms: C_4  and  O_7
REMARK    2  A    between atoms: O_7  and  C_8
REMARK    3  A    between atoms: C_8  and  C_9
REMARK                            x       y       z     vdW  Elec       q    Type
REMARK                         _______ _______ _______ _____ _____    ______ ____
ROOT
ATOM      1  O   UNL     1      -2.751   0.425  -0.078  0.00  0.00    +0.000 OA
ENDROOT
BRANCH   1   5
ATOM      2  C   UNL     1       1.368  -0.173   0.057  0.00  0.00    +0.000 A 
ATOM      3  C   UNL     1       0.547  -1.281  -0.144  0.00  0.00    +0.000 A 
ATOM      4  C   UNL     1      -0.843  -1.129  -0.197  0.00  0.00    +0.000 A 
ATOM      5  C   UNL     1      -1.415   0.135  -0.047  0.00  0.00    +0.000 A 
ATOM      6  C   UNL     1      -0.585   1.241   0.156  0.00  0.00    +0.000 A 
ATOM      7  C   UNL     1       0.802   1.090   0.208  0.00  0.00    +0.000 A 
ENDBRANCH   1   5
BRANCH   1   8
ATOM      8  C   UNL     1      -3.646  -0.666  -0.293  0.00  0.00    +0.000 C 
BRANCH   8   9
ATOM      9  C   UNL     1      -5.037  -0.100  -0.325  0.00  0.00    +0.000 A 
ATOM     10  C   UNL     1      -5.468   1.143  -0.759  0.00  0.00    +0.000 A 
ATOM     11  C   UNL     1      -6.881   1.301  -0.645  0.00  0.00    +0.000 A 
ATOM     12  C   UNL     1      -7.464   0.169  -0.139  0.00  0.00    +0.000 A 
ATOM     13  S   UNL     1      -6.360  -1.066   0.197  0.00  0.00    +0.000 S 
ATOM     14 CL   UNL     1      -9.137  -0.077   0.157  0.00  0.00    +0.000 Cl
ENDBRANCH   8   9
ENDBRANCH   1   8
TORSDOF 3
