REMARK  Name = *****
REMARK  3 active torsions:
REMARK  status: ('A' for Active; 'I' for Inactive)
REMARK    1  A    between atoms: C_2  and  C_13
REMARK    2  A    between atoms: C_3  and  C_4
REMARK    3  A    between atoms: C_4  and  C_6
REMARK                            x       y       z     vdW  Elec       q    Type
REMARK                         _______ _______ _______ _____ _____    ______ ____
ROOT
ATOM      1  C   UNL     1      -0.167   0.506  -0.078  0.00  0.00    +0.000 C 
ATOM      2  C   UNL     1       0.753  -0.645   0.247  0.00  0.00    +0.000 C 
ATOM      3  C   UNL     1      -0.684  -0.904  -0.182  0.00  0.00    +0.000 C 
ENDROOT
BRANCH   2   4
ATOM      4  C   UNL     1       1.877  -1.019  -0.690  0.00  0.00    +0.000 A 
ATOM      5  C   UNL     1       2.819  -0.072  -1.124  0.00  0.00    +0.000 A 
ATOM      6  C   UNL     1       3.861  -0.424  -1.986  0.00  0.00    +0.000 A 
ATOM      7  C   UNL     1       3.986  -1.738  -2.428  0.00  0.00    +0.000 A 
ATOM      8  C   UNL     1       3.074  -2.699  -2.002  0.00  0.00    +0.000 A 
ATOM      9  C   UNL     1       2.036  -2.341  -1.139  0.00  0.00    +0.000 A 
ENDBRANCH   2   4
BRANCH   3  10
ATOM     10  C   UNL     1      -1.679  -1.406   0.806  0.00  0.00    +0.000 C 
ATOM     11  O   UNL     1      -1.325  -1.742   1.930  0.00  0.00    +0.000 OA
BRANCH  10  12
ATOM     12  C   UNL     1      -3.110  -1.502   0.404  0.00  0.00    +0.000 A 
ATOM     13  C   UNL     1      -3.600  -0.889  -0.757  0.00  0.00    +0.000 A 
ATOM     14  C   UNL     1      -4.950  -1.021  -1.101  0.00  0.00    +0.000 A 
ATOM     15  C   UNL     1      -5.808  -1.758  -0.286  0.00  0.00    +0.000 A 
ATOM     16  C   UNL     1      -5.332  -2.362   0.875  0.00  0.00    +0.000 A 
ATOM     17  C   UNL     1      -3.985  -2.232   1.221  0.00  0.00    +0.000 A 
ATOM     18 CL   UNL     1      -7.465  -1.921  -0.718  0.00  0.00    +0.000 Cl
ENDBRANCH  10  12
ENDBRANCH   3  10
TORSDOF 3
