REMARK  Name = *****
REMARK  3 active torsions:
REMARK  status: ('A' for Active; 'I' for Inactive)
REMARK    1  A    between atoms: C_3  and  C_7
REMARK    2  A    between atoms: C_7  and  C_8
REMARK    3  A    between atoms: C_9  and  C_10
REMARK                            x       y       z     vdW  Elec       q    Type
REMARK                         _______ _______ _______ _____ _____    ______ ____
ROOT
ATOM      1  C   UNL     1      -1.512   2.023  -2.385  0.00  0.00    +0.000 C 
ATOM      2  C   UNL     1      -2.617   2.374  -3.062  0.00  0.00    +0.000 C 
ENDROOT
BRANCH   2   3
ATOM      3  C   UNL     1      -2.896   3.733  -3.547  0.00  0.00    +0.000 A 
ATOM      4  C   UNL     1      -1.892   4.572  -4.047  0.00  0.00    +0.000 A 
ATOM      5  C   UNL     1      -2.203   5.847  -4.529  0.00  0.00    +0.000 A 
ATOM      6  C   UNL     1      -3.523   6.291  -4.526  0.00  0.00    +0.000 A 
ATOM      7  C   UNL     1      -4.534   5.460  -4.047  0.00  0.00    +0.000 A 
ATOM      8  C   UNL     1      -4.222   4.186  -3.565  0.00  0.00    +0.000 A 
ENDBRANCH   2   3
BRANCH   1   9
ATOM      9  C   UNL     1      -1.245   0.624  -1.898  0.00  0.00    +0.000 C 
BRANCH   9  12
ATOM     10  C   UNL     1       1.164   0.858   0.120  0.00  0.00    +0.000 C 
ATOM     11  C   UNL     1      -0.270   1.328   0.389  0.00  0.00    +0.000 C 
ATOM     12  C   UNL     1      -1.320   0.486  -0.360  0.00  0.00    +0.000 C 
ATOM     13  C   UNL     1      -1.175  -0.993   0.061  0.00  0.00    +0.000 C 
ATOM     14  C   UNL     1       0.249  -1.470   0.110  0.00  0.00    +0.000 C 
ATOM     15  C   UNL     1       1.300  -0.637   0.122  0.00  0.00    +0.000 C 
ENDBRANCH   9  12
ENDBRANCH   1   9
TORSDOF 3
