REMARK  Name = *****
REMARK  2 active torsions:
REMARK  status: ('A' for Active; 'I' for Inactive)
REMARK    1  A    between atoms: C_4  and  O_7
REMARK    2  A    between atoms: O_7  and  C_8
REMARK                            x       y       z     vdW  Elec       q    Type
REMARK                         _______ _______ _______ _____ _____    ______ ____
ROOT
ATOM      1  C   UNL     1      -3.841  -0.725  -0.141  0.00  0.00    +0.000 A 
ATOM      2  N   UNL     1      -3.971  -1.964   0.287  0.00  0.00    +0.000 NA
ATOM      3  C   UNL     1      -5.161  -2.358  -0.270  0.00  0.00    +0.000 A 
ATOM      4  C   UNL     1      -5.854  -3.573  -0.197  0.00  0.00    +0.000 A 
ATOM      5  C   UNL     1      -7.072  -3.683  -0.887  0.00  0.00    +0.000 A 
ATOM      6  C   UNL     1      -7.583  -2.610  -1.629  0.00  0.00    +0.000 A 
ATOM      7  C   UNL     1      -6.903  -1.389  -1.711  0.00  0.00    +0.000 A 
ATOM      8  C   UNL     1      -5.702  -1.321  -1.014  0.00  0.00    +0.000 A 
ATOM      9  O   UNL     1      -4.853  -0.257  -0.930  0.00  0.00    +0.000 OA
ENDROOT
BRANCH   1  10
ATOM     10  O   UNL     1      -2.877   0.153   0.109  0.00  0.00    +0.000 OA
BRANCH  10  14
ATOM     11  C   UNL     1       0.680  -0.737   2.080  0.00  0.00    +0.000 A 
ATOM     12  C   UNL     1       0.169  -1.659   1.166  0.00  0.00    +0.000 A 
ATOM     13  C   UNL     1      -1.028  -1.392   0.498  0.00  0.00    +0.000 A 
ATOM     14  C   UNL     1      -1.723  -0.208   0.757  0.00  0.00    +0.000 A 
ATOM     15  C   UNL     1      -1.197   0.722   1.657  0.00  0.00    +0.000 A 
ATOM     16  C   UNL     1      -0.001   0.455   2.324  0.00  0.00    +0.000 A 
ENDBRANCH  10  14
ENDBRANCH   1  10
TORSDOF 2
