REMARK  Name = *****
REMARK  4 active torsions:
REMARK  status: ('A' for Active; 'I' for Inactive)
REMARK    1  A    between atoms: C_3  and  C_16
REMARK    2  A    between atoms: C_6  and  N_7
REMARK    3  A    between atoms: C_8  and  C_9
REMARK    4  A    between atoms: C_12  and  C_15
REMARK                            x       y       z     vdW  Elec       q    Type
REMARK                         _______ _______ _______ _____ _____    ______ ____
ROOT
ATOM      1  N   UNL     1       2.167   2.508  -0.305  0.00  0.00    +0.000 NA
ATOM      2  C   UNL     1       0.941   2.553  -0.725  0.00  0.00    +0.000 C 
ENDROOT
BRANCH   1   8
ATOM      3  C   UNL     1       2.565   0.509   1.016  0.00  0.00    +0.000 A 
ATOM      4  C   UNL     1       3.124  -0.765   1.152  0.00  0.00    +0.000 A 
ATOM      5  C   UNL     1       3.844  -1.338   0.097  0.00  0.00    +0.000 A 
ATOM      6  C   UNL     1       4.022  -0.604  -1.082  0.00  0.00    +0.000 A 
ATOM      7  C   UNL     1       3.461   0.668  -1.214  0.00  0.00    +0.000 A 
ATOM      8  C   UNL     1       2.717   1.225  -0.172  0.00  0.00    +0.000 A 
ATOM      9  C   UNL     1       4.479  -2.688   0.256  0.00  0.00    +0.000 C 
ENDBRANCH   1   8
BRANCH   2  10
ATOM     10  C   UNL     1       0.226   3.829  -0.914  0.00  0.00    +0.000 A 
ATOM     11  C   UNL     1       0.854   5.049  -0.654  0.00  0.00    +0.000 A 
ATOM     12  C   UNL     1       0.156   6.244  -0.841  0.00  0.00    +0.000 A 
ATOM     13  C   UNL     1      -1.169   6.228  -1.297  0.00  0.00    +0.000 A 
ATOM     14  C   UNL     1      -1.794   4.998  -1.541  0.00  0.00    +0.000 A 
ATOM     15  C   UNL     1      -1.099   3.801  -1.356  0.00  0.00    +0.000 A 
ATOM     16  C   UNL     1      -1.927   7.513  -1.463  0.00  0.00    +0.000 C 
ENDBRANCH   2  10
TORSDOF 2
