REMARK  Name = *****
REMARK  2 active torsions:
REMARK  status: ('A' for Active; 'I' for Inactive)
REMARK    1  A    between atoms: C_7  and  C_8
REMARK    2  A    between atoms: C_9  and  C_10
REMARK                            x       y       z     vdW  Elec       q    Type
REMARK                         _______ _______ _______ _____ _____    ______ ____
ROOT
ATOM      1  C   UNL     1      -1.316  -0.767  -0.849  0.00  0.00    +0.000 C 
ATOM      2  C   UNL     1      -1.562   0.597  -0.213  0.00  0.00    +0.000 C 
ATOM      3  C   UNL     1      -0.328   1.486  -0.333  0.00  0.00    +0.000 C 
ATOM      4  C   UNL     1       0.902   0.815   0.203  0.00  0.00    +0.000 C 
ATOM      5  C   UNL     1       0.973  -0.692   0.276  0.00  0.00    +0.000 C 
ATOM      6  C   UNL     1      -0.202  -1.530  -0.136  0.00  0.00    +0.000 C 
ATOM      7  C   UNL     1       1.869   0.053  -0.682  0.00  0.00    +0.000 C 
ATOM      8  F   UNL     1       3.200   0.137  -0.278  0.00  0.00    +0.000 F 
ENDROOT
BRANCH   7   9
ATOM      9  C   UNL     1       1.690  -0.050  -2.096  0.00  0.00    +0.000 C 
ATOM     10  C   UNL     1       1.554  -0.137  -3.287  0.00  0.00    +0.000 C 
BRANCH  10  11
ATOM     11  C   UNL     1       1.384  -0.241  -4.702  0.00  0.00    +0.000 A 
ATOM     12  C   UNL     1       1.246  -1.495  -5.300  0.00  0.00    +0.000 A 
ATOM     13  C   UNL     1       1.078  -1.596  -6.683  0.00  0.00    +0.000 A 
ATOM     14  C   UNL     1       1.047  -0.443  -7.468  0.00  0.00    +0.000 A 
ATOM     15  C   UNL     1       1.185   0.811  -6.872  0.00  0.00    +0.000 A 
ATOM     16  C   UNL     1       1.353   0.913  -5.490  0.00  0.00    +0.000 A 
ENDBRANCH  10  11
ENDBRANCH   7   9
TORSDOF 2
