REMARK  Name = *****
REMARK  3 active torsions:
REMARK  status: ('A' for Active; 'I' for Inactive)
REMARK    1  A    between atoms: C_3  and  N_4
REMARK    2  A    between atoms: N_4  and  C_5
REMARK    3  A    between atoms: C_11  and  C_13
REMARK                            x       y       z     vdW  Elec       q    Type
REMARK                         _______ _______ _______ _____ _____    ______ ____
ROOT
ATOM      1  N   UNL     1      -1.416  -0.950  -1.173  0.00  0.00    +0.000 N 
ATOM      2  C   UNL     1      -2.830  -0.989  -1.174  0.00  0.00    +0.000 C 
ATOM      3  O   UNL     1      -3.568  -1.407  -2.064  0.00  0.00    +0.000 OA
ENDROOT
BRANCH   2   4
ATOM      4  C   UNL     1      -3.545  -0.435   0.001  0.00  0.00    +0.000 A 
ATOM      5  C   UNL     1      -3.448   0.924   0.322  0.00  0.00    +0.000 A 
ATOM      6  C   UNL     1      -4.155   1.428   1.415  0.00  0.00    +0.000 A 
ATOM      7  C   UNL     1      -4.969   0.579   2.167  0.00  0.00    +0.000 A 
ATOM      8  C   UNL     1      -5.093  -0.770   1.829  0.00  0.00    +0.000 A 
ATOM      9  C   UNL     1      -4.387  -1.278   0.737  0.00  0.00    +0.000 A 
ATOM     10 CL   UNL     1      -5.837   1.203   3.514  0.00  0.00    +0.000 Cl
ENDBRANCH   2   4
BRANCH   1  11
ATOM     11  C   UNL     1      -0.653  -1.274  -2.361  0.00  0.00    +0.000 A 
ATOM     12  C   UNL     1       0.659  -0.788  -2.517  0.00  0.00    +0.000 A 
ATOM     13  C   UNL     1       1.423  -1.085  -3.652  0.00  0.00    +0.000 A 
ATOM     14  C   UNL     1       0.892  -1.878  -4.661  0.00  0.00    +0.000 A 
ATOM     15  C   UNL     1      -0.401  -2.372  -4.532  0.00  0.00    +0.000 A 
ATOM     16  C   UNL     1      -1.163  -2.072  -3.395  0.00  0.00    +0.000 A 
ENDBRANCH   1  11
BRANCH   1  19
ATOM     17  C   UNL     1       0.438  -1.367   0.604  0.00  0.00    +0.000 C 
ATOM     18  C   UNL     1      -0.844  -1.214   1.351  0.00  0.00    +0.000 C 
ATOM     19  C   UNL     1      -0.675  -0.526   0.012  0.00  0.00    +0.000 C 
ENDBRANCH   1  19
TORSDOF 3
