REMARK  Name = *****
REMARK  5 active torsions:
REMARK  status: ('A' for Active; 'I' for Inactive)
REMARK    1  A    between atoms: C_1  and  C_2
REMARK    2  A    between atoms: C_5  and  C_8
REMARK    3  A    between atoms: C_9  and  C_10
REMARK    4  A    between atoms: C_11  and  C_17
REMARK    5  A    between atoms: C_17  and  C_19
REMARK                            x       y       z     vdW  Elec       q    Type
REMARK                         _______ _______ _______ _____ _____    ______ ____
ROOT
ATOM      1  C   UNL     1       9.425   0.095  -1.371  0.00  0.00    +0.000 A 
ATOM      2  C   UNL     1      10.116   1.311  -1.500  0.00  0.00    +0.000 A 
ATOM      3  C   UNL     1      11.492   1.318  -1.781  0.00  0.00    +0.000 A 
ATOM      4  C   UNL     1      12.175   0.111  -1.932  0.00  0.00    +0.000 A 
ATOM      5  C   UNL     1      11.484  -1.089  -1.803  0.00  0.00    +0.000 A 
ATOM      6  C   UNL     1      10.121  -1.109  -1.525  0.00  0.00    +0.000 A 
ATOM      7  F   UNL     1      12.144  -2.245  -1.947  0.00  0.00    +0.000 F 
ENDROOT
BRANCH   2   8
ATOM      8  C   UNL     1       9.418   2.613  -1.361  0.00  0.00    +0.000 C 
ATOM      9  O   UNL     1       8.427   2.859  -2.040  0.00  0.00    +0.000 OA
ATOM     10  C   UNL     1      10.004   3.620  -0.407  0.00  0.00    +0.000 C 
ENDBRANCH   2   8
BRANCH   1  12
ATOM     11  C   UNL     1       6.859   0.014  -0.785  0.00  0.00    +0.000 C 
ATOM     12  C   UNL     1       8.031   0.038  -1.051  0.00  0.00    +0.000 C 
BRANCH  11  17
ATOM     13  C   UNL     1       1.251   0.079   0.409  0.00  0.00    +0.000 C 
ATOM     14  C   UNL     1       2.724   0.069   0.125  0.00  0.00    +0.000 A 
ATOM     15  C   UNL     1       3.345   1.195  -0.427  0.00  0.00    +0.000 A 
ATOM     16  C   UNL     1       4.711   1.176  -0.724  0.00  0.00    +0.000 A 
ATOM     17  C   UNL     1       5.463   0.026  -0.480  0.00  0.00    +0.000 A 
ATOM     18  C   UNL     1       4.848  -1.106   0.056  0.00  0.00    +0.000 A 
ATOM     19  C   UNL     1       3.483  -1.087   0.352  0.00  0.00    +0.000 A 
ENDBRANCH  11  17
ENDBRANCH   1  12
TORSDOF 3
