REMARK  Name = *****
REMARK  2 active torsions:
REMARK  status: ('A' for Active; 'I' for Inactive)
REMARK    1  A    between atoms: C_2  and  C_7
REMARK    2  A    between atoms: C_8  and  C_9
REMARK                            x       y       z     vdW  Elec       q    Type
REMARK                         _______ _______ _______ _____ _____    ______ ____
ROOT
ATOM      1  C   UNL     1       2.177  -2.375  -0.561  0.00  0.00    +0.000 C 
ATOM      2  C   UNL     1       0.852  -2.593  -0.544  0.00  0.00    +0.000 C 
ENDROOT
BRANCH   1   4
ATOM      3  C   UNL     1       2.252   0.138  -0.570  0.00  0.00    +0.000 A 
ATOM      4  C   UNL     1       2.799  -1.095  -0.194  0.00  0.00    +0.000 A 
ATOM      5  C   UNL     1       4.012  -1.109   0.507  0.00  0.00    +0.000 A 
ATOM      6  C   UNL     1       4.650   0.087   0.850  0.00  0.00    +0.000 A 
ATOM      7  C   UNL     1       4.087   1.307   0.484  0.00  0.00    +0.000 A 
ATOM      8  C   UNL     1       2.890   1.333  -0.229  0.00  0.00    +0.000 A 
ENDBRANCH   1   4
BRANCH   2   9
ATOM      9  C   UNL     1       0.228  -3.872  -0.911  0.00  0.00    +0.000 A 
ATOM     10  C   UNL     1       0.781  -5.107  -0.547  0.00  0.00    +0.000 A 
ATOM     11  C   UNL     1       0.140  -6.301  -0.888  0.00  0.00    +0.000 A 
ATOM     12  C   UNL     1      -1.064  -6.273  -1.588  0.00  0.00    +0.000 A 
ATOM     13  C   UNL     1      -1.632  -5.051  -1.941  0.00  0.00    +0.000 A 
ATOM     14  C   UNL     1      -0.993  -3.857  -1.599  0.00  0.00    +0.000 A 
ENDBRANCH   2   9
TORSDOF 2
