REMARK  Name = *****
REMARK  4 active torsions:
REMARK  status: ('A' for Active; 'I' for Inactive)
REMARK    1  A    between atoms: C_3  and  C_16
REMARK    2  A    between atoms: C_6  and  S_7
REMARK    3  A    between atoms: S_7  and  N_9
REMARK    4  A    between atoms: N_9  and  C_10
REMARK                            x       y       z     vdW  Elec       q    Type
REMARK                         _______ _______ _______ _____ _____    ______ ____
ROOT
ATOM      1  S   UNL     1       1.840   2.660  -0.475  0.00  0.00    +0.000 S 
ATOM      2  O   UNL     1       2.119   3.150  -1.865  0.00  0.00    +0.000 OA
ENDROOT
BRANCH   1   8
ATOM      3  C   UNL     1       2.607   0.292   0.808  0.00  0.00    +0.000 A 
ATOM      4  C   UNL     1       3.305  -0.914   0.921  0.00  0.00    +0.000 A 
ATOM      5  C   UNL     1       4.147  -1.345  -0.110  0.00  0.00    +0.000 A 
ATOM      6  C   UNL     1       4.260  -0.566  -1.266  0.00  0.00    +0.000 A 
ATOM      7  C   UNL     1       3.562   0.640  -1.380  0.00  0.00    +0.000 A 
ATOM      8  C   UNL     1       2.727   1.076  -0.346  0.00  0.00    +0.000 A 
ATOM      9  C   UNL     1       4.866  -2.658  -0.005  0.00  0.00    +0.000 C 
ENDBRANCH   1   8
BRANCH   1  10
ATOM     10  N   UNL     1       0.339   1.922  -0.479  0.00  0.00    +0.000 N 
ATOM     11  H   UNL     1       0.127   1.284  -1.198  0.00  0.00    +0.000 HD
BRANCH  10  12
ATOM     12  C   UNL     1      -0.638   2.179   0.512  0.00  0.00    +0.000 A 
ATOM     13  C   UNL     1      -0.346   2.693   1.783  0.00  0.00    +0.000 A 
ATOM     14  C   UNL     1      -1.349   2.848   2.746  0.00  0.00    +0.000 A 
ATOM     15  C   UNL     1      -2.657   2.465   2.464  0.00  0.00    +0.000 A 
ATOM     16  C   UNL     1      -2.961   1.916   1.222  0.00  0.00    +0.000 A 
ATOM     17  C   UNL     1      -1.957   1.764   0.262  0.00  0.00    +0.000 A 
ENDBRANCH  10  12
ENDBRANCH   1  10
TORSDOF 3
