REMARK  Name = *****
REMARK  3 active torsions:
REMARK  status: ('A' for Active; 'I' for Inactive)
REMARK    1  A    between atoms: C_1  and  C_2
REMARK    2  A    between atoms: C_5  and  S_8
REMARK    3  A    between atoms: S_8  and  C_10
REMARK                            x       y       z     vdW  Elec       q    Type
REMARK                         _______ _______ _______ _____ _____    ______ ____
ROOT
ATOM      1  S   UNL     1      -3.663  -0.174  -0.236  0.00  0.00    +0.000 S 
ATOM      2  O   UNL     1      -4.756  -0.891   0.503  0.00  0.00    +0.000 OA
ENDROOT
BRANCH   1   7
ATOM      3  C   UNL     1       1.220  -0.359   3.453  0.00  0.00    +0.000 C 
ATOM      4  C   UNL     1       0.024  -0.343   2.548  0.00  0.00    +0.000 A 
ATOM      5  C   UNL     1       0.172  -0.081   1.181  0.00  0.00    +0.000 A 
ATOM      6  C   UNL     1      -0.946  -0.036   0.343  0.00  0.00    +0.000 A 
ATOM      7  C   UNL     1      -2.227  -0.239   0.866  0.00  0.00    +0.000 A 
ATOM      8  C   UNL     1      -2.378  -0.493   2.233  0.00  0.00    +0.000 A 
ATOM      9  C   UNL     1      -1.260  -0.537   3.069  0.00  0.00    +0.000 A 
ENDBRANCH   1   7
BRANCH   1  10
ATOM     10  C   UNL     1      -4.066   1.558  -0.045  0.00  0.00    +0.000 C 
ATOM     11  C   UNL     1      -3.655   2.499  -0.917  0.00  0.00    +0.000 C 
ATOM     12  C   UNL     1      -2.813   2.285  -2.155  0.00  0.00    +0.000 C 
ATOM     13  C   UNL     1      -1.564   3.167  -2.119  0.00  0.00    +0.000 C 
ATOM     14  C   UNL     1      -1.913   4.639  -1.904  0.00  0.00    +0.000 C 
ATOM     15  C   UNL     1      -2.781   4.834  -0.660  0.00  0.00    +0.000 C 
ATOM     16  C   UNL     1      -4.028   3.950  -0.697  0.00  0.00    +0.000 C 
ENDBRANCH   1  10
TORSDOF 2
