REMARK  Name = *****
REMARK  2 active torsions:
REMARK  status: ('A' for Active; 'I' for Inactive)
REMARK    1  A    between atoms: C_4  and  C_9
REMARK    2  A    between atoms: C_5  and  C_7
REMARK                            x       y       z     vdW  Elec       q    Type
REMARK                         _______ _______ _______ _____ _____    ______ ____
ROOT
ATOM      1  C   UNL     1      -3.022   0.194  -0.328  0.00  0.00    +0.000 A 
ATOM      2  N   UNL     1      -3.807   1.171  -0.745  0.00  0.00    +0.000 NA
ATOM      3  C   UNL     1      -5.074   0.670  -0.590  0.00  0.00    +0.000 A 
ATOM      4  C   UNL     1      -6.328   1.234  -0.853  0.00  0.00    +0.000 A 
ATOM      5  C   UNL     1      -7.469   0.460  -0.589  0.00  0.00    +0.000 A 
ATOM      6  C   UNL     1      -7.360  -0.841  -0.078  0.00  0.00    +0.000 A 
ATOM      7  C   UNL     1      -6.112  -1.417   0.188  0.00  0.00    +0.000 A 
ATOM      8  C   UNL     1      -5.010  -0.618  -0.086  0.00  0.00    +0.000 A 
ATOM      9  O   UNL     1      -3.695  -0.935   0.080  0.00  0.00    +0.000 OA
ENDROOT
BRANCH   1  13
ATOM     10  C   UNL     1       1.252  -0.100  -0.099  0.00  0.00    +0.000 A 
ATOM     11  C   UNL     1       0.467  -1.240  -0.197  0.00  0.00    +0.000 A 
ATOM     12  C   UNL     1      -0.922  -1.122  -0.268  0.00  0.00    +0.000 A 
ATOM     13  C   UNL     1      -1.558   0.136  -0.246  0.00  0.00    +0.000 A 
ATOM     14  C   UNL     1      -0.754   1.297  -0.154  0.00  0.00    +0.000 A 
ATOM     15  C   UNL     1       0.648   1.156  -0.073  0.00  0.00    +0.000 A 
BRANCH  14  16
ATOM     16  C   UNL     1      -1.322   2.693  -0.080  0.00  0.00    +0.000 C 
ATOM     17 CL   UNL     1      -1.868   3.060   1.570  0.00  0.00    +0.000 Cl
ENDBRANCH  14  16
ENDBRANCH   1  13
TORSDOF 2
