REMARK  Name = *****
REMARK  3 active torsions:
REMARK  status: ('A' for Active; 'I' for Inactive)
REMARK    1  A    between atoms: C_1  and  C_2
REMARK    2  A    between atoms: C_2  and  C_11
REMARK    3  A    between atoms: N_3  and  C_4
REMARK                            x       y       z     vdW  Elec       q    Type
REMARK                         _______ _______ _______ _____ _____    ______ ____
ROOT
ATOM      1  C   UNL     1       1.198  -0.902  -0.057  0.00  0.00    +0.000 C 
ATOM      2  C   UNL     1       2.474  -0.080  -0.053  0.00  0.00    +0.000 C 
ATOM      3  N   UNL     1       2.964   0.510  -1.106  0.00  0.00    +0.000 NA
ENDROOT
BRANCH   3   4
ATOM      4  C   UNL     1       2.302   0.426  -2.337  0.00  0.00    +0.000 A 
ATOM      5  C   UNL     1       1.267   1.308  -2.649  0.00  0.00    +0.000 A 
ATOM      6  C   UNL     1       0.642   1.223  -3.887  0.00  0.00    +0.000 A 
ATOM      7  C   UNL     1       1.039   0.283  -4.832  0.00  0.00    +0.000 A 
ATOM      8  C   UNL     1       2.087  -0.586  -4.535  0.00  0.00    +0.000 A 
ATOM      9  C   UNL     1       2.720  -0.508  -3.292  0.00  0.00    +0.000 A 
ATOM     10  F   UNL     1      -0.360   2.064  -4.178  0.00  0.00    +0.000 F 
ENDBRANCH   3   4
BRANCH   2  11
ATOM     11  C   UNL     1       3.206   0.073   1.243  0.00  0.00    +0.000 A 
ATOM     12  C   UNL     1       2.539   0.014   2.473  0.00  0.00    +0.000 A 
ATOM     13  C   UNL     1       3.253   0.169   3.666  0.00  0.00    +0.000 A 
ATOM     14  C   UNL     1       4.630   0.389   3.630  0.00  0.00    +0.000 A 
ATOM     15  C   UNL     1       5.300   0.461   2.411  0.00  0.00    +0.000 A 
ATOM     16  C   UNL     1       4.588   0.308   1.218  0.00  0.00    +0.000 A 
ATOM     17 CL   UNL     1       5.503   0.579   5.100  0.00  0.00    +0.000 Cl
ENDBRANCH   2  11
TORSDOF 2
