REMARK  Name = *****
REMARK  4 active torsions:
REMARK  status: ('A' for Active; 'I' for Inactive)
REMARK    1  A    between atoms: C_1  and  C_2
REMARK    2  A    between atoms: C_4  and  C_16
REMARK    3  A    between atoms: C_5  and  C_8
REMARK    4  A    between atoms: C_9  and  C_10
REMARK                            x       y       z     vdW  Elec       q    Type
REMARK                         _______ _______ _______ _____ _____    ______ ____
ROOT
ATOM      1  C   UNL     1       2.518   1.133   0.064  0.00  0.00    +0.000 C 
ATOM      2  C   UNL     1       1.236   0.360  -0.036  0.00  0.00    +0.000 A 
ATOM      3  C   UNL     1       0.007   0.993   0.189  0.00  0.00    +0.000 A 
ATOM      4  C   UNL     1      -1.203   0.278   0.135  0.00  0.00    +0.000 A 
ATOM      5  C   UNL     1      -1.175  -1.102  -0.141  0.00  0.00    +0.000 A 
ATOM      6  C   UNL     1       0.060  -1.733  -0.358  0.00  0.00    +0.000 A 
ATOM      7  C   UNL     1       1.254  -1.011  -0.297  0.00  0.00    +0.000 A 
ATOM      8  C   UNL     1      -2.496   1.012   0.375  0.00  0.00    +0.000 C 
ENDROOT
BRANCH   5   9
ATOM      9  C   UNL     1      -2.415  -1.887  -0.243  0.00  0.00    +0.000 C 
ATOM     10  C   UNL     1      -2.624  -3.007   0.467  0.00  0.00    +0.000 C 
BRANCH  10  11
ATOM     11  C   UNL     1      -3.858  -3.802   0.402  0.00  0.00    +0.000 A 
ATOM     12  C   UNL     1      -4.561  -4.000  -0.794  0.00  0.00    +0.000 A 
ATOM     13  C   UNL     1      -5.714  -4.789  -0.820  0.00  0.00    +0.000 A 
ATOM     14  C   UNL     1      -6.170  -5.397   0.348  0.00  0.00    +0.000 A 
ATOM     15  C   UNL     1      -5.471  -5.222   1.540  0.00  0.00    +0.000 A 
ATOM     16  C   UNL     1      -4.318  -4.433   1.565  0.00  0.00    +0.000 A 
ENDBRANCH  10  11
ENDBRANCH   5   9
TORSDOF 2
