REMARK  Name = *****
REMARK  5 active torsions:
REMARK  status: ('A' for Active; 'I' for Inactive)
REMARK    1  A    between atoms: C_1  and  C_2
REMARK    2  A    between atoms: C_5  and  C_8
REMARK    3  A    between atoms: C_8  and  N_10
REMARK    4  A    between atoms: N_10  and  C_11
REMARK    5  A    between atoms: C_14  and  C_17
REMARK                            x       y       z     vdW  Elec       q    Type
REMARK                         _______ _______ _______ _____ _____    ______ ____
ROOT
ATOM      1  C   UNL     1      -3.211  -0.519   0.688  0.00  0.00    +0.000 C 
ATOM      2  S   UNL     1      -3.666  -2.086   1.073  0.00  0.00    +0.000 S 
ENDROOT
BRANCH   1   7
ATOM      3  C   UNL     1       2.349   0.800  -0.262  0.00  0.00    +0.000 C 
ATOM      4  C   UNL     1       0.918   0.430   0.000  0.00  0.00    +0.000 A 
ATOM      5  C   UNL     1       0.245  -0.446  -0.862  0.00  0.00    +0.000 A 
ATOM      6  C   UNL     1      -1.094  -0.773  -0.638  0.00  0.00    +0.000 A 
ATOM      7  C   UNL     1      -1.769  -0.215   0.452  0.00  0.00    +0.000 A 
ATOM      8  C   UNL     1      -1.113   0.677   1.308  0.00  0.00    +0.000 A 
ATOM      9  C   UNL     1       0.226   0.999   1.078  0.00  0.00    +0.000 A 
ENDBRANCH   1   7
BRANCH   1  10
ATOM     10  N   UNL     1      -3.999   0.611   0.505  0.00  0.00    +0.000 N 
ATOM     11  H   UNL     1      -3.498   1.389   0.168  0.00  0.00    +0.000 HD
BRANCH  10  12
ATOM     12  C   UNL     1      -5.376   0.870   0.706  0.00  0.00    +0.000 A 
ATOM     13  C   UNL     1      -6.275   0.031   1.358  0.00  0.00    +0.000 A 
ATOM     14  C   UNL     1      -7.619   0.401   1.513  0.00  0.00    +0.000 A 
ATOM     15  C   UNL     1      -8.085   1.628   1.033  0.00  0.00    +0.000 A 
ATOM     16  C   UNL     1      -7.190   2.473   0.377  0.00  0.00    +0.000 A 
ATOM     17  C   UNL     1      -5.849   2.101   0.226  0.00  0.00    +0.000 A 
ATOM     18  C   UNL     1      -9.531   2.000   1.170  0.00  0.00    +0.000 C 
ENDBRANCH  10  12
ENDBRANCH   1  10
TORSDOF 3
