REMARK  Name = *****
REMARK  3 active torsions:
REMARK  status: ('A' for Active; 'I' for Inactive)
REMARK    1  A    between atoms: C_6  and  C_7
REMARK    2  A    between atoms: C_7  and  S_8
REMARK    3  A    between atoms: S_8  and  C_9
REMARK                            x       y       z     vdW  Elec       q    Type
REMARK                         _______ _______ _______ _____ _____    ______ ____
ROOT
ATOM      1  C   UNL     1       3.961   0.282  -0.041  0.00  0.00    +0.000 C 
ENDROOT
BRANCH   1   7
ATOM      2  C   UNL     1       1.764  -0.310   1.068  0.00  0.00    +0.000 A 
ATOM      3  C   UNL     1       0.372  -0.422   1.051  0.00  0.00    +0.000 A 
ATOM      4  C   UNL     1      -0.337  -0.069  -0.096  0.00  0.00    +0.000 A 
ATOM      5  C   UNL     1       0.333   0.397  -1.224  0.00  0.00    +0.000 A 
ATOM      6  C   UNL     1       1.726   0.507  -1.208  0.00  0.00    +0.000 A 
ATOM      7  C   UNL     1       2.455   0.149  -0.063  0.00  0.00    +0.000 A 
ATOM      8 CL   UNL     1      -2.052  -0.206  -0.116  0.00  0.00    +0.000 Cl
ENDBRANCH   1   7
BRANCH   1   9
ATOM      9  S   UNL     1       4.463   1.979   0.391  0.00  0.00    +0.000 S 
BRANCH   9  10
ATOM     10  C   UNL     1       6.235   1.830   0.261  0.00  0.00    +0.000 A 
ATOM     11  N   UNL     1       6.770   0.599   0.097  0.00  0.00    +0.000 NA
ATOM     12  C   UNL     1       8.114   0.506   0.010  0.00  0.00    +0.000 A 
ATOM     13  C   UNL     1       8.963   1.592   0.076  0.00  0.00    +0.000 A 
ATOM     14  C   UNL     1       8.386   2.842   0.244  0.00  0.00    +0.000 A 
ATOM     15  C   UNL     1       7.008   2.977   0.341  0.00  0.00    +0.000 A 
ATOM     16 CL   UNL     1       9.390   4.237   0.331  0.00  0.00    +0.000 Cl
ENDBRANCH   9  10
ENDBRANCH   1   9
TORSDOF 3
