REMARK  Name = *****
REMARK  2 active torsions:
REMARK  status: ('A' for Active; 'I' for Inactive)
REMARK    1  A    between atoms: C_3  and  C_8
REMARK    2  A    between atoms: C_9  and  C_10
REMARK                            x       y       z     vdW  Elec       q    Type
REMARK                         _______ _______ _______ _____ _____    ______ ____
ROOT
ATOM      1  C   UNL     1      -1.931   2.497   0.021  0.00  0.00    +0.000 C 
ATOM      2  C   UNL     1      -1.350   3.708   0.054  0.00  0.00    +0.000 C 
ENDROOT
BRANCH   1   5
ATOM      3  C   UNL     1      -1.057  -1.081  -0.777  0.00  0.00    +0.000 A 
ATOM      4  C   UNL     1      -1.717   0.152  -0.739  0.00  0.00    +0.000 A 
ATOM      5  C   UNL     1      -1.186   1.230  -0.014  0.00  0.00    +0.000 A 
ATOM      6  C   UNL     1       0.005   1.042   0.697  0.00  0.00    +0.000 A 
ATOM      7  C   UNL     1       0.654  -0.189   0.653  0.00  0.00    +0.000 A 
ATOM      8  C   UNL     1       0.136  -1.250  -0.079  0.00  0.00    +0.000 A 
ATOM      9  F   UNL     1       1.796  -0.354   1.333  0.00  0.00    +0.000 F 
ENDBRANCH   1   5
BRANCH   2  10
ATOM     10  C   UNL     1      -2.098   4.973   0.070  0.00  0.00    +0.000 A 
ATOM     11  C   UNL     1      -3.279   5.134   0.810  0.00  0.00    +0.000 A 
ATOM     12  C   UNL     1      -3.944   6.363   0.824  0.00  0.00    +0.000 A 
ATOM     13  C   UNL     1      -3.423   7.433   0.109  0.00  0.00    +0.000 A 
ATOM     14  C   UNL     1      -2.246   7.301  -0.617  0.00  0.00    +0.000 A 
ATOM     15  C   UNL     1      -1.580   6.073  -0.632  0.00  0.00    +0.000 A 
ATOM     16  F   UNL     1      -4.060   8.611   0.125  0.00  0.00    +0.000 F 
ENDBRANCH   2  10
TORSDOF 2
