REMARK  Name = *****
REMARK  2 active torsions:
REMARK  status: ('A' for Active; 'I' for Inactive)
REMARK    1  A    between atoms: C_2  and  C_10
REMARK    2  A    between atoms: P_3  and  C_4
REMARK                            x       y       z     vdW  Elec       q    Type
REMARK                         _______ _______ _______ _____ _____    ______ ____
ROOT
ATOM      1  C   UNL     1      -0.165   0.674   0.395  0.00  0.00    +0.000 C 
ATOM      2  C   UNL     1       0.805  -0.465   0.420  0.00  0.00    +0.000 C 
ATOM      3  P   UNL     1      -0.985  -0.942   0.472  0.00  0.00    +0.000 P 
ENDROOT
BRANCH   3   4
ATOM      4  C   UNL     1      -1.436  -1.181  -1.276  0.00  0.00    +0.000 A 
ATOM      5  C   UNL     1      -1.159  -2.399  -1.913  0.00  0.00    +0.000 A 
ATOM      6  C   UNL     1      -1.524  -2.612  -3.245  0.00  0.00    +0.000 A 
ATOM      7  C   UNL     1      -2.192  -1.617  -3.954  0.00  0.00    +0.000 A 
ATOM      8  C   UNL     1      -2.503  -0.413  -3.327  0.00  0.00    +0.000 A 
ATOM      9  C   UNL     1      -2.135  -0.201  -1.996  0.00  0.00    +0.000 A 
ENDBRANCH   3   4
BRANCH   2  10
ATOM     10  C   UNL     1       1.653  -0.876  -0.760  0.00  0.00    +0.000 A 
ATOM     11  C   UNL     1       1.986   0.000  -1.808  0.00  0.00    +0.000 A 
ATOM     12  C   UNL     1       2.792  -0.406  -2.876  0.00  0.00    +0.000 A 
ATOM     13  C   UNL     1       3.300  -1.701  -2.914  0.00  0.00    +0.000 A 
ATOM     14  C   UNL     1       3.007  -2.585  -1.883  0.00  0.00    +0.000 A 
ATOM     15  C   UNL     1       2.199  -2.173  -0.820  0.00  0.00    +0.000 A 
ENDBRANCH   2  10
TORSDOF 2
