REMARK  Name = *****
REMARK  3 active torsions:
REMARK  status: ('A' for Active; 'I' for Inactive)
REMARK    1  A    between atoms: C_6  and  C_7
REMARK    2  A    between atoms: C_7  and  O_9
REMARK    3  A    between atoms: O_9  and  C_10
REMARK                            x       y       z     vdW  Elec       q    Type
REMARK                         _______ _______ _______ _____ _____    ______ ____
ROOT
ATOM      1  C   UNL     1      -3.223   0.235  -0.518  0.00  0.00    +0.000 C 
ATOM      2  O   UNL     1      -4.014  -0.679  -0.342  0.00  0.00    +0.000 OA
ENDROOT
BRANCH   1   8
ATOM      3  C   UNL     1      -0.880   1.205  -0.366  0.00  0.00    +0.000 A 
ATOM      4  C   UNL     1       0.464   1.065  -0.007  0.00  0.00    +0.000 A 
ATOM      5  C   UNL     1       0.899  -0.114   0.586  0.00  0.00    +0.000 A 
ATOM      6  C   UNL     1       0.016  -1.160   0.832  0.00  0.00    +0.000 A 
ATOM      7  C   UNL     1      -1.328  -1.025   0.475  0.00  0.00    +0.000 A 
ATOM      8  C   UNL     1      -1.785   0.158  -0.129  0.00  0.00    +0.000 A 
ATOM      9  F   UNL     1       2.188  -0.246   0.923  0.00  0.00    +0.000 F 
ENDBRANCH   1   8
BRANCH   1  10
ATOM     10  O   UNL     1      -3.480   1.462  -1.101  0.00  0.00    +0.000 OA
BRANCH  10  11
ATOM     11  C   UNL     1      -4.745   1.641  -1.681  0.00  0.00    +0.000 A 
ATOM     12  C   UNL     1      -5.213   0.785  -2.679  0.00  0.00    +0.000 A 
ATOM     13  C   UNL     1      -6.435   1.058  -3.296  0.00  0.00    +0.000 A 
ATOM     14  C   UNL     1      -7.165   2.187  -2.920  0.00  0.00    +0.000 A 
ATOM     15  C   UNL     1      -6.684   3.047  -1.932  0.00  0.00    +0.000 A 
ATOM     16  C   UNL     1      -5.463   2.778  -1.311  0.00  0.00    +0.000 A 
ATOM     17 CL   UNL     1      -8.662   2.530  -3.696  0.00  0.00    +0.000 Cl
ENDBRANCH  10  11
ENDBRANCH   1  10
TORSDOF 3
