REMARK  Name = *****
REMARK  5 active torsions:
REMARK  status: ('A' for Active; 'I' for Inactive)
REMARK    1  A    between atoms: C_1  and  C_2
REMARK    2  A    between atoms: C_5  and  S_8
REMARK    3  A    between atoms: S_8  and  C_10
REMARK    4  A    between atoms: C_10  and  C_11
REMARK    5  A    between atoms: C_11  and  C_12
REMARK                            x       y       z     vdW  Elec       q    Type
REMARK                         _______ _______ _______ _____ _____    ______ ____
ROOT
ATOM      1  S   UNL     1      -4.180   2.670  -1.756  0.00  0.00    +0.000 S 
ATOM      2  O   UNL     1      -5.087   3.794  -1.340  0.00  0.00    +0.000 OA
ENDROOT
BRANCH   1   7
ATOM      3  C   UNL     1       1.334   5.273  -2.324  0.00  0.00    +0.000 C 
ATOM      4  C   UNL     1      -0.030   4.657  -2.207  0.00  0.00    +0.000 A 
ATOM      5  C   UNL     1      -0.938   5.128  -1.252  0.00  0.00    +0.000 A 
ATOM      6  C   UNL     1      -2.196   4.537  -1.122  0.00  0.00    +0.000 A 
ATOM      7  C   UNL     1      -2.556   3.454  -1.931  0.00  0.00    +0.000 A 
ATOM      8  C   UNL     1      -1.655   2.987  -2.891  0.00  0.00    +0.000 A 
ATOM      9  C   UNL     1      -0.394   3.578  -3.020  0.00  0.00    +0.000 A 
ENDBRANCH   1   7
BRANCH   1  10
ATOM     10  C   UNL     1      -3.802   1.666  -0.264  0.00  0.00    +0.000 C 
ATOM     11 CL   UNL     1      -5.292   1.266   0.654  0.00  0.00    +0.000 Cl
BRANCH  10  12
ATOM     12  C   UNL     1      -2.981   0.405  -0.586  0.00  0.00    +0.000 C 
BRANCH  12  13
ATOM     13  C   UNL     1      -3.653  -0.665  -1.422  0.00  0.00    +0.000 A 
ATOM     14  C   UNL     1      -3.517  -0.686  -2.817  0.00  0.00    +0.000 A 
ATOM     15  C   UNL     1      -4.145  -1.673  -3.579  0.00  0.00    +0.000 A 
ATOM     16  C   UNL     1      -4.911  -2.655  -2.957  0.00  0.00    +0.000 A 
ATOM     17  C   UNL     1      -5.045  -2.654  -1.571  0.00  0.00    +0.000 A 
ATOM     18  C   UNL     1      -4.418  -1.668  -0.809  0.00  0.00    +0.000 A 
ENDBRANCH  12  13
ENDBRANCH  10  12
ENDBRANCH   1  10
TORSDOF 4
