REMARK  Name = *****
REMARK  2 active torsions:
REMARK  status: ('A' for Active; 'I' for Inactive)
REMARK    1  A    between atoms: C_4  and  C_7
REMARK    2  A    between atoms: N_8  and  C_9
REMARK                            x       y       z     vdW  Elec       q    Type
REMARK                         _______ _______ _______ _____ _____    ______ ____
ROOT
ATOM      1  C   UNL     1      -2.860   0.500  -0.005  0.00  0.00    +0.000 C 
ATOM      2  N   UNL     1      -3.388   1.687  -0.017  0.00  0.00    +0.000 NA
ATOM      3 CL   UNL     1      -4.012  -0.797   0.082  0.00  0.00    +0.000 Cl
ENDROOT
BRANCH   2   4
ATOM      4  C   UNL     1      -2.580   2.838  -0.029  0.00  0.00    +0.000 A 
ATOM      5  C   UNL     1      -1.972   3.265   1.160  0.00  0.00    +0.000 A 
ATOM      6  C   UNL     1      -1.185   4.419   1.189  0.00  0.00    +0.000 A 
ATOM      7  C   UNL     1      -1.012   5.174   0.030  0.00  0.00    +0.000 A 
ATOM      8  C   UNL     1      -1.631   4.780  -1.155  0.00  0.00    +0.000 A 
ATOM      9  C   UNL     1      -2.417   3.624  -1.183  0.00  0.00    +0.000 A 
ATOM     10 CL   UNL     1      -3.167   3.185  -2.679  0.00  0.00    +0.000 Cl
ENDBRANCH   2   4
BRANCH   1  14
ATOM     11  C   UNL     1       1.288  -0.492  -0.075  0.00  0.00    +0.000 A 
ATOM     12  C   UNL     1       0.507  -0.827   1.032  0.00  0.00    +0.000 A 
ATOM     13  C   UNL     1      -0.849  -0.500   1.054  0.00  0.00    +0.000 A 
ATOM     14  C   UNL     1      -1.416   0.170  -0.035  0.00  0.00    +0.000 A 
ATOM     15  C   UNL     1      -0.639   0.492  -1.152  0.00  0.00    +0.000 A 
ATOM     16  C   UNL     1       0.716   0.163  -1.167  0.00  0.00    +0.000 A 
ENDBRANCH   1  14
TORSDOF 2
