REMARK  Name = *****
REMARK  6 active torsions:
REMARK  status: ('A' for Active; 'I' for Inactive)
REMARK    1  A    between atoms: C_1  and  C_2
REMARK    2  A    between atoms: C_5  and  C_8
REMARK    3  A    between atoms: C_9  and  C_10
REMARK    4  A    between atoms: C_15  and  N_16
REMARK    5  A    between atoms: N_16  and  C_17
REMARK    6  A    between atoms: N_16  and  C_18
REMARK                            x       y       z     vdW  Elec       q    Type
REMARK                         _______ _______ _______ _____ _____    ______ ____
ROOT
ATOM      1  C   UNL     1       6.758   0.232  -0.706  0.00  0.00    +0.000 C 
ATOM      2  C   UNL     1       7.931   0.212  -0.967  0.00  0.00    +0.000 C 
ENDROOT
BRANCH   1   7
ATOM      3  C   UNL     1       1.149   0.214   0.491  0.00  0.00    +0.000 C 
ATOM      4  C   UNL     1       2.621   0.224   0.208  0.00  0.00    +0.000 A 
ATOM      5  C   UNL     1       3.272   1.420  -0.122  0.00  0.00    +0.000 A 
ATOM      6  C   UNL     1       4.638   1.425  -0.419  0.00  0.00    +0.000 A 
ATOM      7  C   UNL     1       5.362   0.233  -0.399  0.00  0.00    +0.000 A 
ATOM      8  C   UNL     1       4.718  -0.965  -0.085  0.00  0.00    +0.000 A 
ATOM      9  C   UNL     1       3.352  -0.970   0.211  0.00  0.00    +0.000 A 
ENDBRANCH   1   7
BRANCH   2  10
ATOM     10  C   UNL     1       9.332   0.176  -1.281  0.00  0.00    +0.000 A 
ATOM     11  C   UNL     1       9.991   1.399  -1.470  0.00  0.00    +0.000 A 
ATOM     12  C   UNL     1      11.355   1.429  -1.752  0.00  0.00    +0.000 A 
ATOM     13  C   UNL     1      12.065   0.238  -1.846  0.00  0.00    +0.000 A 
ATOM     14  C   UNL     1      11.414  -0.986  -1.657  0.00  0.00    +0.000 A 
ATOM     15  C   UNL     1      10.038  -1.048  -1.370  0.00  0.00    +0.000 A 
BRANCH  15  16
ATOM     16  N   UNL     1       9.368  -2.282  -1.199  0.00  0.00    +0.000 N 
ATOM     17  C   UNL     1      10.112  -3.332  -0.507  0.00  0.00    +0.000 C 
ATOM     18  C   UNL     1       8.718  -2.715  -2.440  0.00  0.00    +0.000 C 
ENDBRANCH  15  16
ENDBRANCH   2  10
TORSDOF 3
