REMARK  Name = *****
REMARK  3 active torsions:
REMARK  status: ('A' for Active; 'I' for Inactive)
REMARK    1  A    between atoms: C_7  and  O_8
REMARK    2  A    between atoms: O_8  and  C_9
REMARK    3  A    between atoms: C_9  and  C_10
REMARK                            x       y       z     vdW  Elec       q    Type
REMARK                         _______ _______ _______ _____ _____    ______ ____
ROOT
ATOM      1  O   UNL     1       2.420  -0.979  -0.469  0.00  0.00    +0.000 OA
ENDROOT
BRANCH   1   8
ATOM      2  C   UNL     1      -1.365   0.599   0.630  0.00  0.00    +0.000 C 
ATOM      3  C   UNL     1      -1.239  -0.922   0.460  0.00  0.00    +0.000 C 
ATOM      4  C   UNL     1      -0.033  -1.065  -0.483  0.00  0.00    +0.000 C 
ATOM      5  C   UNL     1      -0.218   0.143  -1.405  0.00  0.00    +0.000 C 
ATOM      6  C   UNL     1      -0.225   1.141  -0.250  0.00  0.00    +0.000 C 
ATOM      7  C   UNL     1       1.121   0.840   0.433  0.00  0.00    +0.000 C 
ATOM      8  C   UNL     1       1.250  -0.691   0.292  0.00  0.00    +0.000 C 
ENDBRANCH   1   8
BRANCH   1   9
ATOM      9  C   UNL     1       2.847  -2.335  -0.339  0.00  0.00    +0.000 C 
BRANCH   9  10
ATOM     10  C   UNL     1       4.053  -2.611  -1.206  0.00  0.00    +0.000 A 
ATOM     11  C   UNL     1       4.924  -1.590  -1.609  0.00  0.00    +0.000 A 
ATOM     12  C   UNL     1       6.053  -1.878  -2.380  0.00  0.00    +0.000 A 
ATOM     13  C   UNL     1       6.330  -3.192  -2.747  0.00  0.00    +0.000 A 
ATOM     14  C   UNL     1       5.481  -4.220  -2.343  0.00  0.00    +0.000 A 
ATOM     15  C   UNL     1       4.352  -3.933  -1.573  0.00  0.00    +0.000 A 
ENDBRANCH   9  10
ENDBRANCH   1   9
TORSDOF 3
