REMARK  Name = *****
REMARK  3 active torsions:
REMARK  status: ('A' for Active; 'I' for Inactive)
REMARK    1  A    between atoms: C_1  and  N_2
REMARK    2  A    between atoms: N_2  and  C_3
REMARK    3  A    between atoms: C_9  and  C_11
REMARK                            x       y       z     vdW  Elec       q    Type
REMARK                         _______ _______ _______ _____ _____    ______ ____
ROOT
ATOM      1  C   UNL     1       0.956   0.464   0.007  0.00  0.00    +0.000 C 
ATOM      2  N   UNL     1       2.417   0.340  -0.002  0.00  0.00    +0.000 N 
ATOM      3  C   UNL     1       3.133   0.236  -1.222  0.00  0.00    +0.000 C 
ATOM      4  O   UNL     1       4.359   0.234  -1.306  0.00  0.00    +0.000 OA
ENDROOT
BRANCH   2   5
ATOM      5  C   UNL     1       3.075   0.335   1.286  0.00  0.00    +0.000 A 
ATOM      6  C   UNL     1       4.418   0.702   1.453  0.00  0.00    +0.000 A 
ATOM      7  C   UNL     1       5.029   0.695   2.714  0.00  0.00    +0.000 A 
ATOM      8  C   UNL     1       4.308   0.319   3.841  0.00  0.00    +0.000 A 
ATOM      9  C   UNL     1       2.976  -0.048   3.707  0.00  0.00    +0.000 A 
ATOM     10  C   UNL     1       2.368  -0.038   2.446  0.00  0.00    +0.000 A 
ENDBRANCH   2   5
BRANCH   3  11
ATOM     11  C   UNL     1       2.344   0.060  -2.436  0.00  0.00    +0.000 A 
ATOM     12  C   UNL     1       1.494  -0.976  -2.786  0.00  0.00    +0.000 A 
ATOM     13  C   UNL     1       0.925  -0.790  -4.082  0.00  0.00    +0.000 A 
ATOM     14  C   UNL     1       1.385   0.364  -4.661  0.00  0.00    +0.000 A 
ATOM     15  S   UNL     1       2.480   1.218  -3.695  0.00  0.00    +0.000 S 
ATOM     16 CL   UNL     1       0.963   0.970  -6.211  0.00  0.00    +0.000 Cl
ENDBRANCH   3  11
TORSDOF 2
