REMARK  Name = *****
REMARK  4 active torsions:
REMARK  status: ('A' for Active; 'I' for Inactive)
REMARK    1  A    between atoms: C_1  and  C_2
REMARK    2  A    between atoms: C_4  and  C_8
REMARK    3  A    between atoms: C_8  and  O_10
REMARK    4  A    between atoms: O_10  and  C_11
REMARK                            x       y       z     vdW  Elec       q    Type
REMARK                         _______ _______ _______ _____ _____    ______ ____
ROOT
ATOM      1  C   UNL     1      -1.582   2.368   0.797  0.00  0.00    +0.000 C 
ATOM      2  O   UNL     1      -2.798   2.492   0.835  0.00  0.00    +0.000 OA
ENDROOT
BRANCH   1   6
ATOM      3  C   UNL     1       2.575  -0.290  -0.320  0.00  0.00    +0.000 C 
ATOM      4  C   UNL     1       1.082  -0.152  -0.279  0.00  0.00    +0.000 A 
ATOM      5  C   UNL     1       0.492   1.021   0.217  0.00  0.00    +0.000 A 
ATOM      6  C   UNL     1      -0.905   1.142   0.288  0.00  0.00    +0.000 A 
ATOM      7  C   UNL     1      -1.709   0.075  -0.133  0.00  0.00    +0.000 A 
ATOM      8  C   UNL     1      -1.127  -1.100  -0.611  0.00  0.00    +0.000 A 
ATOM      9  C   UNL     1       0.261  -1.214  -0.678  0.00  0.00    +0.000 A 
ENDBRANCH   1   6
BRANCH   1  10
ATOM     10  O   UNL     1      -0.637   3.293   1.199  0.00  0.00    +0.000 OA
BRANCH  10  11
ATOM     11  C   UNL     1      -1.181   4.476   1.708  0.00  0.00    +0.000 A 
ATOM     12  C   UNL     1      -1.737   4.502   2.985  0.00  0.00    +0.000 A 
ATOM     13  C   UNL     1      -2.217   5.710   3.473  0.00  0.00    +0.000 A 
ATOM     14  C   UNL     1      -2.134   6.877   2.718  0.00  0.00    +0.000 A 
ATOM     15  C   UNL     1      -1.557   6.842   1.447  0.00  0.00    +0.000 A 
ATOM     16  C   UNL     1      -1.070   5.636   0.940  0.00  0.00    +0.000 A 
ATOM     17  F   UNL     1      -2.761   5.757   4.697  0.00  0.00    +0.000 F 
ENDBRANCH  10  11
ENDBRANCH   1  10
TORSDOF 3
