REMARK  Name = *****
REMARK  4 active torsions:
REMARK  status: ('A' for Active; 'I' for Inactive)
REMARK    1  A    between atoms: C_1  and  C_2
REMARK    2  A    between atoms: N_6  and  C_8
REMARK    3  A    between atoms: C_8  and  C_9
REMARK    4  A    between atoms: C_10  and  C_11
REMARK                            x       y       z     vdW  Elec       q    Type
REMARK                         _______ _______ _______ _____ _____    ______ ____
ROOT
ATOM      1  C   UNL     1       2.504  -3.355  -3.475  0.00  0.00    +0.000 C 
ATOM      2  C   UNL     1       2.111  -3.679  -4.564  0.00  0.00    +0.000 C 
ENDROOT
BRANCH   2   3
ATOM      3  C   UNL     1       1.659  -4.034  -5.872  0.00  0.00    +0.000 A 
ATOM      4  C   UNL     1       1.198  -3.042  -6.740  0.00  0.00    +0.000 A 
ATOM      5  C   UNL     1       0.771  -3.389  -8.021  0.00  0.00    +0.000 A 
ATOM      6  C   UNL     1       0.799  -4.716  -8.444  0.00  0.00    +0.000 A 
ATOM      7  C   UNL     1       1.258  -5.699  -7.570  0.00  0.00    +0.000 A 
ATOM      8  C   UNL     1       1.688  -5.367  -6.286  0.00  0.00    +0.000 A 
ATOM      9 CL   UNL     1       1.298  -7.342  -8.083  0.00  0.00    +0.000 Cl
ATOM     10 CL   UNL     1       0.209  -2.166  -9.093  0.00  0.00    +0.000 Cl
ENDBRANCH   2   3
BRANCH   1  11
ATOM     11  C   UNL     1       3.005  -2.939  -2.156  0.00  0.00    +0.000 C 
BRANCH  11  17
ATOM     12  C   UNL     1       0.855   0.096   0.192  0.00  0.00    +0.000 C 
ATOM     13  C   UNL     1       2.383   0.064   0.084  0.00  0.00    +0.000 C 
ATOM     14  C   UNL     1       2.907   1.167  -0.844  0.00  0.00    +0.000 C 
ATOM     15  C   UNL     1       2.651   0.839  -2.311  0.00  0.00    +0.000 C 
ATOM     16  C   UNL     1       3.149  -0.562  -2.669  0.00  0.00    +0.000 C 
ATOM     17  N   UNL     1       2.553  -1.586  -1.793  0.00  0.00    +0.000 N 
ATOM     18  C   UNL     1       2.889  -1.312  -0.384  0.00  0.00    +0.000 C 
ATOM     19  H   UNL     1       1.542  -1.544  -1.916  0.00  0.00    +0.000 HD
ENDBRANCH  11  17
ENDBRANCH   1  11
TORSDOF 3
