REMARK  Name = *****
REMARK  4 active torsions:
REMARK  status: ('A' for Active; 'I' for Inactive)
REMARK    1  A    between atoms: C_3  and  C_11
REMARK    2  A    between atoms: C_5  and  C_7
REMARK    3  A    between atoms: C_11  and  O_13
REMARK    4  A    between atoms: O_13  and  C_14
REMARK                            x       y       z     vdW  Elec       q    Type
REMARK                         _______ _______ _______ _____ _____    ______ ____
ROOT
ATOM      1  C   UNL     1       1.495  -0.071   0.437  0.00  0.00    +0.000 A 
ATOM      2  C   UNL     1       0.738  -1.135  -0.058  0.00  0.00    +0.000 A 
ATOM      3  C   UNL     1      -0.634  -0.973  -0.293  0.00  0.00    +0.000 A 
ATOM      4  C   UNL     1      -1.236   0.266  -0.024  0.00  0.00    +0.000 A 
ATOM      5  C   UNL     1      -0.483   1.339   0.482  0.00  0.00    +0.000 A 
ATOM      6  C   UNL     1       0.890   1.158   0.702  0.00  0.00    +0.000 A 
ENDROOT
BRANCH   5   7
ATOM      7  C   UNL     1      -1.137   2.675   0.743  0.00  0.00    +0.000 C 
ATOM      8  F   UNL     1      -2.413   2.561   1.205  0.00  0.00    +0.000 F 
ATOM      9  F   UNL     1      -0.474   3.424   1.668  0.00  0.00    +0.000 F 
ATOM     10  F   UNL     1      -1.209   3.441  -0.379  0.00  0.00    +0.000 F 
ENDBRANCH   5   7
BRANCH   3  11
ATOM     11  C   UNL     1      -1.494  -2.068  -0.826  0.00  0.00    +0.000 C 
ATOM     12  O   UNL     1      -2.692  -1.934  -1.024  0.00  0.00    +0.000 OA
BRANCH  11  13
ATOM     13  O   UNL     1      -0.731  -3.201  -1.042  0.00  0.00    +0.000 OA
BRANCH  13  14
ATOM     14  C   UNL     1      -1.431  -4.296  -1.562  0.00  0.00    +0.000 A 
ATOM     15  C   UNL     1      -1.962  -4.260  -2.853  0.00  0.00    +0.000 A 
ATOM     16  C   UNL     1      -2.602  -5.392  -3.357  0.00  0.00    +0.000 A 
ATOM     17  C   UNL     1      -2.682  -6.541  -2.573  0.00  0.00    +0.000 A 
ATOM     18  C   UNL     1      -2.132  -6.582  -1.294  0.00  0.00    +0.000 A 
ATOM     19  C   UNL     1      -1.493  -5.453  -0.784  0.00  0.00    +0.000 A 
ATOM     20  F   UNL     1      -3.292  -7.629  -3.061  0.00  0.00    +0.000 F 
ENDBRANCH  13  14
ENDBRANCH  11  13
ENDBRANCH   3  11
TORSDOF 4
