REMARK  Name = *****
REMARK  4 active torsions:
REMARK  status: ('A' for Active; 'I' for Inactive)
REMARK    1  A    between atoms: C_1  and  C_2
REMARK    2  A    between atoms: C_2  and  C_4
REMARK    3  A    between atoms: C_4  and  C_10
REMARK    4  A    between atoms: C_11  and  C_12
REMARK                            x       y       z     vdW  Elec       q    Type
REMARK                         _______ _______ _______ _____ _____    ______ ____
ROOT
ATOM      1  C   UNL     1       3.261  -0.948   0.247  0.00  0.00    +0.000 C 
ATOM      2  C   UNL     1       3.509  -1.609  -1.113  0.00  0.00    +0.000 C 
ATOM      3  C   UNL     1       2.520  -2.228  -0.148  0.00  0.00    +0.000 C 
ATOM      4  C   UNL     1       3.059  -3.577   0.110  0.00  0.00    +0.000 C 
ATOM      5  C   UNL     1       4.191  -3.846  -0.561  0.00  0.00    +0.000 C 
ATOM      6  C   UNL     1       4.590  -2.641  -1.374  0.00  0.00    +0.000 C 
ENDROOT
BRANCH   1   8
ATOM      7  C   UNL     1       3.019   1.457  -0.580  0.00  0.00    +0.000 C 
ATOM      8  C   UNL     1       2.441   0.311   0.211  0.00  0.00    +0.000 C 
ATOM      9  C   UNL     1       1.292   0.472   0.892  0.00  0.00    +0.000 C 
ENDBRANCH   1   8
BRANCH   1  10
ATOM     10  C   UNL     1       4.306  -1.061   1.247  0.00  0.00    +0.000 C 
ATOM     11  C   UNL     1       5.171  -1.154   2.076  0.00  0.00    +0.000 C 
BRANCH  11  12
ATOM     12  C   UNL     1       6.199  -1.276   3.061  0.00  0.00    +0.000 A 
ATOM     13  C   UNL     1       6.758  -0.133   3.637  0.00  0.00    +0.000 A 
ATOM     14  C   UNL     1       7.763  -0.256   4.599  0.00  0.00    +0.000 A 
ATOM     15  C   UNL     1       8.208  -1.520   4.986  0.00  0.00    +0.000 A 
ATOM     16  C   UNL     1       7.651  -2.663   4.411  0.00  0.00    +0.000 A 
ATOM     17  C   UNL     1       6.647  -2.541   3.449  0.00  0.00    +0.000 A 
ENDBRANCH  11  12
ENDBRANCH   1  10
TORSDOF 3
