REMARK  Name = *****
REMARK  5 active torsions:
REMARK  status: ('A' for Active; 'I' for Inactive)
REMARK    1  A    between atoms: C_1  and  C_2
REMARK    2  A    between atoms: C_3  and  C_10
REMARK    3  A    between atoms: C_6  and  O_8
REMARK    4  A    between atoms: O_8  and  C_9
REMARK    5  A    between atoms: C_11  and  C_12
REMARK                            x       y       z     vdW  Elec       q    Type
REMARK                         _______ _______ _______ _____ _____    ______ ____
ROOT
ATOM      1  C   UNL     1       2.334  -0.400  -1.419  0.00  0.00    +0.000 C 
ATOM      2  C   UNL     1       1.003  -0.213  -0.744  0.00  0.00    +0.000 A 
ATOM      3  C   UNL     1       0.610   1.026  -0.207  0.00  0.00    +0.000 A 
ATOM      4  C   UNL     1      -0.647   1.139   0.406  0.00  0.00    +0.000 A 
ATOM      5  C   UNL     1      -1.507   0.040   0.498  0.00  0.00    +0.000 A 
ATOM      6  C   UNL     1      -1.123  -1.190  -0.029  0.00  0.00    +0.000 A 
ATOM      7  C   UNL     1       0.126  -1.308  -0.646  0.00  0.00    +0.000 A 
ENDROOT
BRANCH   6   8
ATOM      8  O   UNL     1      -1.862  -2.341  -0.011  0.00  0.00    +0.000 OA
ATOM      9  C   UNL     1      -3.143  -2.272   0.604  0.00  0.00    +0.000 C 
ENDBRANCH   6   8
BRANCH   3  10
ATOM     10  C   UNL     1       1.471   2.212  -0.310  0.00  0.00    +0.000 C 
ATOM     11  C   UNL     1       1.878   2.902   0.768  0.00  0.00    +0.000 C 
BRANCH  11  12
ATOM     12  C   UNL     1       2.755   4.077   0.698  0.00  0.00    +0.000 A 
ATOM     13  C   UNL     1       2.608   5.060  -0.290  0.00  0.00    +0.000 A 
ATOM     14  C   UNL     1       3.442   6.181  -0.307  0.00  0.00    +0.000 A 
ATOM     15  C   UNL     1       4.424   6.335   0.669  0.00  0.00    +0.000 A 
ATOM     16  C   UNL     1       4.570   5.373   1.666  0.00  0.00    +0.000 A 
ATOM     17  C   UNL     1       3.735   4.253   1.683  0.00  0.00    +0.000 A 
ENDBRANCH  11  12
ENDBRANCH   3  10
TORSDOF 3
