REMARK  Name = *****
REMARK  2 active torsions:
REMARK  status: ('A' for Active; 'I' for Inactive)
REMARK    1  A    between atoms: C_7  and  C_8
REMARK    2  A    between atoms: C_9  and  C_10
REMARK                            x       y       z     vdW  Elec       q    Type
REMARK                         _______ _______ _______ _____ _____    ______ ____
ROOT
ATOM      1  C   UNL     1       2.457   1.563   0.150  0.00  0.00    +0.000 C 
ATOM      2  C   UNL     1       2.647   2.378  -0.901  0.00  0.00    +0.000 C 
ENDROOT
BRANCH   1   9
ATOM      3  C   UNL     1      -1.200  -0.844   0.494  0.00  0.00    +0.000 C 
ATOM      4  C   UNL     1      -1.335   0.685   0.501  0.00  0.00    +0.000 C 
ATOM      5  C   UNL     1      -0.098   1.149  -0.295  0.00  0.00    +0.000 C 
ATOM      6  C   UNL     1       0.001   0.052  -1.358  0.00  0.00    +0.000 C 
ATOM      7  C   UNL     1       0.081  -1.071  -0.325  0.00  0.00    +0.000 C 
ATOM      8  C   UNL     1       1.297  -0.641   0.515  0.00  0.00    +0.000 C 
ATOM      9  C   UNL     1       1.166   0.902   0.572  0.00  0.00    +0.000 C 
ENDBRANCH   1   9
BRANCH   2  10
ATOM     10  C   UNL     1       3.940   2.990  -1.240  0.00  0.00    +0.000 A 
ATOM     11  C   UNL     1       5.149   2.291  -1.134  0.00  0.00    +0.000 A 
ATOM     12  C   UNL     1       6.355   2.895  -1.499  0.00  0.00    +0.000 A 
ATOM     13  C   UNL     1       6.363   4.201  -1.984  0.00  0.00    +0.000 A 
ATOM     14  C   UNL     1       5.165   4.902  -2.110  0.00  0.00    +0.000 A 
ATOM     15  C   UNL     1       3.959   4.297  -1.745  0.00  0.00    +0.000 A 
ENDBRANCH   2  10
TORSDOF 2
