REMARK  Name = *****
REMARK  5 active torsions:
REMARK  status: ('A' for Active; 'I' for Inactive)
REMARK    1  A    between atoms: C_1  and  O_2
REMARK    2  A    between atoms: O_2  and  C_3
REMARK    3  A    between atoms: C_7  and  C_9
REMARK    4  A    between atoms: C_9  and  S_10
REMARK    5  A    between atoms: S_10  and  C_11
REMARK                            x       y       z     vdW  Elec       q    Type
REMARK                         _______ _______ _______ _____ _____    ______ ____
ROOT
ATOM      1  C   UNL     1       3.181   1.277  -0.460  0.00  0.00    +0.000 A 
ATOM      2  C   UNL     1       2.475   2.467  -0.287  0.00  0.00    +0.000 A 
ATOM      3  C   UNL     1       2.978   3.662  -0.810  0.00  0.00    +0.000 A 
ATOM      4  C   UNL     1       4.183   3.672  -1.511  0.00  0.00    +0.000 A 
ATOM      5  C   UNL     1       4.901   2.484  -1.700  0.00  0.00    +0.000 A 
ATOM      6  C   UNL     1       4.391   1.293  -1.161  0.00  0.00    +0.000 A 
ENDROOT
BRANCH   1   8
ATOM      7  C   UNL     1       1.587  -0.024   0.731  0.00  0.00    +0.000 C 
ATOM      8  O   UNL     1       2.805   0.044  -0.001  0.00  0.00    +0.000 OA
ENDBRANCH   1   8
BRANCH   5   9
ATOM      9  C   UNL     1       6.209   2.487  -2.450  0.00  0.00    +0.000 C 
BRANCH   9  10
ATOM     10  S   UNL     1       7.602   2.940  -1.366  0.00  0.00    +0.000 S 
BRANCH  10  11
ATOM     11  C   UNL     1       8.908   2.951  -2.578  0.00  0.00    +0.000 A 
ATOM     12  C   UNL     1       9.496   4.164  -2.948  0.00  0.00    +0.000 A 
ATOM     13  C   UNL     1      10.521   4.189  -3.896  0.00  0.00    +0.000 A 
ATOM     14  C   UNL     1      10.967   3.001  -4.473  0.00  0.00    +0.000 A 
ATOM     15  C   UNL     1      10.392   1.787  -4.099  0.00  0.00    +0.000 A 
ATOM     16  C   UNL     1       9.367   1.761  -3.151  0.00  0.00    +0.000 A 
ENDBRANCH  10  11
ENDBRANCH   9  10
ENDBRANCH   5   9
TORSDOF 4
