REMARK  Name = *****
REMARK  3 active torsions:
REMARK  status: ('A' for Active; 'I' for Inactive)
REMARK    1  A    between atoms: C_4  and  C_16
REMARK    2  A    between atoms: C_6  and  C_8
REMARK    3  A    between atoms: C_9  and  C_10
REMARK                            x       y       z     vdW  Elec       q    Type
REMARK                         _______ _______ _______ _____ _____    ______ ____
ROOT
ATOM      1  C   UNL     1       1.182   0.578   0.722  0.00  0.00    +0.000 C 
ATOM      2  C   UNL     1       2.454   0.251   0.454  0.00  0.00    +0.000 C 
ATOM      3  C   UNL     1       3.572   1.253   0.344  0.00  0.00    +0.000 C 
ATOM      4  C   UNL     1       4.288   1.113  -1.009  0.00  0.00    +0.000 C 
ATOM      5  O   UNL     1       4.720  -0.247  -1.248  0.00  0.00    +0.000 OA
ATOM      6  C   UNL     1       3.723  -1.274  -1.103  0.00  0.00    +0.000 C 
ATOM      7  C   UNL     1       2.927  -1.158   0.214  0.00  0.00    +0.000 C 
ENDROOT
BRANCH   6   8
ATOM      8  C   UNL     1       2.869  -1.401  -2.342  0.00  0.00    +0.000 C 
ATOM      9  C   UNL     1       3.365  -1.407  -3.591  0.00  0.00    +0.000 C 
BRANCH   9  10
ATOM     10  C   UNL     1       2.550  -1.513  -4.808  0.00  0.00    +0.000 A 
ATOM     11  C   UNL     1       2.958  -0.819  -5.955  0.00  0.00    +0.000 A 
ATOM     12  C   UNL     1       2.226  -0.910  -7.142  0.00  0.00    +0.000 A 
ATOM     13  C   UNL     1       1.084  -1.705  -7.197  0.00  0.00    +0.000 A 
ATOM     14  C   UNL     1       0.676  -2.414  -6.068  0.00  0.00    +0.000 A 
ATOM     15  C   UNL     1       1.409  -2.322  -4.882  0.00  0.00    +0.000 A 
ENDBRANCH   9  10
ENDBRANCH   6   8
BRANCH   4  16
ATOM     16  C   UNL     1       3.498   1.692  -2.194  0.00  0.00    +0.000 C 
ATOM     17 CL   UNL     1       3.375   3.471  -2.110  0.00  0.00    +0.000 Cl
ENDBRANCH   4  16
TORSDOF 3
