REMARK  Name = *****
REMARK  4 active torsions:
REMARK  status: ('A' for Active; 'I' for Inactive)
REMARK    1  A    between atoms: C_5  and  C_8
REMARK    2  A    between atoms: C_8  and  O_9
REMARK    3  A    between atoms: O_9  and  C_10
REMARK    4  A    between atoms: C_10  and  C_12
REMARK                            x       y       z     vdW  Elec       q    Type
REMARK                         _______ _______ _______ _____ _____    ______ ____
ROOT
ATOM      1  O   UNL     1       3.012  -1.223  -2.026  0.00  0.00    +0.000 OA
ENDROOT
BRANCH   1   2
ATOM      2  C   UNL     1       2.494  -2.201  -2.808  0.00  0.00    +0.000 C 
ATOM      3  O   UNL     1       1.371  -2.224  -3.285  0.00  0.00    +0.000 OA
BRANCH   2   4
ATOM      4  C   UNL     1       3.490  -3.289  -3.008  0.00  0.00    +0.000 A 
ATOM      5  C   UNL     1       4.781  -3.238  -2.464  0.00  0.00    +0.000 A 
ATOM      6  C   UNL     1       5.677  -4.289  -2.683  0.00  0.00    +0.000 A 
ATOM      7  C   UNL     1       5.289  -5.392  -3.442  0.00  0.00    +0.000 A 
ATOM      8  C   UNL     1       4.007  -5.450  -3.986  0.00  0.00    +0.000 A 
ATOM      9  C   UNL     1       3.109  -4.403  -3.770  0.00  0.00    +0.000 A 
ENDBRANCH   2   4
ENDBRANCH   1   2
BRANCH   1  10
ATOM     10  C   UNL     1       2.163  -0.096  -1.742  0.00  0.00    +0.000 C 
BRANCH  10  15
ATOM     11  C   UNL     1      -2.247   0.214   0.755  0.00  0.00    +0.000 C 
ATOM     12  C   UNL     1      -1.089   0.127   0.081  0.00  0.00    +0.000 C 
ATOM     13  C   UNL     1      -0.468  -1.196  -0.290  0.00  0.00    +0.000 C 
ATOM     14  C   UNL     1       0.979  -1.271   0.206  0.00  0.00    +0.000 C 
ATOM     15  C   UNL     1       1.832  -0.067  -0.240  0.00  0.00    +0.000 C 
ATOM     16  C   UNL     1       1.141   1.251   0.156  0.00  0.00    +0.000 C 
ATOM     17  C   UNL     1      -0.305   1.343  -0.338  0.00  0.00    +0.000 C 
ENDBRANCH  10  15
ENDBRANCH   1  10
TORSDOF 4
