REMARK  Name = *****
REMARK  2 active torsions:
REMARK  status: ('A' for Active; 'I' for Inactive)
REMARK    1  A    between atoms: C_4  and  C_7
REMARK    2  A    between atoms: N_8  and  C_9
REMARK                            x       y       z     vdW  Elec       q    Type
REMARK                         _______ _______ _______ _____ _____    ______ ____
ROOT
ATOM      1  C   UNL     1      -2.709   0.617   0.208  0.00  0.00    +0.000 C 
ATOM      2  N   UNL     1      -3.195   1.806   0.037  0.00  0.00    +0.000 NA
ATOM      3  F   UNL     1      -3.616  -0.329   0.511  0.00  0.00    +0.000 F 
ENDROOT
BRANCH   1   7
ATOM      4  C   UNL     1       1.286  -0.900   0.096  0.00  0.00    +0.000 A 
ATOM      5  C   UNL     1       0.369  -1.369   1.036  0.00  0.00    +0.000 A 
ATOM      6  C   UNL     1      -0.930  -0.858   1.058  0.00  0.00    +0.000 A 
ATOM      7  C   UNL     1      -1.309   0.135   0.147  0.00  0.00    +0.000 A 
ATOM      8  C   UNL     1      -0.395   0.585  -0.810  0.00  0.00    +0.000 A 
ATOM      9  C   UNL     1       0.904   0.072  -0.828  0.00  0.00    +0.000 A 
ENDBRANCH   1   7
BRANCH   2  10
ATOM     10  C   UNL     1      -2.380   2.921  -0.177  0.00  0.00    +0.000 A 
ATOM     11  C   UNL     1      -2.454   3.596  -1.399  0.00  0.00    +0.000 A 
ATOM     12  C   UNL     1      -1.671   4.727  -1.634  0.00  0.00    +0.000 A 
ATOM     13  C   UNL     1      -0.820   5.203  -0.638  0.00  0.00    +0.000 A 
ATOM     14  C   UNL     1      -0.762   4.556   0.595  0.00  0.00    +0.000 A 
ATOM     15  C   UNL     1      -1.548   3.425   0.828  0.00  0.00    +0.000 A 
ENDBRANCH   2  10
TORSDOF 2
