REMARK  Name = *****
REMARK  4 active torsions:
REMARK  status: ('A' for Active; 'I' for Inactive)
REMARK    1  A    between atoms: C_1  and  C_2
REMARK    2  A    between atoms: C_4  and  C_9
REMARK    3  A    between atoms: C_9  and  O_11
REMARK    4  A    between atoms: O_11  and  C_12
REMARK                            x       y       z     vdW  Elec       q    Type
REMARK                         _______ _______ _______ _____ _____    ______ ____
ROOT
ATOM      1  C   UNL     1       5.374  -2.185   0.539  0.00  0.00    +0.000 C 
ATOM      2  O   UNL     1       6.384  -2.480  -0.078  0.00  0.00    +0.000 OA
ENDROOT
BRANCH   1   6
ATOM      3  C   UNL     1       0.932  -0.144  -0.514  0.00  0.00    +0.000 C 
ATOM      4  C   UNL     1       2.402  -0.002  -0.256  0.00  0.00    +0.000 A 
ATOM      5  C   UNL     1       3.185  -1.128   0.034  0.00  0.00    +0.000 A 
ATOM      6  C   UNL     1       4.556  -1.009   0.244  0.00  0.00    +0.000 A 
ATOM      7  C   UNL     1       5.161   0.237   0.141  0.00  0.00    +0.000 A 
ATOM      8  C   UNL     1       4.404   1.367  -0.162  0.00  0.00    +0.000 A 
ATOM      9  C   UNL     1       3.027   1.248  -0.364  0.00  0.00    +0.000 A 
ATOM     10  F   UNL     1       6.476   0.386   0.355  0.00  0.00    +0.000 F 
ATOM     11  F   UNL     1       2.597  -2.333   0.089  0.00  0.00    +0.000 F 
ENDBRANCH   1   6
BRANCH   1  12
ATOM     12  O   UNL     1       4.820  -2.816   1.635  0.00  0.00    +0.000 OA
BRANCH  12  13
ATOM     13  C   UNL     1       5.537  -3.949   2.024  0.00  0.00    +0.000 A 
ATOM     14  C   UNL     1       6.629  -3.815   2.876  0.00  0.00    +0.000 A 
ATOM     15  C   UNL     1       7.292  -4.964   3.287  0.00  0.00    +0.000 A 
ATOM     16  C   UNL     1       6.872  -6.226   2.872  0.00  0.00    +0.000 A 
ATOM     17  C   UNL     1       5.762  -6.347   2.034  0.00  0.00    +0.000 A 
ATOM     18  C   UNL     1       5.084  -5.203   1.612  0.00  0.00    +0.000 A 
ATOM     19  F   UNL     1       8.349  -4.859   4.103  0.00  0.00    +0.000 F 
ENDBRANCH  12  13
ENDBRANCH   1  12
TORSDOF 3
