REMARK  Name = *****
REMARK  3 active torsions:
REMARK  status: ('A' for Active; 'I' for Inactive)
REMARK    1  A    between atoms: C_5  and  O_7
REMARK    2  A    between atoms: O_7  and  C_8
REMARK    3  A    between atoms: C_8  and  C_10
REMARK                            x       y       z     vdW  Elec       q    Type
REMARK                         _______ _______ _______ _____ _____    ______ ____
ROOT
ATOM      1  C   UNL     1      -2.978  -2.346  -0.410  0.00  0.00    +0.000 C 
ATOM      2  O   UNL     1      -3.500  -2.046   0.651  0.00  0.00    +0.000 OA
ENDROOT
BRANCH   1   3
ATOM      3  C   UNL     1      -3.646  -3.182  -1.445  0.00  0.00    +0.000 A 
ATOM      4  C   UNL     1      -4.924  -3.690  -1.161  0.00  0.00    +0.000 A 
ATOM      5  C   UNL     1      -5.593  -4.479  -2.100  0.00  0.00    +0.000 A 
ATOM      6  C   UNL     1      -4.984  -4.758  -3.318  0.00  0.00    +0.000 A 
ATOM      7  C   UNL     1      -3.720  -4.263  -3.618  0.00  0.00    +0.000 A 
ATOM      8  C   UNL     1      -3.047  -3.473  -2.681  0.00  0.00    +0.000 A 
ATOM      9  F   UNL     1      -5.626  -5.515  -4.218  0.00  0.00    +0.000 F 
ENDBRANCH   1   3
BRANCH   1  10
ATOM     10  O   UNL     1      -1.738  -1.988  -0.821  0.00  0.00    +0.000 OA
BRANCH  10  15
ATOM     11  C   UNL     1      -0.397   1.250   0.541  0.00  0.00    +0.000 C 
ATOM     12  C   UNL     1       0.969   1.084  -0.130  0.00  0.00    +0.000 C 
ATOM     13  C   UNL     1       1.341  -0.353  -0.352  0.00  0.00    +0.000 C 
ATOM     14  C   UNL     1       0.464  -1.363  -0.238  0.00  0.00    +0.000 C 
ATOM     15  C   UNL     1      -0.992  -1.169   0.094  0.00  0.00    +0.000 C 
ATOM     16  C   UNL     1      -1.427   0.297  -0.057  0.00  0.00    +0.000 C 
ENDBRANCH  10  15
ENDBRANCH   1  10
TORSDOF 3
