REMARK  Name = *****
REMARK  2 active torsions:
REMARK  status: ('A' for Active; 'I' for Inactive)
REMARK    1  A    between atoms: C_7  and  C_8
REMARK    2  A    between atoms: C_9  and  C_10
REMARK                            x       y       z     vdW  Elec       q    Type
REMARK                         _______ _______ _______ _____ _____    ______ ____
ROOT
ATOM      1  C   UNL     1      -1.222  -0.754  -0.690  0.00  0.00    +0.000 C 
ATOM      2  C   UNL     1      -1.237   0.782  -0.660  0.00  0.00    +0.000 C 
ATOM      3  C   UNL     1      -0.055   1.118   0.278  0.00  0.00    +0.000 C 
ATOM      4  C   UNL     1       1.235   0.773  -0.493  0.00  0.00    +0.000 C 
ATOM      5  C   UNL     1       1.270  -0.763  -0.453  0.00  0.00    +0.000 C 
ATOM      6  C   UNL     1      -0.057  -1.109   0.260  0.00  0.00    +0.000 C 
ATOM      7  C   UNL     1      -0.113  -0.007   1.325  0.00  0.00    +0.000 C 
ATOM      8 BR   UNL     1       2.794   1.543   0.379  0.00  0.00    +0.000 Br
ENDROOT
BRANCH   7   9
ATOM      9  C   UNL     1      -1.316  -0.016   2.165  0.00  0.00    +0.000 C 
ATOM     10  C   UNL     1      -2.302  -0.023   2.852  0.00  0.00    +0.000 C 
BRANCH  10  11
ATOM     11  C   UNL     1      -3.481  -0.032   3.660  0.00  0.00    +0.000 A 
ATOM     12  C   UNL     1      -4.054  -1.246   4.047  0.00  0.00    +0.000 A 
ATOM     13  C   UNL     1      -5.209  -1.254   4.833  0.00  0.00    +0.000 A 
ATOM     14  C   UNL     1      -5.790  -0.050   5.232  0.00  0.00    +0.000 A 
ATOM     15  C   UNL     1      -5.218   1.162   4.847  0.00  0.00    +0.000 A 
ATOM     16  C   UNL     1      -4.064   1.172   4.061  0.00  0.00    +0.000 A 
ENDBRANCH  10  11
ENDBRANCH   7   9
TORSDOF 2
