REMARK  Name = *****
REMARK  3 active torsions:
REMARK  status: ('A' for Active; 'I' for Inactive)
REMARK    1  A    between atoms: C_4  and  C_16
REMARK    2  A    between atoms: C_5  and  C_8
REMARK    3  A    between atoms: C_9  and  C_10
REMARK                            x       y       z     vdW  Elec       q    Type
REMARK                         _______ _______ _______ _____ _____    ______ ____
ROOT
ATOM      1  C   UNL     1       1.690  -0.075   0.087  0.00  0.00    +0.000 C 
ATOM      2  C   UNL     1       0.754  -1.121   0.680  0.00  0.00    +0.000 C 
ATOM      3  C   UNL     1      -0.399  -1.518  -0.240  0.00  0.00    +0.000 C 
ATOM      4  C   UNL     1      -1.556  -0.543  -0.341  0.00  0.00    +0.000 C 
ATOM      5  C   UNL     1      -1.518   0.793  -0.123  0.00  0.00    +0.000 C 
ATOM      6  C   UNL     1      -0.248   1.588   0.144  0.00  0.00    +0.000 C 
ATOM      7  C   UNL     1       0.998   1.100  -0.591  0.00  0.00    +0.000 C 
ENDROOT
BRANCH   5   8
ATOM      8  C   UNL     1      -2.712   1.587  -0.191  0.00  0.00    +0.000 C 
ATOM      9  C   UNL     1      -3.699   2.270  -0.246  0.00  0.00    +0.000 C 
BRANCH   9  10
ATOM     10  C   UNL     1      -4.875   3.082  -0.316  0.00  0.00    +0.000 A 
ATOM     11  C   UNL     1      -6.127   2.487  -0.493  0.00  0.00    +0.000 A 
ATOM     12  C   UNL     1      -7.273   3.281  -0.564  0.00  0.00    +0.000 A 
ATOM     13  C   UNL     1      -7.170   4.668  -0.459  0.00  0.00    +0.000 A 
ATOM     14  C   UNL     1      -5.921   5.263  -0.281  0.00  0.00    +0.000 A 
ATOM     15  C   UNL     1      -4.773   4.471  -0.210  0.00  0.00    +0.000 A 
ENDBRANCH   9  10
ENDBRANCH   5   8
BRANCH   4  16
ATOM     16  C   UNL     1      -2.853  -1.213  -0.701  0.00  0.00    +0.000 C 
ATOM     17  O   UNL     1      -2.933  -2.409  -0.964  0.00  0.00    +0.000 OA
ENDBRANCH   4  16
TORSDOF 3
