REMARK  Name = *****
REMARK  6 active torsions:
REMARK  status: ('A' for Active; 'I' for Inactive)
REMARK    1  A    between atoms: C_1  and  O_2
REMARK    2  A    between atoms: O_2  and  C_3
REMARK    3  A    between atoms: C_3  and  C_4
REMARK    4  A    between atoms: C_3  and  C_12
REMARK    5  A    between atoms: C_4  and  C_5
REMARK    6  A    between atoms: C_5  and  C_6
REMARK                            x       y       z     vdW  Elec       q    Type
REMARK                         _______ _______ _______ _____ _____    ______ ____
ROOT
ATOM      1  C   UNL     1       2.980   0.860   1.323  0.00  0.00    +0.000 C 
ENDROOT
BRANCH   1   2
ATOM      2  C   UNL     1       4.488   0.914   1.145  0.00  0.00    +0.000 A 
ATOM      3  C   UNL     1       5.100   2.080   0.661  0.00  0.00    +0.000 A 
ATOM      4  C   UNL     1       6.483   2.134   0.482  0.00  0.00    +0.000 A 
ATOM      5  C   UNL     1       7.270   1.023   0.779  0.00  0.00    +0.000 A 
ATOM      6  C   UNL     1       6.675  -0.144   1.255  0.00  0.00    +0.000 A 
ATOM      7  C   UNL     1       5.293  -0.199   1.435  0.00  0.00    +0.000 A 
ENDBRANCH   1   2
BRANCH   1   9
ATOM      8  C   UNL     1       2.788   1.056   3.688  0.00  0.00    +0.000 C 
ATOM      9  O   UNL     1       2.630   0.212   2.554  0.00  0.00    +0.000 OA
ENDBRANCH   1   9
BRANCH   1  10
ATOM     10  C   UNL     1       2.339   0.078   0.166  0.00  0.00    +0.000 C 
BRANCH  10  11
ATOM     11  C   UNL     1       0.809   0.099   0.254  0.00  0.00    +0.000 C 
BRANCH  11  12
ATOM     12  C   UNL     1       0.176  -0.625  -0.909  0.00  0.00    +0.000 A 
ATOM     13  C   UNL     1      -0.069  -2.003  -0.835  0.00  0.00    +0.000 A 
ATOM     14  C   UNL     1      -0.638  -2.678  -1.916  0.00  0.00    +0.000 A 
ATOM     15  C   UNL     1      -0.964  -1.985  -3.080  0.00  0.00    +0.000 A 
ATOM     16  C   UNL     1      -0.718  -0.615  -3.165  0.00  0.00    +0.000 A 
ATOM     17  C   UNL     1      -0.148   0.062  -2.086  0.00  0.00    +0.000 A 
ENDBRANCH  11  12
ENDBRANCH  10  11
ENDBRANCH   1  10
TORSDOF 5
