REMARK  Name = *****
REMARK  2 active torsions:
REMARK  status: ('A' for Active; 'I' for Inactive)
REMARK    1  A    between atoms: C_8  and  C_10
REMARK    2  A    between atoms: C_12  and  S_16
REMARK                            x       y       z     vdW  Elec       q    Type
REMARK                         _______ _______ _______ _____ _____    ______ ____
ROOT
ATOM      1  C   UNL     1       3.478  -1.476  -0.207  0.00  0.00    +0.000 A 
ATOM      2  C   UNL     1       3.846  -2.638   0.485  0.00  0.00    +0.000 A 
ATOM      3  C   UNL     1       5.163  -3.109   0.417  0.00  0.00    +0.000 A 
ATOM      4  C   UNL     1       6.121  -2.451  -0.358  0.00  0.00    +0.000 A 
ATOM      5  C   UNL     1       5.760  -1.299  -1.052  0.00  0.00    +0.000 A 
ATOM      6  C   UNL     1       4.450  -0.816  -0.976  0.00  0.00    +0.000 A 
ENDROOT
BRANCH   1  14
ATOM      7  C   UNL     1      -2.624  -0.308   0.024  0.00  0.00    +0.000 A 
ATOM      8  C   UNL     1      -2.279   1.022   0.219  0.00  0.00    +0.000 A 
ATOM      9  C   UNL     1      -0.938   1.409   0.263  0.00  0.00    +0.000 A 
ATOM     10  C   UNL     1       0.060   0.428   0.106  0.00  0.00    +0.000 A 
ATOM     11  C   UNL     1      -0.262  -0.915  -0.092  0.00  0.00    +0.000 A 
ATOM     12  C   UNL     1      -1.629  -1.279  -0.131  0.00  0.00    +0.000 A 
ATOM     13  C   UNL     1       0.921  -1.717  -0.224  0.00  0.00    +0.000 A 
ATOM     14  C   UNL     1       2.093  -0.991  -0.137  0.00  0.00    +0.000 A 
ATOM     15  S   UNL     1       1.763   0.667   0.126  0.00  0.00    +0.000 S 
ENDBRANCH   1  14
BRANCH   3  16
ATOM     16  S   UNL     1       5.600  -4.591   1.278  0.00  0.00    +0.000 S 
ATOM     17  O   UNL     1       4.407  -5.387   1.481  0.00  0.00    +0.000 OA
ATOM     18  O   UNL     1       6.815  -5.132   0.707  0.00  0.00    +0.000 OA
ATOM     19 CL   UNL     1       6.115  -3.861   3.115  0.00  0.00    +0.000 Cl
ENDBRANCH   3  16
TORSDOF 2
