REMARK  Name = *****
REMARK  2 active torsions:
REMARK  status: ('A' for Active; 'I' for Inactive)
REMARK    1  A    between atoms: C_10  and  O_11
REMARK    2  A    between atoms: O_11  and  C_12
REMARK                            x       y       z     vdW  Elec       q    Type
REMARK                         _______ _______ _______ _____ _____    ______ ____
ROOT
ATOM      1  C   UNL     1      -2.499   0.797   0.232  0.00  0.00    +0.000 A 
ATOM      2  C   UNL     1      -2.482  -0.580   0.430  0.00  0.00    +0.000 A 
ATOM      3  C   UNL     1      -1.272  -1.274   0.375  0.00  0.00    +0.000 A 
ATOM      4  C   UNL     1      -0.056  -0.600   0.120  0.00  0.00    +0.000 A 
ATOM      5  C   UNL     1      -0.084   0.796  -0.081  0.00  0.00    +0.000 A 
ATOM      6  C   UNL     1      -1.310   1.481  -0.022  0.00  0.00    +0.000 A 
ATOM      7  C   UNL     1       1.113   1.474  -0.339  0.00  0.00    +0.000 A 
ATOM      8  C   UNL     1       2.293   0.752  -0.393  0.00  0.00    +0.000 A 
ATOM      9  N   UNL     1       2.367  -0.579  -0.208  0.00  0.00    +0.000 NA
ATOM     10  C   UNL     1       1.204  -1.226   0.052  0.00  0.00    +0.000 A 
ENDROOT
BRANCH  10  11
ATOM     11  O   UNL     1       1.228  -2.612   0.214  0.00  0.00    +0.000 OA
BRANCH  11  12
ATOM     12  C   UNL     1       2.434  -3.185   0.536  0.00  0.00    +0.000 A 
ATOM     13  C   UNL     1       3.094  -2.882   1.731  0.00  0.00    +0.000 A 
ATOM     14  C   UNL     1       4.286  -3.536   2.045  0.00  0.00    +0.000 A 
ATOM     15  C   UNL     1       4.792  -4.495   1.173  0.00  0.00    +0.000 A 
ATOM     16  C   UNL     1       4.127  -4.818  -0.006  0.00  0.00    +0.000 A 
ATOM     17  C   UNL     1       2.936  -4.166  -0.323  0.00  0.00    +0.000 A 
ATOM     18  F   UNL     1       5.935  -5.124   1.478  0.00  0.00    +0.000 F 
ENDBRANCH  11  12
ENDBRANCH  10  11
TORSDOF 2
