REMARK  Name = *****
REMARK  5 active torsions:
REMARK  status: ('A' for Active; 'I' for Inactive)
REMARK    1  A    between atoms: C_4  and  C_7
REMARK    2  A    between atoms: C_7  and  O_9
REMARK    3  A    between atoms: O_9  and  C_10
REMARK    4  A    between atoms: C_10  and  C_11
REMARK    5  A    between atoms: C_11  and  C_12
REMARK                            x       y       z     vdW  Elec       q    Type
REMARK                         _______ _______ _______ _____ _____    ______ ____
ROOT
ATOM      1  O   UNL     1       3.207  -1.846   0.001  0.00  0.00    +0.000 OA
ENDROOT
BRANCH   1   2
ATOM      2  C   UNL     1       2.782  -0.640  -0.467  0.00  0.00    +0.000 C 
ATOM      3  O   UNL     1       3.400   0.062  -1.255  0.00  0.00    +0.000 OA
BRANCH   2   7
ATOM      4  C   UNL     1      -0.402   1.606   1.470  0.00  0.00    +0.000 C 
ATOM      5  C   UNL     1      -0.575   1.238  -0.001  0.00  0.00    +0.000 C 
ATOM      6  C   UNL     1       0.753   0.837  -0.637  0.00  0.00    +0.000 C 
ATOM      7  C   UNL     1       1.432  -0.299   0.140  0.00  0.00    +0.000 C 
ATOM      8  C   UNL     1       1.599   0.070   1.618  0.00  0.00    +0.000 C 
ATOM      9  C   UNL     1       0.274   0.484   2.252  0.00  0.00    +0.000 C 
ENDBRANCH   2   7
ENDBRANCH   1   2
BRANCH   1  10
ATOM     10  C   UNL     1       4.482  -2.298  -0.486  0.00  0.00    +0.000 C 
BRANCH  10  11
ATOM     11  C   UNL     1       5.646  -1.635   0.256  0.00  0.00    +0.000 C 
BRANCH  11  12
ATOM     12  C   UNL     1       5.713  -2.035   1.711  0.00  0.00    +0.000 A 
ATOM     13  C   UNL     1       6.234  -3.282   2.084  0.00  0.00    +0.000 A 
ATOM     14  C   UNL     1       6.282  -3.655   3.428  0.00  0.00    +0.000 A 
ATOM     15  C   UNL     1       5.810  -2.787   4.412  0.00  0.00    +0.000 A 
ATOM     16  C   UNL     1       5.291  -1.545   4.052  0.00  0.00    +0.000 A 
ATOM     17  C   UNL     1       5.242  -1.170   2.708  0.00  0.00    +0.000 A 
ENDBRANCH  11  12
ENDBRANCH  10  11
ENDBRANCH   1  10
TORSDOF 5
