REMARK  Name = *****
REMARK  5 active torsions:
REMARK  status: ('A' for Active; 'I' for Inactive)
REMARK    1  A    between atoms: C_1  and  C_2
REMARK    2  A    between atoms: C_5  and  S_8
REMARK    3  A    between atoms: S_8  and  S_9
REMARK    4  A    between atoms: S_9  and  C_10
REMARK    5  A    between atoms: C_10  and  C_11
REMARK                            x       y       z     vdW  Elec       q    Type
REMARK                         _______ _______ _______ _____ _____    ______ ____
ROOT
ATOM      1  S   UNL     1      -3.533   0.043  -0.253  0.00  0.00    +0.000 S 
ENDROOT
BRANCH   1   6
ATOM      2  C   UNL     1       2.554   0.076   0.094  0.00  0.00    +0.000 C 
ATOM      3  C   UNL     1       1.057   0.100   0.004  0.00  0.00    +0.000 A 
ATOM      4  C   UNL     1       0.287   0.499   1.102  0.00  0.00    +0.000 A 
ATOM      5  C   UNL     1      -1.109   0.488   1.030  0.00  0.00    +0.000 A 
ATOM      6  C   UNL     1      -1.753   0.074  -0.139  0.00  0.00    +0.000 A 
ATOM      7  C   UNL     1      -0.986  -0.349  -1.229  0.00  0.00    +0.000 A 
ATOM      8  C   UNL     1       0.410  -0.338  -1.157  0.00  0.00    +0.000 A 
ENDBRANCH   1   6
BRANCH   1   9
ATOM      9  S   UNL     1      -4.025   2.027  -0.016  0.00  0.00    +0.000 S 
BRANCH   9  10
ATOM     10  C   UNL     1      -3.760   2.680  -1.695  0.00  0.00    +0.000 C 
BRANCH  10  11
ATOM     11  C   UNL     1      -4.045   4.160  -1.762  0.00  0.00    +0.000 A 
ATOM     12  C   UNL     1      -3.034   5.093  -1.486  0.00  0.00    +0.000 A 
ATOM     13  C   UNL     1      -3.300   6.462  -1.539  0.00  0.00    +0.000 A 
ATOM     14  C   UNL     1      -4.579   6.912  -1.862  0.00  0.00    +0.000 A 
ATOM     15  C   UNL     1      -5.593   5.995  -2.130  0.00  0.00    +0.000 A 
ATOM     16  C   UNL     1      -5.330   4.625  -2.078  0.00  0.00    +0.000 A 
ENDBRANCH  10  11
ENDBRANCH   9  10
ENDBRANCH   1   9
TORSDOF 4
