REMARK  Name = *****
REMARK  4 active torsions:
REMARK  status: ('A' for Active; 'I' for Inactive)
REMARK    1  A    between atoms: C_1  and  C_2
REMARK    2  A    between atoms: C_4  and  C_8
REMARK    3  A    between atoms: C_8  and  C_10
REMARK    4  A    between atoms: C_10  and  C_11
REMARK                            x       y       z     vdW  Elec       q    Type
REMARK                         _______ _______ _______ _____ _____    ______ ____
ROOT
ATOM      1  C   UNL     1      -1.996   2.467  -0.166  0.00  0.00    +0.000 C 
ATOM      2  O   UNL     1      -3.193   2.513  -0.456  0.00  0.00    +0.000 OA
ENDROOT
BRANCH   1   6
ATOM      3  C   UNL     1       2.201  -0.359   0.076  0.00  0.00    +0.000 C 
ATOM      4  C   UNL     1       0.708  -0.238  -0.027  0.00  0.00    +0.000 A 
ATOM      5  C   UNL     1       0.097   1.026  -0.029  0.00  0.00    +0.000 A 
ATOM      6  C   UNL     1      -1.293   1.147  -0.163  0.00  0.00    +0.000 A 
ATOM      7  C   UNL     1      -2.068  -0.012  -0.311  0.00  0.00    +0.000 A 
ATOM      8  C   UNL     1      -1.465  -1.270  -0.323  0.00  0.00    +0.000 A 
ATOM      9  C   UNL     1      -0.083  -1.382  -0.186  0.00  0.00    +0.000 A 
ENDBRANCH   1   6
BRANCH   1  10
ATOM     10  C   UNL     1      -1.235   3.735   0.180  0.00  0.00    +0.000 C 
BRANCH  10  11
ATOM     11  C   UNL     1      -0.505   4.350  -0.992  0.00  0.00    +0.000 A 
ATOM     12  C   UNL     1       0.831   4.758  -0.857  0.00  0.00    +0.000 A 
ATOM     13  C   UNL     1       1.511   5.346  -1.931  0.00  0.00    +0.000 A 
ATOM     14  C   UNL     1       0.854   5.545  -3.149  0.00  0.00    +0.000 A 
ATOM     15  C   UNL     1      -0.481   5.159  -3.284  0.00  0.00    +0.000 A 
ATOM     16  C   UNL     1      -1.158   4.571  -2.212  0.00  0.00    +0.000 A 
ATOM     17 CL   UNL     1       1.629   6.262  -4.515  0.00  0.00    +0.000 Cl
ATOM     18 CL   UNL     1       3.159   5.803  -1.680  0.00  0.00    +0.000 Cl
ENDBRANCH  10  11
ENDBRANCH   1  10
TORSDOF 3
