REMARK  Name = *****
REMARK  5 active torsions:
REMARK  status: ('A' for Active; 'I' for Inactive)
REMARK    1  A    between atoms: C_1  and  C_2
REMARK    2  A    between atoms: C_2  and  C_4
REMARK    3  A    between atoms: C_5  and  C_11
REMARK    4  A    between atoms: C_11  and  C_12
REMARK    5  A    between atoms: C_12  and  C_13
REMARK                            x       y       z     vdW  Elec       q    Type
REMARK                         _______ _______ _______ _____ _____    ______ ____
ROOT
ATOM      1  C   UNL     1       3.393  -1.119   1.426  0.00  0.00    +0.000 A 
ATOM      2  C   UNL     1       2.504  -1.703   2.352  0.00  0.00    +0.000 A 
ATOM      3  C   UNL     1       2.821  -1.621   3.722  0.00  0.00    +0.000 A 
ATOM      4  C   UNL     1       3.983  -0.982   4.143  0.00  0.00    +0.000 A 
ATOM      5  C   UNL     1       4.856  -0.409   3.230  0.00  0.00    +0.000 A 
ATOM      6  C   UNL     1       4.562  -0.474   1.869  0.00  0.00    +0.000 A 
ATOM      7  F   UNL     1       4.265  -0.924   5.451  0.00  0.00    +0.000 F 
ENDROOT
BRANCH   1   9
ATOM      8  C   UNL     1       4.238  -1.586  -0.947  0.00  0.00    +0.000 C 
ATOM      9  C   UNL     1       3.130  -1.126  -0.037  0.00  0.00    +0.000 C 
ATOM     10  O   UNL     1       2.062  -0.706  -0.472  0.00  0.00    +0.000 OA
ENDBRANCH   1   9
BRANCH   2  11
ATOM     11  C   UNL     1       1.259  -2.468   1.952  0.00  0.00    +0.000 C 
BRANCH  11  12
ATOM     12  C   UNL     1       1.421  -3.992   2.055  0.00  0.00    +0.000 C 
BRANCH  12  13
ATOM     13  C   UNL     1       2.435  -4.563   1.092  0.00  0.00    +0.000 A 
ATOM     14  C   UNL     1       3.699  -4.964   1.546  0.00  0.00    +0.000 A 
ATOM     15  C   UNL     1       4.639  -5.484   0.654  0.00  0.00    +0.000 A 
ATOM     16  C   UNL     1       4.324  -5.608  -0.698  0.00  0.00    +0.000 A 
ATOM     17  C   UNL     1       3.071  -5.210  -1.160  0.00  0.00    +0.000 A 
ATOM     18  C   UNL     1       2.131  -4.687  -0.270  0.00  0.00    +0.000 A 
ENDBRANCH  12  13
ENDBRANCH  11  12
ENDBRANCH   2  11
TORSDOF 4
