REMARK  Name = *****
REMARK  3 active torsions:
REMARK  status: ('A' for Active; 'I' for Inactive)
REMARK    1  A    between atoms: C_3  and  C_6
REMARK    2  A    between atoms: C_6  and  C_7
REMARK    3  A    between atoms: C_7  and  C_8
REMARK                            x       y       z     vdW  Elec       q    Type
REMARK                         _______ _______ _______ _____ _____    ______ ____
ROOT
ATOM      1  C   UNL     1      -0.310   2.543  -0.247  0.00  0.00    +0.000 C 
ENDROOT
BRANCH   1   4
ATOM      2  C   UNL     1      -0.371  -0.969   1.230  0.00  0.00    +0.000 C 
ATOM      3  C   UNL     1      -0.722   0.074   0.180  0.00  0.00    +0.000 C 
ATOM      4  C   UNL     1       0.208   1.263   0.421  0.00  0.00    +0.000 C 
ATOM      5  S   UNL     1       0.306   1.385   2.243  0.00  0.00    +0.000 S 
ATOM      6  C   UNL     1      -0.399  -0.254   2.570  0.00  0.00    +0.000 C 
ENDBRANCH   1   4
BRANCH   1   7
ATOM      7  C   UNL     1       0.676   3.717  -0.136  0.00  0.00    +0.000 C 
BRANCH   7   8
ATOM      8  C   UNL     1       0.286   5.003  -0.874  0.00  0.00    +0.000 C 
ATOM      9  C   UNL     1      -1.029   5.634  -0.420  0.00  0.00    +0.000 C 
ATOM     10  C   UNL     1      -1.408   6.643  -1.495  0.00  0.00    +0.000 C 
ATOM     11  C   UNL     1      -1.343   5.903  -2.821  0.00  0.00    +0.000 C 
ATOM     12  S   UNL     1       0.091   4.801  -2.678  0.00  0.00    +0.000 S 
ENDBRANCH   7   8
ENDBRANCH   1   7
TORSDOF 3
