REMARK  Name = *****
REMARK  3 active torsions:
REMARK  status: ('A' for Active; 'I' for Inactive)
REMARK    1  A    between atoms: C_1  and  C_2
REMARK    2  A    between atoms: C_5  and  N_8
REMARK    3  A    between atoms: N_8  and  P_9
REMARK                            x       y       z     vdW  Elec       q    Type
REMARK                         _______ _______ _______ _____ _____    ______ ____
ROOT
ATOM      1  N   UNL     1      -3.447   0.572   0.784  0.00  0.00    +0.000 N 
ATOM      2  H   UNL     1      -3.922  -0.276   0.940  0.00  0.00    +0.000 HD
ENDROOT
BRANCH   1   3
ATOM      3  P   UNL     1      -4.361   1.922   1.004  0.00  0.00    +0.000 P 
ATOM      4  O   UNL     1      -5.001   2.015  -0.505  0.00  0.00    +0.000 OA
ATOM      5  C   UNL     1      -6.283   1.537  -0.500  0.00  0.00    +0.000 A 
ATOM      6  C   UNL     1      -7.134   1.492  -1.584  0.00  0.00    +0.000 A 
ATOM      7  C   UNL     1      -8.410   0.957  -1.381  0.00  0.00    +0.000 A 
ATOM      8  C   UNL     1      -8.799   0.483  -0.113  0.00  0.00    +0.000 A 
ATOM      9  C   UNL     1      -7.918   0.537   0.972  0.00  0.00    +0.000 A 
ATOM     10  C   UNL     1      -6.666   1.070   0.749  0.00  0.00    +0.000 A 
ATOM     11  O   UNL     1      -5.670   1.196   1.678  0.00  0.00    +0.000 OA
ENDBRANCH   1   3
BRANCH   1  16
ATOM     12  C   UNL     1       2.087  -0.202  -0.551  0.00  0.00    +0.000 C 
ATOM     13  C   UNL     1       0.636   0.017  -0.241  0.00  0.00    +0.000 A 
ATOM     14  C   UNL     1       0.148   1.302   0.009  0.00  0.00    +0.000 A 
ATOM     15  C   UNL     1      -1.199   1.503   0.334  0.00  0.00    +0.000 A 
ATOM     16  C   UNL     1      -2.093   0.428   0.407  0.00  0.00    +0.000 A 
ATOM     17  C   UNL     1      -1.584  -0.862   0.194  0.00  0.00    +0.000 A 
ATOM     18  C   UNL     1      -0.238  -1.067  -0.129  0.00  0.00    +0.000 A 
ENDBRANCH   1  16
TORSDOF 2
