REMARK  Name = *****
REMARK  1 active torsions:
REMARK  status: ('A' for Active; 'I' for Inactive)
REMARK    1  A    between atoms: N_8  and  C_11
REMARK                            x       y       z     vdW  Elec       q    Type
REMARK                         _______ _______ _______ _____ _____    ______ ____
ROOT
ATOM      1  C   UNL     1       1.998   1.111  -0.030  0.00  0.00    +0.000 A 
ATOM      2  C   UNL     1       2.315  -0.234   0.192  0.00  0.00    +0.000 A 
ATOM      3  C   UNL     1       1.309  -1.202   0.198  0.00  0.00    +0.000 A 
ATOM      4  C   UNL     1      -0.011  -0.811  -0.021  0.00  0.00    +0.000 A 
ATOM      5  C   UNL     1      -0.325   0.528  -0.233  0.00  0.00    +0.000 A 
ATOM      6  C   UNL     1       0.672   1.497  -0.241  0.00  0.00    +0.000 A 
ATOM      7  S   UNL     1      -2.051   0.849  -0.452  0.00  0.00    +0.000 S 
ATOM      8  N   UNL     1      -2.541  -0.713  -0.024  0.00  0.00    +0.000 N 
ATOM      9  S   UNL     1      -1.381  -1.964  -0.069  0.00  0.00    +0.000 S 
ATOM     10  O   UNL     1      -1.314  -2.735   1.216  0.00  0.00    +0.000 OA
ENDROOT
BRANCH   8  11
ATOM     11  C   UNL     1      -3.932  -1.029   0.090  0.00  0.00    +0.000 A 
ATOM     12  C   UNL     1      -4.924  -0.287  -0.584  0.00  0.00    +0.000 A 
ATOM     13  C   UNL     1      -6.277  -0.609  -0.465  0.00  0.00    +0.000 A 
ATOM     14  C   UNL     1      -6.683  -1.669   0.330  0.00  0.00    +0.000 A 
ATOM     15  C   UNL     1      -5.741  -2.417   1.017  0.00  0.00    +0.000 A 
ATOM     16  C   UNL     1      -4.382  -2.098   0.896  0.00  0.00    +0.000 A 
ATOM     17  F   UNL     1      -7.982  -1.975   0.442  0.00  0.00    +0.000 F 
ATOM     18  F   UNL     1      -7.183   0.115  -1.136  0.00  0.00    +0.000 F 
ENDBRANCH   8  11
TORSDOF 1
