REMARK  Name = *****
REMARK  3 active torsions:
REMARK  status: ('A' for Active; 'I' for Inactive)
REMARK    1  A    between atoms: C_6  and  O_7
REMARK    2  A    between atoms: O_7  and  C_8
REMARK    3  A    between atoms: C_8  and  C_10
REMARK                            x       y       z     vdW  Elec       q    Type
REMARK                         _______ _______ _______ _____ _____    ______ ____
ROOT
ATOM      1  O   UNL     1      -3.364   0.259   0.175  0.00  0.00    +0.000 OA
ENDROOT
BRANCH   1   7
ATOM      2  C   UNL     1      -1.132   1.313   0.140  0.00  0.00    +0.000 A 
ATOM      3  C   UNL     1       0.253   1.147   0.081  0.00  0.00    +0.000 A 
ATOM      4  C   UNL     1       0.791  -0.134   0.006  0.00  0.00    +0.000 A 
ATOM      5  C   UNL     1      -0.029  -1.258  -0.005  0.00  0.00    +0.000 A 
ATOM      6  C   UNL     1      -1.414  -1.098   0.046  0.00  0.00    +0.000 A 
ATOM      7  C   UNL     1      -1.958   0.189   0.098  0.00  0.00    +0.000 A 
ATOM      8  F   UNL     1       2.121  -0.288  -0.048  0.00  0.00    +0.000 F 
ENDBRANCH   1   7
BRANCH   1   9
ATOM      9  C   UNL     1      -4.075   1.285  -0.455  0.00  0.00    +0.000 C 
ATOM     10  O   UNL     1      -3.578   2.190  -1.116  0.00  0.00    +0.000 OA
BRANCH   9  11
ATOM     11  C   UNL     1      -5.520   1.169  -0.256  0.00  0.00    +0.000 A 
ATOM     12  C   UNL     1      -6.154   0.122   0.391  0.00  0.00    +0.000 A 
ATOM     13  S   UNL     1      -7.857   0.296   0.432  0.00  0.00    +0.000 S 
ATOM     14  C   UNL     1      -7.782   1.779  -0.411  0.00  0.00    +0.000 A 
ATOM     15  C   UNL     1      -6.486   2.130  -0.717  0.00  0.00    +0.000 A 
ENDBRANCH   9  11
ENDBRANCH   1   9
TORSDOF 3
