REMARK  Name = *****
REMARK  6 active torsions:
REMARK  status: ('A' for Active; 'I' for Inactive)
REMARK    1  A    between atoms: C_1  and  C_2
REMARK    2  A    between atoms: C_2  and  C_3
REMARK    3  A    between atoms: C_2  and  O_9
REMARK    4  A    between atoms: O_9  and  C_10
REMARK    5  A    between atoms: C_10  and  C_11
REMARK    6  A    between atoms: C_10  and  C_12
REMARK                            x       y       z     vdW  Elec       q    Type
REMARK                         _______ _______ _______ _____ _____    ______ ____
ROOT
ATOM      1  O   UNL     1       4.559   0.795   0.549  0.00  0.00    +0.000 OA
ENDROOT
BRANCH   1   3
ATOM      2  C   UNL     1       5.040   2.253  -1.277  0.00  0.00    +0.000 C 
ATOM      3  C   UNL     1       4.177   1.085  -0.803  0.00  0.00    +0.000 C 
BRANCH   3   4
ATOM      4  C   UNL     1       2.705   1.446  -0.890  0.00  0.00    +0.000 A 
ATOM      5  C   UNL     1       2.104   2.283   0.063  0.00  0.00    +0.000 A 
ATOM      6  C   UNL     1       0.751   2.610  -0.032  0.00  0.00    +0.000 A 
ATOM      7  C   UNL     1      -0.016   2.109  -1.082  0.00  0.00    +0.000 A 
ATOM      8  C   UNL     1       0.569   1.281  -2.038  0.00  0.00    +0.000 A 
ATOM      9  C   UNL     1       1.923   0.951  -1.944  0.00  0.00    +0.000 A 
ENDBRANCH   3   4
ENDBRANCH   1   3
BRANCH   1  10
ATOM     10  C   UNL     1       4.182  -0.520   0.983  0.00  0.00    +0.000 C 
ATOM     11  C   UNL     1       4.190  -0.513   2.510  0.00  0.00    +0.000 C 
BRANCH  10  12
ATOM     12  C   UNL     1       5.143  -1.568   0.453  0.00  0.00    +0.000 A 
ATOM     13  C   UNL     1       4.654  -2.789  -0.032  0.00  0.00    +0.000 A 
ATOM     14  C   UNL     1       5.529  -3.763  -0.517  0.00  0.00    +0.000 A 
ATOM     15  C   UNL     1       6.903  -3.528  -0.519  0.00  0.00    +0.000 A 
ATOM     16  C   UNL     1       7.403  -2.321  -0.035  0.00  0.00    +0.000 A 
ATOM     17  C   UNL     1       6.530  -1.347   0.449  0.00  0.00    +0.000 A 
ENDBRANCH  10  12
ENDBRANCH   1  10
TORSDOF 4
