REMARK  Name = *****
REMARK  4 active torsions:
REMARK  status: ('A' for Active; 'I' for Inactive)
REMARK    1  A    between atoms: C_1  and  C_2
REMARK    2  A    between atoms: C_4  and  O_8
REMARK    3  A    between atoms: O_8  and  C_9
REMARK    4  A    between atoms: C_9  and  C_10
REMARK                            x       y       z     vdW  Elec       q    Type
REMARK                         _______ _______ _______ _____ _____    ______ ____
ROOT
ATOM      1  O   UNL     1      -1.627   2.486  -0.167  0.00  0.00    +0.000 OA
ENDROOT
BRANCH   1   5
ATOM      2  C   UNL     1       2.069  -0.819   0.353  0.00  0.00    +0.000 C 
ATOM      3  C   UNL     1       0.654  -0.452   0.013  0.00  0.00    +0.000 A 
ATOM      4  C   UNL     1       0.230   0.885   0.087  0.00  0.00    +0.000 A 
ATOM      5  C   UNL     1      -1.094   1.227  -0.196  0.00  0.00    +0.000 A 
ATOM      6  C   UNL     1      -2.001   0.222  -0.540  0.00  0.00    +0.000 A 
ATOM      7  C   UNL     1      -1.594  -1.111  -0.602  0.00  0.00    +0.000 A 
ATOM      8  C   UNL     1      -0.271  -1.447  -0.321  0.00  0.00    +0.000 A 
ENDBRANCH   1   5
BRANCH   1   9
ATOM      9  C   UNL     1      -0.736   3.564   0.120  0.00  0.00    +0.000 C 
BRANCH   9  10
ATOM     10  C   UNL     1      -1.482   4.877   0.034  0.00  0.00    +0.000 A 
ATOM     11  C   UNL     1      -1.258   5.883   0.985  0.00  0.00    +0.000 A 
ATOM     12  C   UNL     1      -1.915   7.111   0.887  0.00  0.00    +0.000 A 
ATOM     13  C   UNL     1      -2.796   7.351  -0.166  0.00  0.00    +0.000 A 
ATOM     14  C   UNL     1      -3.018   6.364  -1.124  0.00  0.00    +0.000 A 
ATOM     15  C   UNL     1      -2.361   5.136  -1.028  0.00  0.00    +0.000 A 
ENDBRANCH   9  10
ENDBRANCH   1   9
TORSDOF 3
