REMARK  Name = *****
REMARK  2 active torsions:
REMARK  status: ('A' for Active; 'I' for Inactive)
REMARK    1  A    between atoms: C_1  and  C_2
REMARK    2  A    between atoms: C_7  and  C_8
REMARK                            x       y       z     vdW  Elec       q    Type
REMARK                         _______ _______ _______ _____ _____    ______ ____
ROOT
ATOM      1  C   UNL     1       1.090  -2.524   0.084  0.00  0.00    +0.000 A 
ATOM      2  N   UNL     1       2.391  -2.752   0.144  0.00  0.00    +0.000 NA
ATOM      3  C   UNL     1       2.496  -4.117   0.176  0.00  0.00    +0.000 A 
ATOM      4  C   UNL     1       1.234  -4.684   0.133  0.00  0.00    +0.000 A 
ATOM      5  O   UNL     1       0.325  -3.671   0.074  0.00  0.00    +0.000 OA
ATOM      6  C   UNL     1       0.973  -6.048   0.150  0.00  0.00    +0.000 A 
ATOM      7  C   UNL     1       2.104  -6.869   0.215  0.00  0.00    +0.000 A 
ATOM      8  C   UNL     1       3.401  -6.342   0.260  0.00  0.00    +0.000 A 
ATOM      9  C   UNL     1       3.616  -4.955   0.241  0.00  0.00    +0.000 A 
ATOM     10 CL   UNL     1       1.892  -8.579   0.242  0.00  0.00    +0.000 Cl
ENDROOT
BRANCH   1  17
ATOM     11  C   UNL     1       2.510   0.132   0.020  0.00  0.00    +0.000 C 
ATOM     12  C   UNL     1       1.009   0.002   0.000  0.00  0.00    +0.000 A 
ATOM     13  C   UNL     1       0.245   1.185  -0.048  0.00  0.00    +0.000 A 
ATOM     14  C   UNL     1      -1.147   1.142  -0.069  0.00  0.00    +0.000 A 
ATOM     15  C   UNL     1      -1.799  -0.083  -0.042  0.00  0.00    +0.000 A 
ATOM     16  C   UNL     1      -1.057  -1.265   0.007  0.00  0.00    +0.000 A 
ATOM     17  C   UNL     1       0.353  -1.252   0.029  0.00  0.00    +0.000 A 
ENDBRANCH   1  17
TORSDOF 1
