REMARK  Name = *****
REMARK  3 active torsions:
REMARK  status: ('A' for Active; 'I' for Inactive)
REMARK    1  A    between atoms: C_3  and  C_5
REMARK    2  A    between atoms: C_5  and  O_7
REMARK    3  A    between atoms: O_7  and  C_8
REMARK                            x       y       z     vdW  Elec       q    Type
REMARK                         _______ _______ _______ _____ _____    ______ ____
ROOT
ATOM      1  C   UNL     1      -2.878  -0.919  -2.727  0.00  0.00    +0.000 A 
ATOM      2  C   UNL     1      -3.020  -2.099  -3.470  0.00  0.00    +0.000 A 
ATOM      3  C   UNL     1      -3.629  -2.028  -4.728  0.00  0.00    +0.000 A 
ATOM      4  C   UNL     1      -4.095  -0.800  -5.216  0.00  0.00    +0.000 A 
ATOM      5  C   UNL     1      -3.963   0.363  -4.453  0.00  0.00    +0.000 A 
ATOM      6  C   UNL     1      -3.359   0.305  -3.199  0.00  0.00    +0.000 A 
ATOM      7 CL   UNL     1      -3.850  -3.419  -5.731  0.00  0.00    +0.000 Cl
ATOM      8 CL   UNL     1      -2.459  -3.599  -2.810  0.00  0.00    +0.000 Cl
ENDROOT
BRANCH   1   9
ATOM      9  O   UNL     1      -2.303  -0.943  -1.450  0.00  0.00    +0.000 OA
BRANCH   9  10
ATOM     10  C   UNL     1      -0.915  -0.789  -1.473  0.00  0.00    +0.000 C 
ATOM     11  O   UNL     1      -0.268  -0.555  -2.493  0.00  0.00    +0.000 OA
BRANCH  10  14
ATOM     12  C   UNL     1       1.818  -0.751   0.042  0.00  0.00    +0.000 C 
ATOM     13  C   UNL     1       0.647   0.161   0.451  0.00  0.00    +0.000 C 
ATOM     14  C   UNL     1      -0.322  -0.944  -0.042  0.00  0.00    +0.000 C 
ATOM     15  C   UNL     1       0.850  -1.943   0.135  0.00  0.00    +0.000 C 
ENDBRANCH  10  14
ENDBRANCH   9  10
ENDBRANCH   1   9
TORSDOF 3
