REMARK  Name = *****
REMARK  2 active torsions:
REMARK  status: ('A' for Active; 'I' for Inactive)
REMARK    1  A    between atoms: C_3  and  C_6
REMARK    2  A    between atoms: C_7  and  C_8
REMARK                            x       y       z     vdW  Elec       q    Type
REMARK                         _______ _______ _______ _____ _____    ______ ____
ROOT
ATOM      1  C   UNL     1       0.011   2.035  -1.246  0.00  0.00    +0.000 C 
ATOM      2  C   UNL     1       0.021   2.750  -2.212  0.00  0.00    +0.000 C 
ENDROOT
BRANCH   2   3
ATOM      3  C   UNL     1       0.033   3.602  -3.360  0.00  0.00    +0.000 A 
ATOM      4  C   UNL     1       1.250   4.007  -3.917  0.00  0.00    +0.000 A 
ATOM      5  C   UNL     1       1.263   4.842  -5.037  0.00  0.00    +0.000 A 
ATOM      6  C   UNL     1       0.059   5.268  -5.595  0.00  0.00    +0.000 A 
ATOM      7  C   UNL     1      -1.158   4.867  -5.046  0.00  0.00    +0.000 A 
ATOM      8  C   UNL     1      -1.170   4.032  -3.926  0.00  0.00    +0.000 A 
ATOM      9 BR   UNL     1       0.076   6.399  -7.110  0.00  0.00    +0.000 Br
ENDBRANCH   2   3
BRANCH   1  12
ATOM     10  C   UNL     1       0.717  -1.049  -0.093  0.00  0.00    +0.000 C 
ATOM     11  C   UNL     1       1.163   0.218  -0.075  0.00  0.00    +0.000 C 
ATOM     12  C   UNL     1      -0.001   1.172  -0.061  0.00  0.00    +0.000 C 
ATOM     13  C   UNL     1      -1.166   0.221  -0.096  0.00  0.00    +0.000 C 
ATOM     14  C   UNL     1      -0.725  -1.046  -0.106  0.00  0.00    +0.000 C 
ENDBRANCH   1  12
TORSDOF 2
