REMARK  Name = *****
REMARK  5 active torsions:
REMARK  status: ('A' for Active; 'I' for Inactive)
REMARK    1  A    between atoms: C_1  and  C_2
REMARK    2  A    between atoms: C_4  and  C_8
REMARK    3  A    between atoms: C_8  and  O_9
REMARK    4  A    between atoms: O_9  and  C_10
REMARK    5  A    between atoms: C_10  and  C_12
REMARK                            x       y       z     vdW  Elec       q    Type
REMARK                         _______ _______ _______ _____ _____    ______ ____
ROOT
ATOM      1  O   UNL     1      -1.203   3.682   0.456  0.00  0.00    +0.000 OA
ENDROOT
BRANCH   1   2
ATOM      2  C   UNL     1      -0.658   4.455  -0.513  0.00  0.00    +0.000 C 
ATOM      3  O   UNL     1      -0.793   4.340  -1.718  0.00  0.00    +0.000 OA
BRANCH   2   4
ATOM      4  C   UNL     1       0.174   5.481   0.140  0.00  0.00    +0.000 A 
ATOM      5  C   UNL     1       1.180   5.062   1.026  0.00  0.00    +0.000 A 
ATOM      6  C   UNL     1       2.007   6.003   1.641  0.00  0.00    +0.000 A 
ATOM      7  C   UNL     1       1.835   7.360   1.371  0.00  0.00    +0.000 A 
ATOM      8  C   UNL     1       0.835   7.778   0.490  0.00  0.00    +0.000 A 
ATOM      9  C   UNL     1       0.002   6.841  -0.130  0.00  0.00    +0.000 A 
ATOM     10 CL   UNL     1      -1.240   7.439  -1.170  0.00  0.00    +0.000 Cl
ENDBRANCH   2   4
ENDBRANCH   1   2
BRANCH   1  11
ATOM     11  C   UNL     1      -1.969   2.565  -0.009  0.00  0.00    +0.000 C 
BRANCH  11  15
ATOM     12  C   UNL     1       0.210  -1.237   2.488  0.00  0.00    +0.000 C 
ATOM     13  C   UNL     1      -0.012  -0.478   1.213  0.00  0.00    +0.000 A 
ATOM     14  C   UNL     1      -0.853   0.643   1.192  0.00  0.00    +0.000 A 
ATOM     15  C   UNL     1      -1.096   1.337  -0.003  0.00  0.00    +0.000 A 
ATOM     16  C   UNL     1      -0.478   0.902  -1.181  0.00  0.00    +0.000 A 
ATOM     17  C   UNL     1       0.347  -0.222  -1.171  0.00  0.00    +0.000 A 
ATOM     18  C   UNL     1       0.572  -0.914   0.019  0.00  0.00    +0.000 A 
ENDBRANCH  11  15
ENDBRANCH   1  11
TORSDOF 4
