REMARK  Name = *****
REMARK  4 active torsions:
REMARK  status: ('A' for Active; 'I' for Inactive)
REMARK    1  A    between atoms: C_3  and  C_8
REMARK    2  A    between atoms: C_8  and  O_9
REMARK    3  A    between atoms: O_9  and  C_10
REMARK    4  A    between atoms: C_14  and  C_16
REMARK                            x       y       z     vdW  Elec       q    Type
REMARK                         _______ _______ _______ _____ _____    ______ ____
ROOT
ATOM      1  O   UNL     1      -1.091   3.635  -0.076  0.00  0.00    +0.000 OA
ENDROOT
BRANCH   1   2
ATOM      2  C   UNL     1      -1.632   4.889  -0.034  0.00  0.00    +0.000 A 
ATOM      3  C   UNL     1      -2.991   5.197  -0.004  0.00  0.00    +0.000 A 
ATOM      4  C   UNL     1      -3.406   6.530   0.039  0.00  0.00    +0.000 A 
ATOM      5  C   UNL     1      -2.467   7.564   0.052  0.00  0.00    +0.000 A 
ATOM      6  C   UNL     1      -1.099   7.269   0.022  0.00  0.00    +0.000 A 
ATOM      7  C   UNL     1      -0.694   5.926  -0.021  0.00  0.00    +0.000 A 
BRANCH   6   8
ATOM      8  C   UNL     1      -0.051   8.342   0.036  0.00  0.00    +0.000 C 
ATOM      9  O   UNL     1       1.126   7.985   0.023  0.00  0.00    +0.000 OA
ATOM     10 CL   UNL     1      -0.530  10.027   0.071  0.00  0.00    +0.000 Cl
ENDBRANCH   6   8
ENDBRANCH   1   2
BRANCH   1  11
ATOM     11  C   UNL     1      -1.995   2.530  -0.069  0.00  0.00    +0.000 C 
BRANCH  11  14
ATOM     12  C   UNL     1       0.506  -0.176   0.941  0.00  0.00    +0.000 A 
ATOM     13  C   UNL     1      -0.222   1.017   0.920  0.00  0.00    +0.000 A 
ATOM     14  C   UNL     1      -1.196   1.249  -0.066  0.00  0.00    +0.000 A 
ATOM     15  C   UNL     1      -1.433   0.255  -1.026  0.00  0.00    +0.000 A 
ATOM     16  C   UNL     1      -0.702  -0.929  -0.995  0.00  0.00    +0.000 A 
ATOM     17  C   UNL     1       0.264  -1.153  -0.021  0.00  0.00    +0.000 A 
ATOM     18  F   UNL     1      -0.937  -1.870  -1.919  0.00  0.00    +0.000 F 
ENDBRANCH  11  14
ENDBRANCH   1  11
TORSDOF 4
