REMARK  Name = *****
REMARK  5 active torsions:
REMARK  status: ('A' for Active; 'I' for Inactive)
REMARK    1  A    between atoms: C_1  and  C_2
REMARK    2  A    between atoms: C_4  and  C_8
REMARK    3  A    between atoms: C_8  and  O_9
REMARK    4  A    between atoms: O_9  and  C_10
REMARK    5  A    between atoms: C_10  and  C_12
REMARK                            x       y       z     vdW  Elec       q    Type
REMARK                         _______ _______ _______ _____ _____    ______ ____
ROOT
ATOM      1  O   UNL     1      -1.056   3.625   0.347  0.00  0.00    +0.000 OA
ENDROOT
BRANCH   1   2
ATOM      2  C   UNL     1      -0.539   4.454  -0.590  0.00  0.00    +0.000 C 
ATOM      3  O   UNL     1      -0.761   4.418  -1.790  0.00  0.00    +0.000 OA
BRANCH   2   4
ATOM      4  C   UNL     1       0.352   5.462   0.046  0.00  0.00    +0.000 A 
ATOM      5  C   UNL     1       0.823   6.521  -0.743  0.00  0.00    +0.000 A 
ATOM      6  C   UNL     1       1.665   7.489  -0.192  0.00  0.00    +0.000 A 
ATOM      7  C   UNL     1       2.043   7.403   1.147  0.00  0.00    +0.000 A 
ATOM      8  C   UNL     1       1.583   6.351   1.938  0.00  0.00    +0.000 A 
ATOM      9  C   UNL     1       0.739   5.381   1.391  0.00  0.00    +0.000 A 
ENDBRANCH   2   4
ENDBRANCH   1   2
BRANCH   1  10
ATOM     10  C   UNL     1      -1.900   2.576  -0.141  0.00  0.00    +0.000 C 
BRANCH  10  14
ATOM     11  C   UNL     1      -0.487  -1.617   2.297  0.00  0.00    +0.000 C 
ATOM     12  C   UNL     1      -0.455  -0.744   1.077  0.00  0.00    +0.000 A 
ATOM     13  C   UNL     1      -1.175   0.458   1.034  0.00  0.00    +0.000 A 
ATOM     14  C   UNL     1      -1.138   1.277  -0.104  0.00  0.00    +0.000 A 
ATOM     15  C   UNL     1      -0.345   0.894  -1.194  0.00  0.00    +0.000 A 
ATOM     16  C   UNL     1       0.382  -0.295  -1.154  0.00  0.00    +0.000 A 
ATOM     17  C   UNL     1       0.327  -1.110  -0.024  0.00  0.00    +0.000 A 
ENDBRANCH  10  14
ENDBRANCH   1  10
TORSDOF 4
