REMARK  Name = *****
REMARK  3 active torsions:
REMARK  status: ('A' for Active; 'I' for Inactive)
REMARK    1  A    between atoms: C_4  and  S_7
REMARK    2  A    between atoms: S_7  and  S_9
REMARK    3  A    between atoms: S_9  and  C_11
REMARK                            x       y       z     vdW  Elec       q    Type
REMARK                         _______ _______ _______ _____ _____    ______ ____
ROOT
ATOM      1  S   UNL     1      -3.213   0.318   0.428  0.00  0.00    +0.000 S 
ATOM      2  O   UNL     1      -3.625   1.300  -0.635  0.00  0.00    +0.000 OA
ENDROOT
BRANCH   1   6
ATOM      3  C   UNL     1       1.284  -0.476  -0.207  0.00  0.00    +0.000 A 
ATOM      4  C   UNL     1       0.612   0.406  -1.051  0.00  0.00    +0.000 A 
ATOM      5  C   UNL     1      -0.751   0.647  -0.868  0.00  0.00    +0.000 A 
ATOM      6  C   UNL     1      -1.451   0.002   0.159  0.00  0.00    +0.000 A 
ATOM      7  C   UNL     1      -0.766  -0.876   1.008  0.00  0.00    +0.000 A 
ATOM      8  C   UNL     1       0.597  -1.116   0.823  0.00  0.00    +0.000 A 
ENDBRANCH   1   6
BRANCH   1   9
ATOM      9  S   UNL     1      -4.012  -1.374  -0.298  0.00  0.00    +0.000 S 
ATOM     10  O   UNL     1      -3.699  -2.325   0.824  0.00  0.00    +0.000 OA
BRANCH   9  11
ATOM     11  C   UNL     1      -5.784  -1.024  -0.181  0.00  0.00    +0.000 A 
ATOM     12  C   UNL     1      -6.390  -0.141  -1.083  0.00  0.00    +0.000 A 
ATOM     13  C   UNL     1      -7.761   0.115  -1.009  0.00  0.00    +0.000 A 
ATOM     14  C   UNL     1      -8.537  -0.519  -0.041  0.00  0.00    +0.000 A 
ATOM     15  C   UNL     1      -7.946  -1.411   0.853  0.00  0.00    +0.000 A 
ATOM     16  C   UNL     1      -6.575  -1.665   0.781  0.00  0.00    +0.000 A 
ENDBRANCH   9  11
ENDBRANCH   1   9
TORSDOF 3
