REMARK  Name = *****
REMARK  4 active torsions:
REMARK  status: ('A' for Active; 'I' for Inactive)
REMARK    1  A    between atoms: C_1  and  O_2
REMARK    2  A    between atoms: O_2  and  C_3
REMARK    3  A    between atoms: C_6  and  C_9
REMARK    4  A    between atoms: C_10  and  C_11
REMARK                            x       y       z     vdW  Elec       q    Type
REMARK                         _______ _______ _______ _____ _____    ______ ____
ROOT
ATOM      1  C   UNL     1       5.276  -1.695   4.564  0.00  0.00    +0.000 C 
ATOM      2  C   UNL     1       6.606  -1.527   4.668  0.00  0.00    +0.000 C 
ATOM      3 CL   UNL     1       4.314  -2.439   5.797  0.00  0.00    +0.000 Cl
ENDROOT
BRANCH   1   7
ATOM      4  C   UNL     1       3.179  -0.469   1.024  0.00  0.00    +0.000 A 
ATOM      5  C   UNL     1       3.160  -1.804   1.425  0.00  0.00    +0.000 A 
ATOM      6  C   UNL     1       3.845  -2.202   2.580  0.00  0.00    +0.000 A 
ATOM      7  C   UNL     1       4.558  -1.273   3.349  0.00  0.00    +0.000 A 
ATOM      8  C   UNL     1       4.573   0.066   2.939  0.00  0.00    +0.000 A 
ATOM      9  C   UNL     1       3.890   0.461   1.785  0.00  0.00    +0.000 A 
BRANCH   4  11
ATOM     10  C   UNL     1       1.776  -0.846  -0.857  0.00  0.00    +0.000 C 
ATOM     11  O   UNL     1       2.556   0.051  -0.077  0.00  0.00    +0.000 OA
ENDBRANCH   4  11
ENDBRANCH   1   7
BRANCH   2  12
ATOM     12  C   UNL     1       7.441  -1.901   5.814  0.00  0.00    +0.000 A 
ATOM     13  C   UNL     1       8.449  -2.858   5.646  0.00  0.00    +0.000 A 
ATOM     14  C   UNL     1       9.272  -3.211   6.717  0.00  0.00    +0.000 A 
ATOM     15  C   UNL     1       9.098  -2.605   7.960  0.00  0.00    +0.000 A 
ATOM     16  C   UNL     1       8.104  -1.644   8.133  0.00  0.00    +0.000 A 
ATOM     17  C   UNL     1       7.280  -1.289   7.063  0.00  0.00    +0.000 A 
ENDBRANCH   2  12
TORSDOF 3
