REMARK  Name = *****
REMARK  5 active torsions:
REMARK  status: ('A' for Active; 'I' for Inactive)
REMARK    1  A    between atoms: C_4  and  C_7
REMARK    2  A    between atoms: C_7  and  C_8
REMARK    3  A    between atoms: C_8  and  C_9
REMARK    4  A    between atoms: C_9  and  C_10
REMARK    5  A    between atoms: C_10  and  C_11
REMARK                            x       y       z     vdW  Elec       q    Type
REMARK                         _______ _______ _______ _____ _____    ______ ____
ROOT
ATOM      1  C   UNL     1      -3.513  -0.621  -0.433  0.00  0.00    +0.000 C 
ENDROOT
BRANCH   1   2
ATOM      2  C   UNL     1      -2.639   0.616  -0.207  0.00  0.00    +0.000 C 
BRANCH   2   6
ATOM      3  C   UNL     1       1.448  -0.498   0.598  0.00  0.00    +0.000 A 
ATOM      4  C   UNL     1       1.025  -0.300  -0.715  0.00  0.00    +0.000 A 
ATOM      5  C   UNL     1      -0.297   0.065  -0.976  0.00  0.00    +0.000 A 
ATOM      6  C   UNL     1      -1.206   0.239   0.076  0.00  0.00    +0.000 A 
ATOM      7  C   UNL     1      -0.772   0.031   1.392  0.00  0.00    +0.000 A 
ATOM      8  C   UNL     1       0.550  -0.334   1.651  0.00  0.00    +0.000 A 
ENDBRANCH   2   6
ENDBRANCH   1   2
BRANCH   1   9
ATOM      9  C   UNL     1      -4.996  -0.287  -0.617  0.00  0.00    +0.000 C 
BRANCH   9  10
ATOM     10  C   UNL     1      -5.286   0.484  -1.907  0.00  0.00    +0.000 C 
BRANCH  10  11
ATOM     11  C   UNL     1      -6.766   0.710  -2.097  0.00  0.00    +0.000 A 
ATOM     12  C   UNL     1      -7.388   1.839  -1.548  0.00  0.00    +0.000 A 
ATOM     13  C   UNL     1      -8.760   2.040  -1.709  0.00  0.00    +0.000 A 
ATOM     14  C   UNL     1      -9.523   1.112  -2.415  0.00  0.00    +0.000 A 
ATOM     15  C   UNL     1      -8.915  -0.019  -2.959  0.00  0.00    +0.000 A 
ATOM     16  C   UNL     1      -7.543  -0.221  -2.799  0.00  0.00    +0.000 A 
ENDBRANCH  10  11
ENDBRANCH   9  10
ENDBRANCH   1   9
TORSDOF 5
