REMARK  Name = *****
REMARK  2 active torsions:
REMARK  status: ('A' for Active; 'I' for Inactive)
REMARK    1  A    between atoms: C_5  and  C_7
REMARK    2  A    between atoms: C_8  and  C_10
REMARK                            x       y       z     vdW  Elec       q    Type
REMARK                         _______ _______ _______ _____ _____    ______ ____
ROOT
ATOM      1  C   UNL     1       0.017  -2.690   0.278  0.00  0.00    +0.000 C 
ATOM      2  C   UNL     1      -1.091  -3.427  -0.460  0.00  0.00    +0.000 C 
ATOM      3  O   UNL     1      -1.234  -3.012   0.908  0.00  0.00    +0.000 OA
ENDROOT
BRANCH   1   8
ATOM      4  C   UNL     1       0.066   1.125   0.638  0.00  0.00    +0.000 A 
ATOM      5  C   UNL     1       0.784   1.523  -0.485  0.00  0.00    +0.000 A 
ATOM      6  C   UNL     1       1.261   0.562  -1.372  0.00  0.00    +0.000 A 
ATOM      7  C   UNL     1       1.018  -0.796  -1.136  0.00  0.00    +0.000 A 
ATOM      8  C   UNL     1       0.288  -1.230  -0.013  0.00  0.00    +0.000 A 
ATOM      9  C   UNL     1      -0.174  -0.232   0.869  0.00  0.00    +0.000 A 
ATOM     10 CL   UNL     1       1.656  -1.933  -2.271  0.00  0.00    +0.000 Cl
ENDBRANCH   1   8
BRANCH   2  11
ATOM     11  C   UNL     1      -0.972  -4.909  -0.720  0.00  0.00    +0.000 A 
ATOM     12  C   UNL     1      -1.705  -5.846   0.029  0.00  0.00    +0.000 A 
ATOM     13  C   UNL     1      -1.602  -7.219  -0.215  0.00  0.00    +0.000 A 
ATOM     14  C   UNL     1      -0.760  -7.679  -1.222  0.00  0.00    +0.000 A 
ATOM     15  C   UNL     1      -0.027  -6.777  -1.986  0.00  0.00    +0.000 A 
ATOM     16  C   UNL     1      -0.136  -5.405  -1.735  0.00  0.00    +0.000 A 
ATOM     17 CL   UNL     1      -0.628  -9.366  -1.526  0.00  0.00    +0.000 Cl
ENDBRANCH   2  11
TORSDOF 2
