REMARK  Name = *****
REMARK  4 active torsions:
REMARK  status: ('A' for Active; 'I' for Inactive)
REMARK    1  A    between atoms: C_4  and  C_7
REMARK    2  A    between atoms: C_7  and  S_8
REMARK    3  A    between atoms: S_8  and  C_9
REMARK    4  A    between atoms: C_12  and  C_15
REMARK                            x       y       z     vdW  Elec       q    Type
REMARK                         _______ _______ _______ _____ _____    ______ ____
ROOT
ATOM      1  S   UNL     1      -3.696  -1.076  -0.937  0.00  0.00    +0.000 S 
ENDROOT
BRANCH   1   2
ATOM      2  C   UNL     1      -5.399  -0.554  -0.896  0.00  0.00    +0.000 A 
ATOM      3  C   UNL     1      -5.840   0.573  -1.597  0.00  0.00    +0.000 A 
ATOM      4  C   UNL     1      -7.187   0.949  -1.557  0.00  0.00    +0.000 A 
ATOM      5  C   UNL     1      -8.105   0.194  -0.820  0.00  0.00    +0.000 A 
ATOM      6  C   UNL     1      -7.671  -0.941  -0.130  0.00  0.00    +0.000 A 
ATOM      7  C   UNL     1      -6.324  -1.314  -0.173  0.00  0.00    +0.000 A 
BRANCH   5   8
ATOM      8  C   UNL     1      -9.486   0.579  -0.779  0.00  0.00    +0.000 C 
ATOM      9  N   UNL     1     -10.602   0.894  -0.744  0.00  0.00    +0.000 NA
ENDBRANCH   5   8
ENDBRANCH   1   2
BRANCH   1  10
ATOM     10  C   UNL     1      -2.884   0.429  -0.302  0.00  0.00    +0.000 C 
BRANCH  10  14
ATOM     11  C   UNL     1       1.316  -0.252   0.407  0.00  0.00    +0.000 A 
ATOM     12  C   UNL     1       0.878   0.150  -0.853  0.00  0.00    +0.000 A 
ATOM     13  C   UNL     1      -0.480   0.372  -1.084  0.00  0.00    +0.000 A 
ATOM     14  C   UNL     1      -1.415   0.199  -0.052  0.00  0.00    +0.000 A 
ATOM     15  C   UNL     1      -0.963  -0.216   1.209  0.00  0.00    +0.000 A 
ATOM     16  C   UNL     1       0.396  -0.437   1.437  0.00  0.00    +0.000 A 
ENDBRANCH  10  14
ENDBRANCH   1  10
TORSDOF 4
