REMARK  Name = *****
REMARK  5 active torsions:
REMARK  status: ('A' for Active; 'I' for Inactive)
REMARK    1  A    between atoms: C_1  and  C_2
REMARK    2  A    between atoms: C_3  and  O_9
REMARK    3  A    between atoms: C_4  and  C_8
REMARK    4  A    between atoms: O_9  and  C_10
REMARK    5  A    between atoms: C_10  and  C_12
REMARK                            x       y       z     vdW  Elec       q    Type
REMARK                         _______ _______ _______ _____ _____    ______ ____
ROOT
ATOM      1  O   UNL     1       0.574   2.284   0.743  0.00  0.00    +0.000 OA
ENDROOT
BRANCH   1   4
ATOM      2  C   UNL     1       2.525   0.351   1.538  0.00  0.00    +0.000 C 
ATOM      3  C   UNL     1       1.270  -0.012   0.798  0.00  0.00    +0.000 A 
ATOM      4  C   UNL     1       0.344   0.969   0.404  0.00  0.00    +0.000 A 
ATOM      5  C   UNL     1      -0.849   0.626  -0.257  0.00  0.00    +0.000 A 
ATOM      6  C   UNL     1      -1.067  -0.716  -0.593  0.00  0.00    +0.000 A 
ATOM      7  C   UNL     1      -0.135  -1.694  -0.245  0.00  0.00    +0.000 A 
ATOM      8  C   UNL     1       1.024  -1.346   0.449  0.00  0.00    +0.000 A 
ATOM      9  C   UNL     1      -1.857   1.670  -0.642  0.00  0.00    +0.000 C 
ENDBRANCH   1   4
BRANCH   1  10
ATOM     10  C   UNL     1       1.239   3.112  -0.156  0.00  0.00    +0.000 C 
ATOM     11  C   UNL     1       1.751   2.744  -1.345  0.00  0.00    +0.000 C 
BRANCH  10  12
ATOM     12  C   UNL     1       1.386   4.500   0.330  0.00  0.00    +0.000 A 
ATOM     13  C   UNL     1       1.116   5.601  -0.498  0.00  0.00    +0.000 A 
ATOM     14  C   UNL     1       1.249   6.906  -0.018  0.00  0.00    +0.000 A 
ATOM     15  C   UNL     1       1.648   7.128   1.299  0.00  0.00    +0.000 A 
ATOM     16  C   UNL     1       1.909   6.046   2.137  0.00  0.00    +0.000 A 
ATOM     17  C   UNL     1       1.775   4.741   1.656  0.00  0.00    +0.000 A 
ENDBRANCH  10  12
ENDBRANCH   1  10
TORSDOF 3
