REMARK  Name = *****
REMARK  3 active torsions:
REMARK  status: ('A' for Active; 'I' for Inactive)
REMARK    1  A    between atoms: C_1  and  C_2
REMARK    2  A    between atoms: C_4  and  C_17
REMARK    3  A    between atoms: C_6  and  C_8
REMARK                            x       y       z     vdW  Elec       q    Type
REMARK                         _______ _______ _______ _____ _____    ______ ____
ROOT
ATOM      1  C   UNL     1      -0.072  -3.247  -0.122  0.00  0.00    +0.000 A 
ATOM      2  N   UNL     1      -1.127  -4.039  -0.226  0.00  0.00    +0.000 NA
ATOM      3  C   UNL     1      -0.589  -5.300  -0.231  0.00  0.00    +0.000 A 
ATOM      4  C   UNL     1      -1.194  -6.560  -0.321  0.00  0.00    +0.000 A 
ATOM      5  C   UNL     1      -0.367  -7.694  -0.298  0.00  0.00    +0.000 A 
ATOM      6  C   UNL     1       1.024  -7.574  -0.187  0.00  0.00    +0.000 A 
ATOM      7  C   UNL     1       1.643  -6.321  -0.096  0.00  0.00    +0.000 A 
ATOM      8  C   UNL     1       0.789  -5.225  -0.124  0.00  0.00    +0.000 A 
ATOM      9  O   UNL     1       1.131  -3.907  -0.055  0.00  0.00    +0.000 OA
ENDROOT
BRANCH   1  15
ATOM     10  C   UNL     1       2.531   1.037   0.092  0.00  0.00    +0.000 C 
ATOM     11  C   UNL     1       1.216   0.317   0.035  0.00  0.00    +0.000 A 
ATOM     12  C   UNL     1       0.008   1.024   0.038  0.00  0.00    +0.000 A 
ATOM     13  C   UNL     1      -1.216   0.347  -0.015  0.00  0.00    +0.000 A 
ATOM     14  C   UNL     1      -1.220  -1.054  -0.067  0.00  0.00    +0.000 A 
ATOM     15  C   UNL     1      -0.023  -1.787  -0.067  0.00  0.00    +0.000 A 
ATOM     16  C   UNL     1       1.191  -1.085  -0.015  0.00  0.00    +0.000 A 
ATOM     17  C   UNL     1      -2.515   1.097  -0.010  0.00  0.00    +0.000 C 
ENDBRANCH   1  15
TORSDOF 1
