REMARK  Name = *****
REMARK  4 active torsions:
REMARK  status: ('A' for Active; 'I' for Inactive)
REMARK    1  A    between atoms: C_4  and  S_7
REMARK    2  A    between atoms: S_7  and  C_8
REMARK    3  A    between atoms: C_8  and  C_10
REMARK    4  A    between atoms: C_10  and  C_11
REMARK                            x       y       z     vdW  Elec       q    Type
REMARK                         _______ _______ _______ _____ _____    ______ ____
ROOT
ATOM      1  C   UNL     1      -3.884  -1.118   0.105  0.00  0.00    +0.000 C 
ATOM      2  O   UNL     1      -3.520  -2.039   0.829  0.00  0.00    +0.000 OA
ENDROOT
BRANCH   1   3
ATOM      3  S   UNL     1      -2.769   0.149  -0.406  0.00  0.00    +0.000 S 
BRANCH   3   7
ATOM      4  C   UNL     1      -2.602   2.776   3.348  0.00  0.00    +0.000 A 
ATOM      5  C   UNL     1      -2.314   1.417   3.448  0.00  0.00    +0.000 A 
ATOM      6  C   UNL     1      -2.363   0.606   2.312  0.00  0.00    +0.000 A 
ATOM      7  C   UNL     1      -2.711   1.148   1.070  0.00  0.00    +0.000 A 
ATOM      8  C   UNL     1      -2.986   2.517   0.976  0.00  0.00    +0.000 A 
ATOM      9  C   UNL     1      -2.934   3.328   2.112  0.00  0.00    +0.000 A 
ENDBRANCH   3   7
ENDBRANCH   1   3
BRANCH   1  10
ATOM     10  C   UNL     1      -5.284  -1.008  -0.458  0.00  0.00    +0.000 C 
BRANCH  10  11
ATOM     11  C   UNL     1      -5.426  -1.640  -1.822  0.00  0.00    +0.000 A 
ATOM     12  C   UNL     1      -5.204  -3.017  -1.993  0.00  0.00    +0.000 A 
ATOM     13  C   UNL     1      -5.335  -3.602  -3.254  0.00  0.00    +0.000 A 
ATOM     14  C   UNL     1      -5.693  -2.815  -4.340  0.00  0.00    +0.000 A 
ATOM     15  C   UNL     1      -5.923  -1.453  -4.191  0.00  0.00    +0.000 A 
ATOM     16  C   UNL     1      -5.790  -0.864  -2.933  0.00  0.00    +0.000 A 
ATOM     17  F   UNL     1      -5.820  -3.377  -5.550  0.00  0.00    +0.000 F 
ENDBRANCH  10  11
ENDBRANCH   1  10
TORSDOF 4
