REMARK  Name = *****
REMARK  3 active torsions:
REMARK  status: ('A' for Active; 'I' for Inactive)
REMARK    1  A    between atoms: C_2  and  C_3
REMARK    2  A    between atoms: C_2  and  S_9
REMARK    3  A    between atoms: S_9  and  C_12
REMARK                            x       y       z     vdW  Elec       q    Type
REMARK                         _______ _______ _______ _____ _____    ______ ____
ROOT
ATOM      1  S   UNL     1       3.106   0.464   1.561  0.00  0.00    +0.000 S 
ATOM      2  O   UNL     1       2.199   1.012   2.558  0.00  0.00    +0.000 OA
ATOM      3  O   UNL     1       3.998  -0.619   1.939  0.00  0.00    +0.000 OA
ENDROOT
BRANCH   1   4
ATOM      4  C   UNL     1       4.125   1.831   1.029  0.00  0.00    +0.000 A 
ATOM      5  C   UNL     1       3.586   3.121   1.017  0.00  0.00    +0.000 A 
ATOM      6  C   UNL     1       4.383   4.192   0.612  0.00  0.00    +0.000 A 
ATOM      7  C   UNL     1       5.708   3.973   0.232  0.00  0.00    +0.000 A 
ATOM      8  C   UNL     1       6.245   2.684   0.262  0.00  0.00    +0.000 A 
ATOM      9  C   UNL     1       5.457   1.607   0.668  0.00  0.00    +0.000 A 
ENDBRANCH   1   4
BRANCH   1  11
ATOM     10  C   UNL     1       0.879   0.118   0.070  0.00  0.00    +0.000 C 
ATOM     11  C   UNL     1       2.217   0.044   0.124  0.00  0.00    +0.000 C 
BRANCH  11  12
ATOM     12  C   UNL     1       3.062  -0.394  -0.986  0.00  0.00    +0.000 A 
ATOM     13  C   UNL     1       3.262   0.447  -2.090  0.00  0.00    +0.000 A 
ATOM     14  C   UNL     1       4.051   0.029  -3.164  0.00  0.00    +0.000 A 
ATOM     15  C   UNL     1       4.634  -1.236  -3.151  0.00  0.00    +0.000 A 
ATOM     16  C   UNL     1       4.426  -2.087  -2.067  0.00  0.00    +0.000 A 
ATOM     17  C   UNL     1       3.639  -1.671  -0.992  0.00  0.00    +0.000 A 
ENDBRANCH  11  12
ENDBRANCH   1  11
TORSDOF 3
