REMARK  Name = *****
REMARK  4 active torsions:
REMARK  status: ('A' for Active; 'I' for Inactive)
REMARK    1  A    between atoms: C_1  and  C_2
REMARK    2  A    between atoms: C_5  and  O_8
REMARK    3  A    between atoms: O_8  and  C_9
REMARK    4  A    between atoms: C_9  and  C_11
REMARK                            x       y       z     vdW  Elec       q    Type
REMARK                         _______ _______ _______ _____ _____    ______ ____
ROOT
ATOM      1  C   UNL     1      -3.954   1.021  -0.141  0.00  0.00    +0.000 C 
ATOM      2  O   UNL     1      -3.530   2.132  -0.418  0.00  0.00    +0.000 OA
ENDROOT
BRANCH   1   3
ATOM      3  C   UNL     1      -5.391   0.719  -0.024  0.00  0.00    +0.000 A 
ATOM      4  C   UNL     1      -6.160   1.585   0.768  0.00  0.00    +0.000 A 
ATOM      5  C   UNL     1      -7.528   1.359   0.929  0.00  0.00    +0.000 A 
ATOM      6  C   UNL     1      -8.132   0.277   0.292  0.00  0.00    +0.000 A 
ATOM      7  C   UNL     1      -7.373  -0.574  -0.515  0.00  0.00    +0.000 A 
ATOM      8  C   UNL     1      -6.002  -0.354  -0.682  0.00  0.00    +0.000 A 
ATOM      9 CL   UNL     1      -5.150  -1.408  -1.753  0.00  0.00    +0.000 Cl
ENDBRANCH   1   3
BRANCH   1  10
ATOM     10  O   UNL     1      -3.247  -0.103   0.240  0.00  0.00    +0.000 OA
BRANCH  10  15
ATOM     11  C   UNL     1       2.438   0.100   0.199  0.00  0.00    +0.000 C 
ATOM     12  C   UNL     1       0.937   0.081   0.190  0.00  0.00    +0.000 A 
ATOM     13  C   UNL     1       0.214   0.968   1.000  0.00  0.00    +0.000 A 
ATOM     14  C   UNL     1      -1.181   0.934   1.018  0.00  0.00    +0.000 A 
ATOM     15  C   UNL     1      -1.851   0.014   0.215  0.00  0.00    +0.000 A 
ATOM     16  C   UNL     1      -1.150  -0.899  -0.569  0.00  0.00    +0.000 A 
ATOM     17  C   UNL     1       0.245  -0.863  -0.581  0.00  0.00    +0.000 A 
ENDBRANCH  10  15
ENDBRANCH   1  10
TORSDOF 3
