REMARK  Name = *****
REMARK  5 active torsions:
REMARK  status: ('A' for Active; 'I' for Inactive)
REMARK    1  A    between atoms: C_1  and  C_2
REMARK    2  A    between atoms: C_5  and  C_8
REMARK    3  A    between atoms: N_9  and  O_10
REMARK    4  A    between atoms: O_10  and  C_11
REMARK    5  A    between atoms: C_11  and  C_12
REMARK                            x       y       z     vdW  Elec       q    Type
REMARK                         _______ _______ _______ _____ _____    ______ ____
ROOT
ATOM      1  C   UNL     1      -3.064   0.183  -0.393  0.00  0.00    +0.000 C 
ATOM      2  N   UNL     1      -3.972   1.115  -0.374  0.00  0.00    +0.000 NA
ENDROOT
BRANCH   1   7
ATOM      3  C   UNL     1       2.640   0.297   0.561  0.00  0.00    +0.000 C 
ATOM      4  C   UNL     1       1.162   0.303   0.301  0.00  0.00    +0.000 A 
ATOM      5  C   UNL     1       0.319   1.152   1.028  0.00  0.00    +0.000 A 
ATOM      6  C   UNL     1      -1.062   1.138   0.810  0.00  0.00    +0.000 A 
ATOM      7  C   UNL     1      -1.610   0.274  -0.140  0.00  0.00    +0.000 A 
ATOM      8  C   UNL     1      -0.778  -0.603  -0.844  0.00  0.00    +0.000 A 
ATOM      9  C   UNL     1       0.602  -0.586  -0.624  0.00  0.00    +0.000 A 
ENDBRANCH   1   7
BRANCH   2  10
ATOM     10  O   UNL     1      -3.432   2.385  -0.140  0.00  0.00    +0.000 OA
BRANCH  10  11
ATOM     11  C   UNL     1      -4.476   3.358  -0.209  0.00  0.00    +0.000 C 
BRANCH  11  12
ATOM     12  C   UNL     1      -3.920   4.729   0.088  0.00  0.00    +0.000 A 
ATOM     13  C   UNL     1      -2.701   5.149  -0.465  0.00  0.00    +0.000 A 
ATOM     14  C   UNL     1      -2.208   6.430  -0.211  0.00  0.00    +0.000 A 
ATOM     15  C   UNL     1      -2.933   7.310   0.590  0.00  0.00    +0.000 A 
ATOM     16  C   UNL     1      -4.153   6.911   1.134  0.00  0.00    +0.000 A 
ATOM     17  C   UNL     1      -4.646   5.630   0.882  0.00  0.00    +0.000 A 
ENDBRANCH  11  12
ENDBRANCH  10  11
ENDBRANCH   2  10
TORSDOF 4
