REMARK  Name = *****
REMARK  1 active torsions:
REMARK  status: ('A' for Active; 'I' for Inactive)
REMARK    1  A    between atoms: P_10  and  C_12
REMARK                            x       y       z     vdW  Elec       q    Type
REMARK                         _______ _______ _______ _____ _____    ______ ____
ROOT
ATOM      1  C   UNL     1       1.477  -0.263   0.238  0.00  0.00    +0.000 C 
ATOM      2  C   UNL     1       2.809  -0.216   0.070  0.00  0.00    +0.000 C 
ATOM      3  C   UNL     1       3.668   0.774   0.818  0.00  0.00    +0.000 C 
ATOM      4  C   UNL     1       4.170   1.929  -0.047  0.00  0.00    +0.000 C 
ATOM      5  C   UNL     1       5.179   1.513  -1.117  0.00  0.00    +0.000 C 
ATOM      6  C   UNL     1       4.594   0.625  -2.215  0.00  0.00    +0.000 C 
ATOM      7  C   UNL     1       4.317  -0.796  -1.793  0.00  0.00    +0.000 C 
ATOM      8  C   UNL     1       3.498  -1.163  -0.793  0.00  0.00    +0.000 C 
ATOM      9  C   UNL     1       3.296  -2.622  -0.524  0.00  0.00    +0.000 C 
ATOM     10  P   UNL     1       4.501  -3.357  -1.678  0.00  0.00    +0.000 P 
ATOM     11  C   UNL     1       4.980  -1.865  -2.600  0.00  0.00    +0.000 C 
ENDROOT
BRANCH  10  12
ATOM     12  C   UNL     1       5.949  -3.666  -0.615  0.00  0.00    +0.000 A 
ATOM     13  C   UNL     1       6.511  -4.952  -0.631  0.00  0.00    +0.000 A 
ATOM     14  C   UNL     1       7.622  -5.262   0.158  0.00  0.00    +0.000 A 
ATOM     15  C   UNL     1       8.189  -4.289   0.975  0.00  0.00    +0.000 A 
ATOM     16  C   UNL     1       7.645  -3.008   1.003  0.00  0.00    +0.000 A 
ATOM     17  C   UNL     1       6.533  -2.699   0.214  0.00  0.00    +0.000 A 
ENDBRANCH  10  12
TORSDOF 1
