REMARK  Name = *****
REMARK  2 active torsions:
REMARK  status: ('A' for Active; 'I' for Inactive)
REMARK    1  A    between atoms: C_7  and  S_10
REMARK    2  A    between atoms: S_10  and  C_11
REMARK                            x       y       z     vdW  Elec       q    Type
REMARK                         _______ _______ _______ _____ _____    ______ ____
ROOT
ATOM      1  C   UNL     1       2.304  -0.281  -0.076  0.00  0.00    +0.000 C 
ATOM      2  C   UNL     1       1.635   1.091   0.087  0.00  0.00    +0.000 C 
ATOM      3  C   UNL     1       0.191   0.730  -0.072  0.00  0.00    +0.000 A 
ATOM      4  C   UNL     1      -0.003  -0.642   0.119  0.00  0.00    +0.000 A 
ATOM      5  C   UNL     1       1.294  -1.326   0.419  0.00  0.00    +0.000 C 
ATOM      6  C   UNL     1      -1.271  -1.200   0.065  0.00  0.00    +0.000 A 
ATOM      7  C   UNL     1      -2.361  -0.360  -0.195  0.00  0.00    +0.000 A 
ATOM      8  C   UNL     1      -2.156   1.019  -0.399  0.00  0.00    +0.000 A 
ATOM      9  C   UNL     1      -0.875   1.574  -0.327  0.00  0.00    +0.000 A 
ENDROOT
BRANCH   7  10
ATOM     10  S   UNL     1      -4.019  -1.015  -0.293  0.00  0.00    +0.000 S 
BRANCH  10  11
ATOM     11  C   UNL     1      -4.279  -1.640   1.359  0.00  0.00    +0.000 A 
ATOM     12  C   UNL     1      -3.980  -0.878   2.495  0.00  0.00    +0.000 A 
ATOM     13  C   UNL     1      -4.218  -1.390   3.773  0.00  0.00    +0.000 A 
ATOM     14  C   UNL     1      -4.766  -2.662   3.924  0.00  0.00    +0.000 A 
ATOM     15  C   UNL     1      -5.077  -3.423   2.799  0.00  0.00    +0.000 A 
ATOM     16  C   UNL     1      -4.837  -2.913   1.521  0.00  0.00    +0.000 A 
ENDBRANCH  10  11
ENDBRANCH   7  10
TORSDOF 2
