REMARK  Name = *****
REMARK  1 active torsions:
REMARK  status: ('A' for Active; 'I' for Inactive)
REMARK    1  A    between atoms: C_8  and  C_10
REMARK                            x       y       z     vdW  Elec       q    Type
REMARK                         _______ _______ _______ _____ _____    ______ ____
ROOT
ATOM      1  C   UNL     1      -2.626  -0.369  -0.108  0.00  0.00    +0.000 A 
ATOM      2  C   UNL     1      -2.335   0.978   0.059  0.00  0.00    +0.000 A 
ATOM      3  C   UNL     1      -1.011   1.411   0.165  0.00  0.00    +0.000 A 
ATOM      4  C   UNL     1       0.025   0.459   0.099  0.00  0.00    +0.000 A 
ATOM      5  C   UNL     1      -0.243  -0.901  -0.068  0.00  0.00    +0.000 A 
ATOM      6  C   UNL     1      -1.594  -1.310  -0.172  0.00  0.00    +0.000 A 
ATOM      7  C   UNL     1       0.970  -1.666  -0.104  0.00  0.00    +0.000 A 
ATOM      8  C   UNL     1       2.111  -0.899   0.023  0.00  0.00    +0.000 A 
ATOM      9  S   UNL     1       1.716   0.755   0.205  0.00  0.00    +0.000 S 
ENDROOT
BRANCH   8  10
ATOM     10  C   UNL     1       3.512  -1.340   0.048  0.00  0.00    +0.000 A 
ATOM     11  C   UNL     1       4.502  -0.679  -0.691  0.00  0.00    +0.000 A 
ATOM     12  C   UNL     1       5.818  -1.132  -0.655  0.00  0.00    +0.000 A 
ATOM     13  C   UNL     1       6.179  -2.238   0.104  0.00  0.00    +0.000 A 
ATOM     14  C   UNL     1       5.206  -2.908   0.840  0.00  0.00    +0.000 A 
ATOM     15  C   UNL     1       3.880  -2.462   0.810  0.00  0.00    +0.000 A 
ATOM     16  F   UNL     1       6.753  -0.491  -1.369  0.00  0.00    +0.000 F 
ENDBRANCH   8  10
TORSDOF 1
