REMARK  Name = *****
REMARK  5 active torsions:
REMARK  status: ('A' for Active; 'I' for Inactive)
REMARK    1  A    between atoms: C_2  and  C_3
REMARK    2  A    between atoms: C_3  and  C_4
REMARK    3  A    between atoms: C_3  and  O_9
REMARK    4  A    between atoms: O_9  and  C_10
REMARK    5  A    between atoms: C_10  and  C_11
REMARK                            x       y       z     vdW  Elec       q    Type
REMARK                         _______ _______ _______ _____ _____    ______ ____
ROOT
ATOM      1  C   UNL     1       3.875   0.040  -0.076  0.00  0.00    +0.000 C 
ENDROOT
BRANCH   1   2
ATOM      2  C   UNL     1       4.399   1.369  -0.642  0.00  0.00    +0.000 C 
ATOM      3  C   UNL     1       5.925   1.409  -0.759  0.00  0.00    +0.000 C 
ATOM      4  C   UNL     1       6.253   2.889  -0.934  0.00  0.00    +0.000 C 
ATOM      5  C   UNL     1       5.079   3.657  -0.327  0.00  0.00    +0.000 C 
ATOM      6  C   UNL     1       4.126   2.602   0.224  0.00  0.00    +0.000 C 
ENDBRANCH   1   2
BRANCH   1   8
ATOM      7  C   UNL     1       1.051   0.040  -0.076  0.00  0.00    +0.000 C 
ATOM      8  C   UNL     1       2.355   0.040  -0.076  0.00  0.00    +0.000 C 
ENDBRANCH   1   8
BRANCH   1   9
ATOM      9  O   UNL     1       4.361  -0.144   1.254  0.00  0.00    +0.000 OA
BRANCH   9  10
ATOM     10  C   UNL     1       4.278  -1.495   1.693  0.00  0.00    +0.000 C 
BRANCH  10  11
ATOM     11  C   UNL     1       4.832  -1.572   3.091  0.00  0.00    +0.000 A 
ATOM     12  C   UNL     1       3.973  -1.628   4.198  0.00  0.00    +0.000 A 
ATOM     13  C   UNL     1       4.491  -1.691   5.493  0.00  0.00    +0.000 A 
ATOM     14  C   UNL     1       5.870  -1.691   5.694  0.00  0.00    +0.000 A 
ATOM     15  C   UNL     1       6.733  -1.621   4.602  0.00  0.00    +0.000 A 
ATOM     16  C   UNL     1       6.217  -1.558   3.307  0.00  0.00    +0.000 A 
ENDBRANCH  10  11
ENDBRANCH   9  10
ENDBRANCH   1   9
TORSDOF 5
