REMARK  Name = *****
REMARK  3 active torsions:
REMARK  status: ('A' for Active; 'I' for Inactive)
REMARK    1  A    between atoms: C_1  and  C_2
REMARK    2  A    between atoms: C_9  and  C_11
REMARK    3  A    between atoms: C_13  and  C_17
REMARK                            x       y       z     vdW  Elec       q    Type
REMARK                         _______ _______ _______ _____ _____    ______ ____
ROOT
ATOM      1  C   UNL     1       0.943  -0.015   0.062  0.00  0.00    +0.000 C 
ATOM      2  C   UNL     1       2.445  -0.052   0.083  0.00  0.00    +0.000 A 
ATOM      3  C   UNL     1       3.125  -1.285   0.067  0.00  0.00    +0.000 A 
ATOM      4  C   UNL     1       4.526  -1.277   0.083  0.00  0.00    +0.000 A 
ATOM      5  C   UNL     1       5.189  -0.063   0.113  0.00  0.00    +0.000 A 
ATOM      6  C   UNL     1       4.568   1.178   0.131  0.00  0.00    +0.000 A 
ATOM      7  C   UNL     1       3.167   1.155   0.114  0.00  0.00    +0.000 A 
ATOM      8  O   UNL     1       6.529  -0.319   0.120  0.00  0.00    +0.000 OA
ATOM      9  C   UNL     1       6.605  -1.690   0.092  0.00  0.00    +0.000 A 
ATOM     10  N   UNL     1       5.435  -2.305   0.071  0.00  0.00    +0.000 NA
ENDROOT
BRANCH   9  11
ATOM     11  C   UNL     1       7.947  -2.271   0.086  0.00  0.00    +0.000 A 
ATOM     12  C   UNL     1       9.104  -1.475   0.098  0.00  0.00    +0.000 A 
ATOM     13  C   UNL     1      10.386  -2.052   0.087  0.00  0.00    +0.000 A 
ATOM     14  C   UNL     1      10.502  -3.450   0.066  0.00  0.00    +0.000 A 
ATOM     15  C   UNL     1       9.362  -4.252   0.055  0.00  0.00    +0.000 A 
ATOM     16  C   UNL     1       8.096  -3.666   0.065  0.00  0.00    +0.000 A 
BRANCH  13  17
ATOM     17  C   UNL     1      11.629  -1.196   0.096  0.00  0.00    +0.000 C 
ATOM     18  F   UNL     1      11.371   0.142   0.121  0.00  0.00    +0.000 F 
ATOM     19  F   UNL     1      12.422  -1.441   1.176  0.00  0.00    +0.000 F 
ATOM     20  F   UNL     1      12.412  -1.404  -0.998  0.00  0.00    +0.000 F 
ENDBRANCH  13  17
ENDBRANCH   9  11
TORSDOF 2
