REMARK  Name = *****
REMARK  4 active torsions:
REMARK  status: ('A' for Active; 'I' for Inactive)
REMARK    1  A    between atoms: C_1  and  C_2
REMARK    2  A    between atoms: C_7  and  N_8
REMARK    3  A    between atoms: N_9  and  C_11
REMARK    4  A    between atoms: C_16  and  C_17
REMARK                            x       y       z     vdW  Elec       q    Type
REMARK                         _______ _______ _______ _____ _____    ______ ____
ROOT
ATOM      1  N   UNL     1       0.892  -2.347   0.908  0.00  0.00    +0.000 N 
ATOM      2  N   UNL     1       2.226  -2.623   0.881  0.00  0.00    +0.000 N 
ATOM      3  O   UNL     1       1.377  -3.280   0.012  0.00  0.00    +0.000 OA
ENDROOT
BRANCH   1  10
ATOM      4  C   UNL     1       2.007  -0.906  -1.604  0.00  0.00    +0.000 C 
ATOM      5  C   UNL     1       0.866  -0.425  -0.747  0.00  0.00    +0.000 A 
ATOM      6  C   UNL     1       0.247   0.787  -1.115  0.00  0.00    +0.000 A 
ATOM      7  C   UNL     1      -0.817   1.313  -0.382  0.00  0.00    +0.000 A 
ATOM      8  C   UNL     1      -1.283   0.637   0.736  0.00  0.00    +0.000 A 
ATOM      9  C   UNL     1      -0.682  -0.563   1.115  0.00  0.00    +0.000 A 
ATOM     10  C   UNL     1       0.396  -1.119   0.392  0.00  0.00    +0.000 A 
ENDBRANCH   1  10
BRANCH   2  11
ATOM     11  C   UNL     1       2.832  -3.379   1.923  0.00  0.00    +0.000 A 
ATOM     12  C   UNL     1       4.133  -2.963   2.278  0.00  0.00    +0.000 A 
ATOM     13  C   UNL     1       4.863  -3.603   3.280  0.00  0.00    +0.000 A 
ATOM     14  C   UNL     1       4.304  -4.680   3.952  0.00  0.00    +0.000 A 
ATOM     15  C   UNL     1       3.020  -5.112   3.622  0.00  0.00    +0.000 A 
ATOM     16  C   UNL     1       2.268  -4.477   2.611  0.00  0.00    +0.000 A 
ATOM     17  C   UNL     1       0.892  -5.020   2.332  0.00  0.00    +0.000 C 
ENDBRANCH   2  11
TORSDOF 2
