REMARK  Name = *****
REMARK  3 active torsions:
REMARK  status: ('A' for Active; 'I' for Inactive)
REMARK    1  A    between atoms: N_2  and  C_3
REMARK    2  A    between atoms: C_8  and  C_9
REMARK    3  A    between atoms: C_10  and  C_11
REMARK                            x       y       z     vdW  Elec       q    Type
REMARK                         _______ _______ _______ _____ _____    ______ ____
ROOT
ATOM      1  C   UNL     1       3.625  -0.160  -0.002  0.00  0.00    +0.000 A 
ATOM      2  C   UNL     1       4.301   1.062   0.052  0.00  0.00    +0.000 A 
ATOM      3  C   UNL     1       5.693   1.078  -0.019  0.00  0.00    +0.000 A 
ATOM      4  C   UNL     1       6.399  -0.121  -0.142  0.00  0.00    +0.000 A 
ATOM      5  C   UNL     1       5.714  -1.339  -0.195  0.00  0.00    +0.000 A 
ATOM      6  C   UNL     1       4.318  -1.368  -0.125  0.00  0.00    +0.000 A 
ENDROOT
BRANCH   1   8
ATOM      7  C   UNL     1       1.066  -0.101   0.130  0.00  0.00    +0.000 C 
ATOM      8  N   UNL     1       2.236  -0.142   0.069  0.00  0.00    +0.000 NA
ENDBRANCH   1   8
BRANCH   6   9
ATOM      9  C   UNL     1       3.640  -2.627  -0.181  0.00  0.00    +0.000 C 
ATOM     10  C   UNL     1       3.065  -3.681  -0.226  0.00  0.00    +0.000 C 
BRANCH  10  11
ATOM     11  C   UNL     1       2.363  -4.922  -0.278  0.00  0.00    +0.000 C 
ATOM     12  C   UNL     1       3.037  -6.066  -0.064  0.00  0.00    +0.000 C 
ATOM     13  C   UNL     1       2.401  -7.425  -0.105  0.00  0.00    +0.000 C 
ATOM     14  C   UNL     1       0.995  -7.419  -0.706  0.00  0.00    +0.000 C 
ATOM     15  C   UNL     1       0.186  -6.228  -0.203  0.00  0.00    +0.000 C 
ATOM     16  C   UNL     1       0.878  -4.907  -0.550  0.00  0.00    +0.000 C 
ENDBRANCH  10  11
ENDBRANCH   6   9
TORSDOF 3
