REMARK  Name = *****
REMARK  5 active torsions:
REMARK  status: ('A' for Active; 'I' for Inactive)
REMARK    1  A    between atoms: C_4  and  C_7
REMARK    2  A    between atoms: C_7  and  C_8
REMARK    3  A    between atoms: C_8  and  C_9
REMARK    4  A    between atoms: C_8  and  C_12
REMARK    5  A    between atoms: C_9  and  C_10
REMARK                            x       y       z     vdW  Elec       q    Type
REMARK                         _______ _______ _______ _____ _____    ______ ____
ROOT
ATOM      1  C   UNL     1      -3.628  -0.625  -0.106  0.00  0.00    +0.000 C 
ENDROOT
BRANCH   1   2
ATOM      2  C   UNL     1      -5.077  -0.309  -0.488  0.00  0.00    +0.000 A 
ATOM      3  C   UNL     1      -5.645   0.939  -0.170  0.00  0.00    +0.000 A 
ATOM      4  C   UNL     1      -6.969   1.242  -0.499  0.00  0.00    +0.000 A 
ATOM      5  C   UNL     1      -7.761   0.303  -1.149  0.00  0.00    +0.000 A 
ATOM      6  C   UNL     1      -7.229  -0.945  -1.462  0.00  0.00    +0.000 A 
ATOM      7  C   UNL     1      -5.904  -1.253  -1.132  0.00  0.00    +0.000 A 
ATOM      8 CL   UNL     1      -5.355  -2.844  -1.539  0.00  0.00    +0.000 Cl
ENDBRANCH   1   2
BRANCH   1   9
ATOM      9  C   UNL     1      -2.647   0.559  -0.317  0.00  0.00    +0.000 C 
BRANCH   9  13
ATOM     10  C   UNL     1       1.488  -0.524   0.280  0.00  0.00    +0.000 A 
ATOM     11  C   UNL     1       0.816  -0.949  -0.865  0.00  0.00    +0.000 A 
ATOM     12  C   UNL     1      -0.520  -0.595  -1.064  0.00  0.00    +0.000 A 
ATOM     13  C   UNL     1      -1.195   0.186  -0.117  0.00  0.00    +0.000 A 
ATOM     14  C   UNL     1      -0.509   0.610   1.030  0.00  0.00    +0.000 A 
ATOM     15  C   UNL     1       0.826   0.256   1.226  0.00  0.00    +0.000 A 
ENDBRANCH   9  13
ENDBRANCH   1   9
BRANCH   1  16
ATOM     16  C   UNL     1      -3.548  -1.295   1.279  0.00  0.00    +0.000 C 
BRANCH  16  17
ATOM     17  C   UNL     1      -3.824  -0.422   2.481  0.00  0.00    +0.000 C 
ATOM     18  O   UNL     1      -3.854   0.804   2.484  0.00  0.00    +0.000 OA
ENDBRANCH  16  17
ENDBRANCH   1  16
TORSDOF 5
