REMARK  Name = *****
REMARK  4 active torsions:
REMARK  status: ('A' for Active; 'I' for Inactive)
REMARK    1  A    between atoms: C_1  and  C_2
REMARK    2  A    between atoms: C_3  and  O_9
REMARK    3  A    between atoms: O_9  and  C_10
REMARK    4  A    between atoms: C_10  and  C_11
REMARK                            x       y       z     vdW  Elec       q    Type
REMARK                         _______ _______ _______ _____ _____    ______ ____
ROOT
ATOM      1  C   UNL     1      -1.023  -2.161   1.541  0.00  0.00    +0.000 C 
ATOM      2  C   UNL     1      -0.915  -0.970   0.628  0.00  0.00    +0.000 A 
ATOM      3  C   UNL     1      -2.069  -0.280   0.208  0.00  0.00    +0.000 A 
ATOM      4  C   UNL     1      -1.942   0.827  -0.638  0.00  0.00    +0.000 A 
ATOM      5  C   UNL     1      -0.679   1.246  -1.069  0.00  0.00    +0.000 A 
ATOM      6  C   UNL     1       0.459   0.560  -0.655  0.00  0.00    +0.000 A 
ATOM      7  C   UNL     1       0.347  -0.541   0.190  0.00  0.00    +0.000 A 
ATOM      8 CL   UNL     1       2.010   1.079  -1.187  0.00  0.00    +0.000 Cl
ENDROOT
BRANCH   3   9
ATOM      9  O   UNL     1      -3.255  -0.768   0.688  0.00  0.00    +0.000 OA
BRANCH   9  10
ATOM     10  C   UNL     1      -4.461  -0.161   0.223  0.00  0.00    +0.000 C 
BRANCH  10  11
ATOM     11  C   UNL     1      -5.653  -0.894   0.796  0.00  0.00    +0.000 A 
ATOM     12  C   UNL     1      -5.674  -2.295   0.869  0.00  0.00    +0.000 A 
ATOM     13  C   UNL     1      -6.794  -2.965   1.363  0.00  0.00    +0.000 A 
ATOM     14  C   UNL     1      -7.912  -2.244   1.777  0.00  0.00    +0.000 A 
ATOM     15  C   UNL     1      -7.911  -0.853   1.696  0.00  0.00    +0.000 A 
ATOM     16  C   UNL     1      -6.791  -0.181   1.204  0.00  0.00    +0.000 A 
ENDBRANCH  10  11
ENDBRANCH   9  10
ENDBRANCH   3   9
TORSDOF 3
