REMARK  Name = *****
REMARK  3 active torsions:
REMARK  status: ('A' for Active; 'I' for Inactive)
REMARK    1  A    between atoms: C_1  and  P_2
REMARK    2  A    between atoms: P_2  and  C_3
REMARK    3  A    between atoms: P_2  and  C_9
REMARK                            x       y       z     vdW  Elec       q    Type
REMARK                         _______ _______ _______ _____ _____    ______ ____
ROOT
ATOM      1  C   UNL     1       0.919  -0.207  -0.091  0.00  0.00    +0.000 C 
ATOM      2  P   UNL     1       2.734  -0.067   0.111  0.00  0.00    +0.000 P 
ENDROOT
BRANCH   2   3
ATOM      3  C   UNL     1       3.177  -1.809   0.609  0.00  0.00    +0.000 C 
ATOM      4  C   UNL     1       2.638  -2.114   2.020  0.00  0.00    +0.000 C 
ATOM      5  C   UNL     1       3.025  -3.518   2.484  0.00  0.00    +0.000 C 
ATOM      6  C   UNL     1       4.532  -3.734   2.427  0.00  0.00    +0.000 C 
ATOM      7  C   UNL     1       5.082  -3.434   1.038  0.00  0.00    +0.000 C 
ATOM      8  C   UNL     1       4.699  -2.032   0.568  0.00  0.00    +0.000 C 
ENDBRANCH   2   3
BRANCH   2   9
ATOM      9  C   UNL     1       3.334   0.061  -1.646  0.00  0.00    +0.000 C 
ATOM     10  C   UNL     1       3.038   1.464  -2.209  0.00  0.00    +0.000 C 
ATOM     11  C   UNL     1       3.596   1.635  -3.621  0.00  0.00    +0.000 C 
ATOM     12  C   UNL     1       3.090   0.547  -4.561  0.00  0.00    +0.000 C 
ATOM     13  C   UNL     1       3.377  -0.845  -4.010  0.00  0.00    +0.000 C 
ATOM     14  C   UNL     1       2.813  -1.022  -2.600  0.00  0.00    +0.000 C 
ENDBRANCH   2   9
TORSDOF 2
