REMARK  Name = *****
REMARK  3 active torsions:
REMARK  status: ('A' for Active; 'I' for Inactive)
REMARK    1  A    between atoms: C_1  and  N_2
REMARK    2  A    between atoms: C_6  and  C_7
REMARK    3  A    between atoms: C_8  and  C_9
REMARK                            x       y       z     vdW  Elec       q    Type
REMARK                         _______ _______ _______ _____ _____    ______ ____
ROOT
ATOM      1  C   UNL     1       0.298   2.491  -0.127  0.00  0.00    +0.000 C 
ATOM      2  C   UNL     1       1.498   2.966   0.243  0.00  0.00    +0.000 C 
ENDROOT
BRANCH   2   3
ATOM      3  C   UNL     1       1.855   4.391   0.143  0.00  0.00    +0.000 A 
ATOM      4  C   UNL     1       2.352   5.117   1.241  0.00  0.00    +0.000 A 
ATOM      5  C   UNL     1       2.704   6.464   1.106  0.00  0.00    +0.000 A 
ATOM      6  C   UNL     1       2.570   7.091  -0.129  0.00  0.00    +0.000 A 
ATOM      7  C   UNL     1       2.092   6.388  -1.231  0.00  0.00    +0.000 A 
ATOM      8  C   UNL     1       1.740   5.042  -1.097  0.00  0.00    +0.000 A 
ATOM      9 CL   UNL     1       3.003   8.748  -0.297  0.00  0.00    +0.000 Cl
ATOM     10 CL   UNL     1       2.537   4.398   2.805  0.00  0.00    +0.000 Cl
ENDBRANCH   2   3
BRANCH   1  16
ATOM     11  C   UNL     1      -2.502   1.484  -0.329  0.00  0.00    +0.000 C 
ATOM     12  N   UNL     1      -1.322   0.668  -0.129  0.00  0.00    +0.000 N 
ATOM     13  C   UNL     1      -1.365  -0.699   0.000  0.00  0.00    +0.000 A 
ATOM     14  C   UNL     1      -0.084  -1.153   0.205  0.00  0.00    +0.000 A 
ATOM     15  C   UNL     1       0.762  -0.021   0.197  0.00  0.00    +0.000 A 
ATOM     16  C   UNL     1      -0.014   1.108  -0.016  0.00  0.00    +0.000 A 
ENDBRANCH   1  16
TORSDOF 2
