REMARK  Name = *****
REMARK  4 active torsions:
REMARK  status: ('A' for Active; 'I' for Inactive)
REMARK    1  A    between atoms: C_1  and  O_2
REMARK    2  A    between atoms: O_2  and  C_3
REMARK    3  A    between atoms: C_8  and  C_9
REMARK    4  A    between atoms: C_10  and  C_11
REMARK                            x       y       z     vdW  Elec       q    Type
REMARK                         _______ _______ _______ _____ _____    ______ ____
ROOT
ATOM      1  C   UNL     1       3.241   1.107   0.515  0.00  0.00    +0.000 A 
ATOM      2  C   UNL     1       2.788   1.677   1.711  0.00  0.00    +0.000 A 
ATOM      3  C   UNL     1       3.438   2.788   2.259  0.00  0.00    +0.000 A 
ATOM      4  C   UNL     1       4.544   3.340   1.619  0.00  0.00    +0.000 A 
ATOM      5  C   UNL     1       5.004   2.782   0.428  0.00  0.00    +0.000 A 
ATOM      6  C   UNL     1       4.359   1.670  -0.127  0.00  0.00    +0.000 A 
ENDROOT
BRANCH   1   8
ATOM      7  C   UNL     1       1.541  -0.571   0.539  0.00  0.00    +0.000 C 
ATOM      8  O   UNL     1       2.667   0.019  -0.094  0.00  0.00    +0.000 OA
ENDBRANCH   1   8
BRANCH   6   9
ATOM      9  C   UNL     1       4.868   1.129  -1.355  0.00  0.00    +0.000 C 
ATOM     10  C   UNL     1       5.294   0.677  -2.383  0.00  0.00    +0.000 C 
BRANCH  10  11
ATOM     11  C   UNL     1       5.796   0.135  -3.608  0.00  0.00    +0.000 A 
ATOM     12  C   UNL     1       6.958   0.657  -4.182  0.00  0.00    +0.000 A 
ATOM     13  C   UNL     1       7.445   0.126  -5.378  0.00  0.00    +0.000 A 
ATOM     14  C   UNL     1       6.773  -0.926  -6.000  0.00  0.00    +0.000 A 
ATOM     15  C   UNL     1       5.612  -1.448  -5.428  0.00  0.00    +0.000 A 
ATOM     16  C   UNL     1       5.124  -0.918  -4.232  0.00  0.00    +0.000 A 
ENDBRANCH  10  11
ENDBRANCH   6   9
TORSDOF 3
