REMARK  Name = *****
REMARK  1 active torsions:
REMARK  status: ('A' for Active; 'I' for Inactive)
REMARK    1  A    between atoms: C_4  and  C_7
REMARK                            x       y       z     vdW  Elec       q    Type
REMARK                         _______ _______ _______ _____ _____    ______ ____
ROOT
ATOM      1  C   UNL     1       0.084   0.877   2.256  0.00  0.00    +0.000 A 
ATOM      2  C   UNL     1       0.115   1.955   3.166  0.00  0.00    +0.000 A 
ATOM      3  C   UNL     1       0.122   1.766   4.562  0.00  0.00    +0.000 A 
ATOM      4  C   UNL     1       0.182   2.852   5.451  0.00  0.00    +0.000 A 
ATOM      5  C   UNL     1       0.192   2.646   6.831  0.00  0.00    +0.000 A 
ATOM      6  C   UNL     1       0.138   1.353   7.342  0.00  0.00    +0.000 A 
ATOM      7  C   UNL     1       0.073   0.263   6.472  0.00  0.00    +0.000 A 
ATOM      8  C   UNL     1       0.063   0.457   5.080  0.00  0.00    +0.000 A 
ATOM      9  C   UNL     1      -0.018  -0.621   4.191  0.00  0.00    +0.000 A 
ATOM     10  C   UNL     1      -0.023  -0.412   2.807  0.00  0.00    +0.000 A 
ENDROOT
BRANCH   1  14
ATOM     11  C   UNL     1       3.070   0.902  -0.262  0.00  0.00    +0.000 C 
ATOM     12  C   UNL     1       2.630   2.127   0.525  0.00  0.00    +0.000 C 
ATOM     13  S   UNL     1       0.922   2.618   0.159  0.00  0.00    +0.000 S 
ATOM     14  C   UNL     1       0.037   1.121   0.745  0.00  0.00    +0.000 C 
ATOM     15  S   UNL     1       0.546  -0.285  -0.317  0.00  0.00    +0.000 S 
ATOM     16  C   UNL     1       2.313  -0.368   0.099  0.00  0.00    +0.000 C 
ENDBRANCH   1  14
TORSDOF 1
