REMARK  Name = *****
REMARK  4 active torsions:
REMARK  status: ('A' for Active; 'I' for Inactive)
REMARK    1  A    between atoms: C_1  and  O_2
REMARK    2  A    between atoms: O_2  and  C_3
REMARK    3  A    between atoms: C_6  and  C_9
REMARK    4  A    between atoms: C_10  and  C_11
REMARK                            x       y       z     vdW  Elec       q    Type
REMARK                         _______ _______ _______ _____ _____    ______ ____
ROOT
ATOM      1  C   UNL     1      -0.185  -2.931   0.799  0.00  0.00    +0.000 C 
ATOM      2  C   UNL     1      -1.197  -3.812   0.746  0.00  0.00    +0.000 C 
ENDROOT
BRANCH   2   3
ATOM      3  C   UNL     1      -2.604  -3.499   1.041  0.00  0.00    +0.000 C 
ATOM      4  C   UNL     1      -3.433  -4.551   1.737  0.00  0.00    +0.000 C 
ATOM      5  C   UNL     1      -2.996  -3.281   2.485  0.00  0.00    +0.000 C 
ATOM      6  C   UNL     1      -4.361  -2.809   2.950  0.00  0.00    +0.000 C 
ATOM      7  C   UNL     1      -4.869  -3.559   3.968  0.00  0.00    +0.000 C 
ATOM      8  C   UNL     1      -5.416  -4.817   3.280  0.00  0.00    +0.000 C 
ATOM      9  C   UNL     1      -4.981  -4.523   1.813  0.00  0.00    +0.000 C 
ATOM     10  C   UNL     1      -5.319  -3.034   1.774  0.00  0.00    +0.000 C 
ENDBRANCH   2   3
BRANCH   1  14
ATOM     11  C   UNL     1       3.922  -3.783  -0.084  0.00  0.00    +0.000 A 
ATOM     12  C   UNL     1       3.336  -2.587  -0.496  0.00  0.00    +0.000 A 
ATOM     13  C   UNL     1       1.991  -2.325  -0.205  0.00  0.00    +0.000 A 
ATOM     14  C   UNL     1       1.212  -3.258   0.488  0.00  0.00    +0.000 A 
ATOM     15  C   UNL     1       1.810  -4.449   0.913  0.00  0.00    +0.000 A 
ATOM     16  C   UNL     1       3.153  -4.708   0.624  0.00  0.00    +0.000 A 
BRANCH  11  18
ATOM     17  C   UNL     1       6.038  -3.259  -1.030  0.00  0.00    +0.000 C 
ATOM     18  O   UNL     1       5.219  -4.162  -0.299  0.00  0.00    +0.000 OA
ENDBRANCH  11  18
ENDBRANCH   1  14
TORSDOF 3
