REMARK  Name = *****
REMARK  4 active torsions:
REMARK  status: ('A' for Active; 'I' for Inactive)
REMARK    1  A    between atoms: C_4  and  C_7
REMARK    2  A    between atoms: C_7  and  N_8
REMARK    3  A    between atoms: N_8  and  S_9
REMARK    4  A    between atoms: S_9  and  C_11
REMARK                            x       y       z     vdW  Elec       q    Type
REMARK                         _______ _______ _______ _____ _____    ______ ____
ROOT
ATOM      1  N   UNL     1      -3.627  -0.683  -0.605  0.00  0.00    +0.000 NA
ENDROOT
BRANCH   1   2
ATOM      2  S   UNL     1      -5.139  -0.521  -0.770  0.00  0.00    +0.000 S 
ATOM      3  O   UNL     1      -6.002   0.401  -0.063  0.00  0.00    +0.000 OA
ATOM      4  F   UNL     1      -5.783  -1.957  -0.619  0.00  0.00    +0.000 F 
BRANCH   2   5
ATOM      5  C   UNL     1      -5.225  -0.041  -2.472  0.00  0.00    +0.000 A 
ATOM      6  C   UNL     1      -5.155   1.191  -3.096  0.00  0.00    +0.000 A 
ATOM      7  C   UNL     1      -5.281   1.090  -4.511  0.00  0.00    +0.000 A 
ATOM      8  C   UNL     1      -5.447  -0.216  -4.919  0.00  0.00    +0.000 A 
ATOM      9  S   UNL     1      -5.453  -1.306  -3.600  0.00  0.00    +0.000 S 
ENDBRANCH   2   5
ENDBRANCH   1   2
BRANCH   1  10
ATOM     10  C   UNL     1      -2.937   0.321   0.186  0.00  0.00    +0.000 C 
BRANCH  10  14
ATOM     11  C   UNL     1       1.328  -0.302   0.033  0.00  0.00    +0.000 A 
ATOM     12  C   UNL     1       0.708   0.511  -0.914  0.00  0.00    +0.000 A 
ATOM     13  C   UNL     1      -0.673   0.710  -0.867  0.00  0.00    +0.000 A 
ATOM     14  C   UNL     1      -1.448   0.105   0.135  0.00  0.00    +0.000 A 
ATOM     15  C   UNL     1      -0.813  -0.725   1.071  0.00  0.00    +0.000 A 
ATOM     16  C   UNL     1       0.568  -0.924   1.023  0.00  0.00    +0.000 A 
ENDBRANCH  10  14
ENDBRANCH   1  10
TORSDOF 4
