REMARK  Name = *****
REMARK  4 active torsions:
REMARK  status: ('A' for Active; 'I' for Inactive)
REMARK    1  A    between atoms: C_1  and  C_2
REMARK    2  A    between atoms: C_5  and  C_8
REMARK    3  A    between atoms: C_8  and  N_10
REMARK    4  A    between atoms: N_10  and  C_11
REMARK                            x       y       z     vdW  Elec       q    Type
REMARK                         _______ _______ _______ _____ _____    ______ ____
ROOT
ATOM      1  C   UNL     1      -3.244  -0.435   0.665  0.00  0.00    +0.000 C 
ATOM      2  S   UNL     1      -3.760  -1.969   1.105  0.00  0.00    +0.000 S 
ENDROOT
BRANCH   1   7
ATOM      3  C   UNL     1       2.376   0.668  -0.204  0.00  0.00    +0.000 C 
ATOM      4  C   UNL     1       0.926   0.355   0.028  0.00  0.00    +0.000 A 
ATOM      5  C   UNL     1       0.251  -0.554  -0.797  0.00  0.00    +0.000 A 
ATOM      6  C   UNL     1      -1.103  -0.828  -0.589  0.00  0.00    +0.000 A 
ATOM      7  C   UNL     1      -1.789  -0.186   0.446  0.00  0.00    +0.000 A 
ATOM      8  C   UNL     1      -1.128   0.737   1.265  0.00  0.00    +0.000 A 
ATOM      9  C   UNL     1       0.225   1.006   1.053  0.00  0.00    +0.000 A 
ENDBRANCH   1   7
BRANCH   1  10
ATOM     10  N   UNL     1      -3.996   0.707   0.411  0.00  0.00    +0.000 N 
ATOM     11  H   UNL     1      -3.470   1.450   0.037  0.00  0.00    +0.000 HD
BRANCH  10  12
ATOM     12  C   UNL     1      -5.366   1.011   0.585  0.00  0.00    +0.000 A 
ATOM     13  C   UNL     1      -6.283   0.247   1.303  0.00  0.00    +0.000 A 
ATOM     14  C   UNL     1      -7.608   0.669   1.416  0.00  0.00    +0.000 A 
ATOM     15  C   UNL     1      -8.046   1.850   0.832  0.00  0.00    +0.000 A 
ATOM     16  C   UNL     1      -7.141   2.631   0.125  0.00  0.00    +0.000 A 
ATOM     17  C   UNL     1      -5.810   2.216   0.009  0.00  0.00    +0.000 A 
ATOM     18  F   UNL     1      -8.476  -0.075   2.115  0.00  0.00    +0.000 F 
ENDBRANCH  10  12
ENDBRANCH   1  10
TORSDOF 3
