REMARK  Name = *****
REMARK  3 active torsions:
REMARK  status: ('A' for Active; 'I' for Inactive)
REMARK    1  A    between atoms: C_4  and  S_7
REMARK    2  A    between atoms: S_7  and  C_8
REMARK    3  A    between atoms: C_8  and  C_9
REMARK                            x       y       z     vdW  Elec       q    Type
REMARK                         _______ _______ _______ _____ _____    ______ ____
ROOT
ATOM      1  C   UNL     1      -3.957  -0.955  -0.361  0.00  0.00    +0.000 C 
ENDROOT
BRANCH   1   2
ATOM      2  C   UNL     1      -5.448  -0.779  -0.535  0.00  0.00    +0.000 A 
ATOM      3  C   UNL     1      -6.052  -0.473  -1.769  0.00  0.00    +0.000 A 
ATOM      4  C   UNL     1      -7.444  -0.337  -1.871  0.00  0.00    +0.000 A 
ATOM      5  C   UNL     1      -8.248  -0.495  -0.744  0.00  0.00    +0.000 A 
ATOM      6  C   UNL     1      -7.658  -0.778   0.479  0.00  0.00    +0.000 A 
ATOM      7  C   UNL     1      -6.278  -0.916   0.594  0.00  0.00    +0.000 A 
ATOM      8  F   UNL     1      -8.428  -0.926   1.565  0.00  0.00    +0.000 F 
ATOM      9 BR   UNL     1      -5.047  -0.229  -3.363  0.00  0.00    +0.000 Br
ENDBRANCH   1   2
BRANCH   1  10
ATOM     10  S   UNL     1      -3.126   0.628  -0.013  0.00  0.00    +0.000 S 
BRANCH  10  14
ATOM     11  C   UNL     1       1.360  -0.333   0.368  0.00  0.00    +0.000 A 
ATOM     12  C   UNL     1       0.481  -1.369   0.066  0.00  0.00    +0.000 A 
ATOM     13  C   UNL     1      -0.890  -1.118  -0.056  0.00  0.00    +0.000 A 
ATOM     14  C   UNL     1      -1.399   0.173   0.122  0.00  0.00    +0.000 A 
ATOM     15  C   UNL     1      -0.500   1.206   0.425  0.00  0.00    +0.000 A 
ATOM     16  C   UNL     1       0.870   0.956   0.549  0.00  0.00    +0.000 A 
ENDBRANCH  10  14
ENDBRANCH   1  10
TORSDOF 3
