REMARK  Name = *****
REMARK  1 active torsions:
REMARK  status: ('A' for Active; 'I' for Inactive)
REMARK    1  A    between atoms: C_1  and  N_2
REMARK                            x       y       z     vdW  Elec       q    Type
REMARK                         _______ _______ _______ _____ _____    ______ ____
ROOT
ATOM      1  C   UNL     1       0.306   0.057   0.397  0.00  0.00    +0.000 C 
ATOM      2  N   UNL     1       1.264   0.649   1.326  0.00  0.00    +0.000 N 
ATOM      3  C   UNL     1       0.779   0.772   2.680  0.00  0.00    +0.000 A 
ATOM      4  C   UNL     1       0.785  -0.360   3.498  0.00  0.00    +0.000 A 
ATOM      5  C   UNL     1       0.286  -0.282   4.800  0.00  0.00    +0.000 A 
ATOM      6  C   UNL     1      -0.237   0.920   5.288  0.00  0.00    +0.000 A 
ATOM      7  C   UNL     1      -0.279   2.054   4.474  0.00  0.00    +0.000 A 
ATOM      8  C   UNL     1       0.217   1.983   3.173  0.00  0.00    +0.000 A 
ATOM      9  C   UNL     1       0.098   3.094   2.278  0.00  0.00    +0.000 C 
ATOM     10  C   UNL     1       0.303   3.601   1.211  0.00  0.00    +0.000 C 
ATOM     11  C   UNL     1       0.916   3.508  -0.076  0.00  0.00    +0.000 A 
ATOM     12  C   UNL     1       0.604   4.371  -1.121  0.00  0.00    +0.000 A 
ATOM     13  C   UNL     1       1.240   4.204  -2.355  0.00  0.00    +0.000 A 
ATOM     14  C   UNL     1       2.188   3.189  -2.540  0.00  0.00    +0.000 A 
ATOM     15  C   UNL     1       2.507   2.319  -1.495  0.00  0.00    +0.000 A 
ATOM     16  C   UNL     1       1.852   2.465  -0.274  0.00  0.00    +0.000 A 
ATOM     17  C   UNL     1       2.209   1.595   0.884  0.00  0.00    +0.000 C 
ATOM     18  O   UNL     1       3.270   1.822   1.462  0.00  0.00    +0.000 OA
ENDROOT
TORSDOF 0
