REMARK  Name = *****
REMARK  3 active torsions:
REMARK  status: ('A' for Active; 'I' for Inactive)
REMARK    1  A    between atoms: C_1  and  C_2
REMARK    2  A    between atoms: C_5  and  C_8
REMARK    3  A    between atoms: C_9  and  C_10
REMARK                            x       y       z     vdW  Elec       q    Type
REMARK                         _______ _______ _______ _____ _____    ______ ____
ROOT
ATOM      1  C   UNL     1       6.726   0.232  -0.854  0.00  0.00    +0.000 C 
ATOM      2  C   UNL     1       7.904   0.262  -1.087  0.00  0.00    +0.000 C 
ENDROOT
BRANCH   1   7
ATOM      3  C   UNL     1       1.097   0.029   0.234  0.00  0.00    +0.000 C 
ATOM      4  C   UNL     1       2.574   0.086  -0.022  0.00  0.00    +0.000 A 
ATOM      5  C   UNL     1       3.215   1.316  -0.217  0.00  0.00    +0.000 A 
ATOM      6  C   UNL     1       4.585   1.365  -0.487  0.00  0.00    +0.000 A 
ATOM      7  C   UNL     1       5.324   0.184  -0.576  0.00  0.00    +0.000 A 
ATOM      8  C   UNL     1       4.689  -1.046  -0.398  0.00  0.00    +0.000 A 
ATOM      9  C   UNL     1       3.319  -1.095  -0.128  0.00  0.00    +0.000 A 
ENDBRANCH   1   7
BRANCH   2  10
ATOM     10  C   UNL     1       9.304   0.295  -1.364  0.00  0.00    +0.000 A 
ATOM     11  C   UNL     1       9.982   1.498  -1.495  0.00  0.00    +0.000 A 
ATOM     12  C   UNL     1      11.347   1.457  -1.765  0.00  0.00    +0.000 A 
ATOM     13  C   UNL     1      11.978   0.224  -1.892  0.00  0.00    +0.000 A 
ATOM     14  C   UNL     1      11.214  -0.924  -1.744  0.00  0.00    +0.000 A 
ATOM     15  N   UNL     1       9.889  -0.917  -1.482  0.00  0.00    +0.000 NA
ENDBRANCH   2  10
TORSDOF 2
