REMARK  Name = *****
REMARK  4 active torsions:
REMARK  status: ('A' for Active; 'I' for Inactive)
REMARK    1  A    between atoms: C_1  and  C_2
REMARK    2  A    between atoms: C_4  and  C_8
REMARK    3  A    between atoms: C_8  and  S_9
REMARK    4  A    between atoms: S_9  and  C_11
REMARK                            x       y       z     vdW  Elec       q    Type
REMARK                         _______ _______ _______ _____ _____    ______ ____
ROOT
ATOM      1  C   UNL     1      -1.418   2.745  -0.371  0.00  0.00    +0.000 C 
ENDROOT
BRANCH   1   5
ATOM      2  C   UNL     1      -0.539  -1.347   2.452  0.00  0.00    +0.000 C 
ATOM      3  C   UNL     1      -0.394  -0.607   1.155  0.00  0.00    +0.000 A 
ATOM      4  C   UNL     1      -0.964   0.664   0.994  0.00  0.00    +0.000 A 
ATOM      5  C   UNL     1      -0.805   1.378  -0.204  0.00  0.00    +0.000 A 
ATOM      6  C   UNL     1      -0.046   0.811  -1.236  0.00  0.00    +0.000 A 
ATOM      7  C   UNL     1       0.537  -0.445  -1.077  0.00  0.00    +0.000 A 
ATOM      8  C   UNL     1       0.367  -1.150   0.114  0.00  0.00    +0.000 A 
ENDBRANCH   1   5
BRANCH   1   9
ATOM      9  S   UNL     1      -0.192   4.076  -0.123  0.00  0.00    +0.000 S 
ATOM     10  O   UNL     1       0.632   4.177  -1.376  0.00  0.00    +0.000 OA
BRANCH   9  11
ATOM     11  C   UNL     1      -1.358   5.456  -0.195  0.00  0.00    +0.000 A 
ATOM     12  C   UNL     1      -2.123   5.775   0.933  0.00  0.00    +0.000 A 
ATOM     13  C   UNL     1      -3.029   6.836   0.891  0.00  0.00    +0.000 A 
ATOM     14  C   UNL     1      -3.169   7.587  -0.275  0.00  0.00    +0.000 A 
ATOM     15  C   UNL     1      -2.403   7.282  -1.399  0.00  0.00    +0.000 A 
ATOM     16  C   UNL     1      -1.497   6.220  -1.359  0.00  0.00    +0.000 A 
ENDBRANCH   9  11
ENDBRANCH   1   9
TORSDOF 3
