REMARK  Name = *****
REMARK  3 active torsions:
REMARK  status: ('A' for Active; 'I' for Inactive)
REMARK    1  A    between atoms: C_1  and  C_2
REMARK    2  A    between atoms: C_3  and  C_11
REMARK    3  A    between atoms: C_4  and  C_5
REMARK                            x       y       z     vdW  Elec       q    Type
REMARK                         _______ _______ _______ _____ _____    ______ ____
ROOT
ATOM      1  C   UNL     1       0.972  -0.049   0.140  0.00  0.00    +0.000 C 
ATOM      2  C   UNL     1       2.456  -0.116   0.001  0.00  0.00    +0.000 C 
ATOM      3  C   UNL     1       3.139   0.722  -1.055  0.00  0.00    +0.000 C 
ATOM      4  C   UNL     1       3.150  -0.800  -1.157  0.00  0.00    +0.000 C 
ENDROOT
BRANCH   4   5
ATOM      5  C   UNL     1       2.377  -1.502  -2.250  0.00  0.00    +0.000 A 
ATOM      6  C   UNL     1       2.406  -1.057  -3.582  0.00  0.00    +0.000 A 
ATOM      7  C   UNL     1       1.703  -1.723  -4.590  0.00  0.00    +0.000 A 
ATOM      8  C   UNL     1       0.960  -2.860  -4.286  0.00  0.00    +0.000 A 
ATOM      9  C   UNL     1       0.926  -3.332  -2.978  0.00  0.00    +0.000 A 
ATOM     10  C   UNL     1       1.631  -2.661  -1.975  0.00  0.00    +0.000 A 
ENDBRANCH   4   5
BRANCH   3  11
ATOM     11  C   UNL     1       4.412   1.463  -0.719  0.00  0.00    +0.000 A 
ATOM     12  C   UNL     1       5.589   1.272  -1.462  0.00  0.00    +0.000 A 
ATOM     13  C   UNL     1       6.763   1.968  -1.161  0.00  0.00    +0.000 A 
ATOM     14  C   UNL     1       6.781   2.880  -0.110  0.00  0.00    +0.000 A 
ATOM     15  C   UNL     1       5.626   3.097   0.635  0.00  0.00    +0.000 A 
ATOM     16  C   UNL     1       4.455   2.397   0.330  0.00  0.00    +0.000 A 
ENDBRANCH   3  11
TORSDOF 2
