REMARK  Name = *****
REMARK  2 active torsions:
REMARK  status: ('A' for Active; 'I' for Inactive)
REMARK    1  A    between atoms: N_5  and  N_8
REMARK    2  A    between atoms: C_9  and  C_10
REMARK                            x       y       z     vdW  Elec       q    Type
REMARK                         _______ _______ _______ _____ _____    ______ ____
ROOT
ATOM      1  N   UNL     1       1.605  -0.791  -1.206  0.00  0.00    +0.000 NA
ATOM      2  C   UNL     1       2.837  -0.774  -1.627  0.00  0.00    +0.000 C 
ENDROOT
BRANCH   2   3
ATOM      3  C   UNL     1       4.069  -0.312  -0.950  0.00  0.00    +0.000 A 
ATOM      4  C   UNL     1       4.293  -0.521   0.413  0.00  0.00    +0.000 A 
ATOM      5  C   UNL     1       5.485  -0.086   1.001  0.00  0.00    +0.000 A 
ATOM      6  C   UNL     1       6.460   0.545   0.219  0.00  0.00    +0.000 A 
ATOM      7  C   UNL     1       6.243   0.731  -1.150  0.00  0.00    +0.000 A 
ATOM      8  C   UNL     1       5.051   0.297  -1.736  0.00  0.00    +0.000 A 
ATOM      9 CL   UNL     1       7.955   1.108   0.878  0.00  0.00    +0.000 Cl
ATOM     10 CL   UNL     1       5.694  -0.364   2.694  0.00  0.00    +0.000 Cl
ENDBRANCH   2   3
BRANCH   1  15
ATOM     11  C   UNL     1      -1.286   1.082  -0.783  0.00  0.00    +0.000 C 
ATOM     12  C   UNL     1      -1.900  -0.126  -0.082  0.00  0.00    +0.000 C 
ATOM     13  C   UNL     1      -0.952  -1.298   0.150  0.00  0.00    +0.000 C 
ATOM     14  C   UNL     1       0.374  -0.956   0.838  0.00  0.00    +0.000 C 
ATOM     15  N   UNL     1       1.334  -0.227  -0.002  0.00  0.00    +0.000 N 
ATOM     16  C   UNL     1       1.152   1.233   0.029  0.00  0.00    +0.000 C 
ATOM     17  C   UNL     1      -0.268   1.799   0.097  0.00  0.00    +0.000 C 
ENDBRANCH   1  15
TORSDOF 2
