REMARK  Name = *****
REMARK  4 active torsions:
REMARK  status: ('A' for Active; 'I' for Inactive)
REMARK    1  A    between atoms: C_1  and  C_2
REMARK    2  A    between atoms: C_5  and  C_8
REMARK    3  A    between atoms: C_9  and  C_10
REMARK    4  A    between atoms: C_13  and  C_16
REMARK                            x       y       z     vdW  Elec       q    Type
REMARK                         _______ _______ _______ _____ _____    ______ ____
ROOT
ATOM      1  C   UNL     1       6.821   0.056  -0.855  0.00  0.00    +0.000 C 
ATOM      2  C   UNL     1       7.996   0.078  -1.104  0.00  0.00    +0.000 C 
ENDROOT
BRANCH   1   7
ATOM      3  C   UNL     1       1.182  -0.055   0.194  0.00  0.00    +0.000 C 
ATOM      4  C   UNL     1       2.661  -0.017  -0.053  0.00  0.00    +0.000 A 
ATOM      5  C   UNL     1       3.332   1.202  -0.210  0.00  0.00    +0.000 A 
ATOM      6  C   UNL     1       4.705   1.226  -0.467  0.00  0.00    +0.000 A 
ATOM      7  C   UNL     1       5.418   0.031  -0.576  0.00  0.00    +0.000 A 
ATOM      8  C   UNL     1       4.756  -1.188  -0.427  0.00  0.00    +0.000 A 
ATOM      9  C   UNL     1       3.383  -1.212  -0.169  0.00  0.00    +0.000 A 
ENDBRANCH   1   7
BRANCH   2  10
ATOM     10  C   UNL     1       9.391   0.105  -1.418  0.00  0.00    +0.000 A 
ATOM     11  C   UNL     1      10.050   1.327  -1.571  0.00  0.00    +0.000 A 
ATOM     12  C   UNL     1      11.410   1.355  -1.892  0.00  0.00    +0.000 A 
ATOM     13  C   UNL     1      12.116   0.158  -2.059  0.00  0.00    +0.000 A 
ATOM     14  C   UNL     1      11.455  -1.065  -1.902  0.00  0.00    +0.000 A 
ATOM     15  C   UNL     1      10.094  -1.091  -1.582  0.00  0.00    +0.000 A 
BRANCH  13  16
ATOM     16  C   UNL     1      13.510   0.185  -2.394  0.00  0.00    +0.000 C 
ATOM     17  N   UNL     1      14.638   0.208  -2.666  0.00  0.00    +0.000 NA
ENDBRANCH  13  16
ENDBRANCH   2  10
TORSDOF 3
