REMARK  Name = *****
REMARK  3 active torsions:
REMARK  status: ('A' for Active; 'I' for Inactive)
REMARK    1  A    between atoms: C_5  and  C_7
REMARK    2  A    between atoms: C_7  and  C_8
REMARK    3  A    between atoms: C_8  and  C_10
REMARK                            x       y       z     vdW  Elec       q    Type
REMARK                         _______ _______ _______ _____ _____    ______ ____
ROOT
ATOM      1  C   UNL     1      -1.919  -2.479  -0.005  0.00  0.00    +0.000 C 
ATOM      2  O   UNL     1      -2.508  -2.766   1.033  0.00  0.00    +0.000 OA
ENDROOT
BRANCH   1   3
ATOM      3  C   UNL     1      -2.697  -2.220  -1.232  0.00  0.00    +0.000 A 
ATOM      4  C   UNL     1      -2.657  -3.183  -2.248  0.00  0.00    +0.000 A 
ATOM      5  C   UNL     1      -3.375  -2.979  -3.427  0.00  0.00    +0.000 A 
ATOM      6  C   UNL     1      -4.132  -1.819  -3.589  0.00  0.00    +0.000 A 
ATOM      7  C   UNL     1      -4.176  -0.861  -2.573  0.00  0.00    +0.000 A 
ATOM      8  C   UNL     1      -3.460  -1.059  -1.388  0.00  0.00    +0.000 A 
ATOM      9 BR   UNL     1      -3.545   0.302  -0.069  0.00  0.00    +0.000 Br
ENDBRANCH   1   3
BRANCH   1  10
ATOM     10  C   UNL     1      -0.411  -2.386  -0.101  0.00  0.00    +0.000 C 
BRANCH  10  15
ATOM     11  C   UNL     1       0.628   0.821   1.655  0.00  0.00    +0.000 A 
ATOM     12  C   UNL     1       0.952   1.658   0.592  0.00  0.00    +0.000 A 
ATOM     13  C   UNL     1       0.843   1.190  -0.717  0.00  0.00    +0.000 A 
ATOM     14  C   UNL     1       0.412  -0.118  -0.965  0.00  0.00    +0.000 A 
ATOM     15  C   UNL     1       0.093  -0.977   0.098  0.00  0.00    +0.000 A 
ATOM     16  C   UNL     1       0.199  -0.485   1.411  0.00  0.00    +0.000 A 
ATOM     17 CL   UNL     1       0.284  -0.613  -2.615  0.00  0.00    +0.000 Cl
ENDBRANCH  10  15
ENDBRANCH   1  10
TORSDOF 3
