REMARK  Name = *****
REMARK  4 active torsions:
REMARK  status: ('A' for Active; 'I' for Inactive)
REMARK    1  A    between atoms: C_4  and  O_7
REMARK    2  A    between atoms: O_7  and  C_8
REMARK    3  A    between atoms: C_8  and  C_10
REMARK    4  A    between atoms: C_15  and  S_16
REMARK                            x       y       z     vdW  Elec       q    Type
REMARK                         _______ _______ _______ _____ _____    ______ ____
ROOT
ATOM      1  C   UNL     1      -3.610  -0.983  -0.060  0.00  0.00    +0.000 C 
ATOM      2  O   UNL     1      -3.210  -2.126  -0.208  0.00  0.00    +0.000 OA
ENDROOT
BRANCH   1   3
ATOM      3  C   UNL     1      -5.041  -0.623  -0.065  0.00  0.00    +0.000 A 
ATOM      4  C   UNL     1      -5.794  -1.079  -1.159  0.00  0.00    +0.000 A 
ATOM      5  C   UNL     1      -7.151  -0.778  -1.252  0.00  0.00    +0.000 A 
ATOM      6  C   UNL     1      -7.764  -0.032  -0.249  0.00  0.00    +0.000 A 
ATOM      7  C   UNL     1      -7.022   0.406   0.853  0.00  0.00    +0.000 A 
ATOM      8  C   UNL     1      -5.653   0.117   0.960  0.00  0.00    +0.000 A 
BRANCH   8   9
ATOM      9  S   UNL     1      -4.809   0.652   2.441  0.00  0.00    +0.000 S 
ATOM     10  H   UNL     1      -3.500   0.289   2.374  0.00  0.00    +0.000 HD
ENDBRANCH   8   9
ENDBRANCH   1   3
BRANCH   1  11
ATOM     11  O   UNL     1      -2.878   0.188  -0.012  0.00  0.00    +0.000 OA
BRANCH  11  15
ATOM     12  C   UNL     1       1.292  -0.038  -0.102  0.00  0.00    +0.000 A 
ATOM     13  C   UNL     1       0.557  -0.611  -1.143  0.00  0.00    +0.000 A 
ATOM     14  C   UNL     1      -0.837  -0.558  -1.126  0.00  0.00    +0.000 A 
ATOM     15  C   UNL     1      -1.483   0.053  -0.053  0.00  0.00    +0.000 A 
ATOM     16  C   UNL     1      -0.758   0.644   0.980  0.00  0.00    +0.000 A 
ATOM     17  C   UNL     1       0.635   0.592   0.957  0.00  0.00    +0.000 A 
ENDBRANCH  11  15
ENDBRANCH   1  11
TORSDOF 4
