REMARK  Name = *****
REMARK  2 active torsions:
REMARK  status: ('A' for Active; 'I' for Inactive)
REMARK    1  A    between atoms: C_4  and  C_7
REMARK    2  A    between atoms: C_8  and  C_11
REMARK                            x       y       z     vdW  Elec       q    Type
REMARK                         _______ _______ _______ _____ _____    ______ ____
ROOT
ATOM      1  C   UNL     1      -2.492  -0.153  -0.287  0.00  0.00    +0.000 C 
ATOM      2  C   UNL     1      -2.851  -1.295   0.294  0.00  0.00    +0.000 C 
ATOM      3  C   UNL     1      -3.525  -0.939  -0.957  0.00  0.00    +0.000 C 
ATOM      4  O   UNL     1      -4.685  -0.670  -1.157  0.00  0.00    +0.000 OA
ENDROOT
BRANCH   1   8
ATOM      5  C   UNL     1       1.553   0.694  -1.302  0.00  0.00    +0.000 A 
ATOM      6  C   UNL     1       0.690   0.199  -2.278  0.00  0.00    +0.000 A 
ATOM      7  C   UNL     1      -0.649  -0.050  -1.967  0.00  0.00    +0.000 A 
ATOM      8  C   UNL     1      -1.132   0.188  -0.674  0.00  0.00    +0.000 A 
ATOM      9  C   UNL     1      -0.262   0.713   0.291  0.00  0.00    +0.000 A 
ATOM     10  C   UNL     1       1.077   0.958  -0.019  0.00  0.00    +0.000 A 
ENDBRANCH   1   8
BRANCH   2  11
ATOM     11  C   UNL     1      -1.910  -2.354   0.628  0.00  0.00    +0.000 A 
ATOM     12  C   UNL     1      -1.440  -2.435   1.945  0.00  0.00    +0.000 A 
ATOM     13  C   UNL     1      -0.462  -3.368   2.293  0.00  0.00    +0.000 A 
ATOM     14  C   UNL     1       0.047  -4.236   1.329  0.00  0.00    +0.000 A 
ATOM     15  C   UNL     1      -0.432  -4.181   0.021  0.00  0.00    +0.000 A 
ATOM     16  C   UNL     1      -1.412  -3.250  -0.328  0.00  0.00    +0.000 A 
ENDBRANCH   2  11
TORSDOF 2
