REMARK  Name = *****
REMARK  5 active torsions:
REMARK  status: ('A' for Active; 'I' for Inactive)
REMARK    1  A    between atoms: C_1  and  C_2
REMARK    2  A    between atoms: C_7  and  C_8
REMARK    3  A    between atoms: C_8  and  S_9
REMARK    4  A    between atoms: S_9  and  C_10
REMARK    5  A    between atoms: C_15  and  C_16
REMARK                            x       y       z     vdW  Elec       q    Type
REMARK                         _______ _______ _______ _____ _____    ______ ____
ROOT
ATOM      1  C   UNL     1       1.333  -2.298  -0.297  0.00  0.00    +0.000 C 
ENDROOT
BRANCH   1   8
ATOM      2  C   UNL     1      -0.494  -1.531   1.986  0.00  0.00    +0.000 C 
ATOM      3  C   UNL     1      -0.236  -0.608   0.826  0.00  0.00    +0.000 A 
ATOM      4  C   UNL     1      -0.867   0.648   0.806  0.00  0.00    +0.000 A 
ATOM      5  C   UNL     1      -0.657   1.540  -0.245  0.00  0.00    +0.000 A 
ATOM      6  C   UNL     1       0.190   1.192  -1.291  0.00  0.00    +0.000 A 
ATOM      7  C   UNL     1       0.822  -0.050  -1.288  0.00  0.00    +0.000 A 
ATOM      8  C   UNL     1       0.614  -0.969  -0.242  0.00  0.00    +0.000 A 
ENDBRANCH   1   8
BRANCH   1   9
ATOM      9  S   UNL     1       2.952  -2.224   0.538  0.00  0.00    +0.000 S 
BRANCH   9  10
ATOM     10  C   UNL     1       3.506  -3.890   0.191  0.00  0.00    +0.000 A 
ATOM     11  C   UNL     1       4.255  -4.094  -0.978  0.00  0.00    +0.000 A 
ATOM     12  C   UNL     1       4.714  -5.366  -1.316  0.00  0.00    +0.000 A 
ATOM     13  C   UNL     1       4.431  -6.447  -0.487  0.00  0.00    +0.000 A 
ATOM     14  C   UNL     1       3.696  -6.254   0.683  0.00  0.00    +0.000 A 
ATOM     15  C   UNL     1       3.230  -4.977   1.041  0.00  0.00    +0.000 A 
ATOM     16  C   UNL     1       2.453  -4.820   2.320  0.00  0.00    +0.000 C 
ENDBRANCH   9  10
ENDBRANCH   1   9
TORSDOF 3
