REMARK  Name = *****
REMARK  5 active torsions:
REMARK  status: ('A' for Active; 'I' for Inactive)
REMARK    1  A    between atoms: C_1  and  C_2
REMARK    2  A    between atoms: C_3  and  O_9
REMARK    3  A    between atoms: C_4  and  C_8
REMARK    4  A    between atoms: O_9  and  C_10
REMARK    5  A    between atoms: C_10  and  C_12
REMARK                            x       y       z     vdW  Elec       q    Type
REMARK                         _______ _______ _______ _____ _____    ______ ____
ROOT
ATOM      1  O   UNL     1       1.045   2.945   1.559  0.00  0.00    +0.000 OA
ENDROOT
BRANCH   1   4
ATOM      2  C   UNL     1       3.530   1.815   2.456  0.00  0.00    +0.000 C 
ATOM      3  C   UNL     1       2.337   0.975   2.106  0.00  0.00    +0.000 A 
ATOM      4  C   UNL     1       1.145   1.549   1.637  0.00  0.00    +0.000 A 
ATOM      5  C   UNL     1       0.019   0.772   1.322  0.00  0.00    +0.000 A 
ATOM      6  C   UNL     1       0.123  -0.620   1.425  0.00  0.00    +0.000 A 
ATOM      7  C   UNL     1       1.312  -1.211   1.857  0.00  0.00    +0.000 A 
ATOM      8  C   UNL     1       2.411  -0.420   2.195  0.00  0.00    +0.000 A 
ATOM      9  C   UNL     1      -1.257   1.400   0.845  0.00  0.00    +0.000 C 
ENDBRANCH   1   4
BRANCH   1  10
ATOM     10  C   UNL     1       1.449   3.464   0.331  0.00  0.00    +0.000 C 
ATOM     11  O   UNL     1       1.863   2.831  -0.630  0.00  0.00    +0.000 OA
BRANCH  10  12
ATOM     12  C   UNL     1       1.269   4.973   0.366  0.00  0.00    +0.000 C 
ATOM     13  C   UNL     1      -0.199   5.323   0.107  0.00  0.00    +0.000 C 
ATOM     14  C   UNL     1      -0.420   6.833   0.065  0.00  0.00    +0.000 C 
ATOM     15  C   UNL     1       0.506   7.513  -0.940  0.00  0.00    +0.000 C 
ATOM     16  C   UNL     1       1.969   7.167  -0.680  0.00  0.00    +0.000 C 
ATOM     17  C   UNL     1       2.191   5.657  -0.651  0.00  0.00    +0.000 C 
ENDBRANCH  10  12
ENDBRANCH   1  10
TORSDOF 3
