REMARK  Name = *****
REMARK  2 active torsions:
REMARK  status: ('A' for Active; 'I' for Inactive)
REMARK    1  A    between atoms: C_3  and  C_8
REMARK    2  A    between atoms: N_9  and  C_10
REMARK                            x       y       z     vdW  Elec       q    Type
REMARK                         _______ _______ _______ _____ _____    ______ ____
ROOT
ATOM      1  C   UNL     1       2.322   2.621   0.137  0.00  0.00    +0.000 C 
ATOM      2  N   UNL     1       1.794   3.692  -0.365  0.00  0.00    +0.000 NA
ENDROOT
BRANCH   1   5
ATOM      3  C   UNL     1       1.638  -1.046   0.597  0.00  0.00    +0.000 A 
ATOM      4  C   UNL     1       2.270   0.198   0.634  0.00  0.00    +0.000 A 
ATOM      5  C   UNL     1       1.634   1.317   0.086  0.00  0.00    +0.000 A 
ATOM      6  C   UNL     1       0.370   1.198  -0.499  0.00  0.00    +0.000 A 
ATOM      7  C   UNL     1      -0.252  -0.047  -0.531  0.00  0.00    +0.000 A 
ATOM      8  C   UNL     1       0.375  -1.168   0.014  0.00  0.00    +0.000 A 
ATOM      9 CL   UNL     1      -1.809  -0.207  -1.246  0.00  0.00    +0.000 Cl
ENDBRANCH   1   5
BRANCH   2  10
ATOM     10  C   UNL     1       2.552   4.865  -0.250  0.00  0.00    +0.000 A 
ATOM     11  C   UNL     1       3.549   5.161  -1.182  0.00  0.00    +0.000 A 
ATOM     12  C   UNL     1       4.283   6.340  -1.061  0.00  0.00    +0.000 A 
ATOM     13  C   UNL     1       4.024   7.235  -0.024  0.00  0.00    +0.000 A 
ATOM     14  C   UNL     1       3.018   6.951   0.898  0.00  0.00    +0.000 A 
ATOM     15  C   UNL     1       2.282   5.770   0.780  0.00  0.00    +0.000 A 
ATOM     16 CL   UNL     1       5.521   6.695  -2.203  0.00  0.00    +0.000 Cl
ENDBRANCH   2  10
TORSDOF 2
