REMARK  Name = *****
REMARK  3 active torsions:
REMARK  status: ('A' for Active; 'I' for Inactive)
REMARK    1  A    between atoms: C_2  and  C_7
REMARK    2  A    between atoms: C_7  and  C_8
REMARK    3  A    between atoms: C_8  and  C_9
REMARK                            x       y       z     vdW  Elec       q    Type
REMARK                         _______ _______ _______ _____ _____    ______ ____
ROOT
ATOM      1  C   UNL     1       1.353  -1.851  -1.149  0.00  0.00    +0.000 C 
ENDROOT
BRANCH   1   3
ATOM      2  C   UNL     1      -0.815  -0.839  -0.237  0.00  0.00    +0.000 C 
ATOM      3  C   UNL     1       0.696  -0.999  -0.058  0.00  0.00    +0.000 C 
ATOM      4  S   UNL     1       1.360   0.689  -0.101  0.00  0.00    +0.000 S 
ATOM      5  S   UNL     1      -0.141   1.504   1.022  0.00  0.00    +0.000 S 
ATOM      6  C   UNL     1      -1.344   0.279   0.631  0.00  0.00    +0.000 C 
ATOM      7  O   UNL     1      -2.510   0.365   0.993  0.00  0.00    +0.000 OA
ENDBRANCH   1   3
BRANCH   1   8
ATOM      8  C   UNL     1       0.894  -3.312  -1.100  0.00  0.00    +0.000 C 
BRANCH   8   9
ATOM      9  C   UNL     1       1.585  -4.146  -2.149  0.00  0.00    +0.000 A 
ATOM     10  C   UNL     1       2.787  -4.805  -1.857  0.00  0.00    +0.000 A 
ATOM     11  C   UNL     1       3.435  -5.560  -2.836  0.00  0.00    +0.000 A 
ATOM     12  C   UNL     1       2.891  -5.660  -4.115  0.00  0.00    +0.000 A 
ATOM     13  C   UNL     1       1.700  -5.003  -4.418  0.00  0.00    +0.000 A 
ATOM     14  C   UNL     1       1.051  -4.247  -3.441  0.00  0.00    +0.000 A 
ENDBRANCH   8   9
ENDBRANCH   1   8
TORSDOF 3
