REMARK  Name = *****
REMARK  5 active torsions:
REMARK  status: ('A' for Active; 'I' for Inactive)
REMARK    1  A    between atoms: C_1  and  C_2
REMARK    2  A    between atoms: C_2  and  C_3
REMARK    3  A    between atoms: C_2  and  O_9
REMARK    4  A    between atoms: O_9  and  C_10
REMARK    5  A    between atoms: C_10  and  C_11
REMARK                            x       y       z     vdW  Elec       q    Type
REMARK                         _______ _______ _______ _____ _____    ______ ____
ROOT
ATOM      1  C   UNL     1       3.052  -0.105   1.262  0.00  0.00    +0.000 C 
ATOM      2  C   UNL     1       2.405   0.128  -0.102  0.00  0.00    +0.000 C 
ENDROOT
BRANCH   2   3
ATOM      3  C   UNL     1       0.893   0.128   0.025  0.00  0.00    +0.000 A 
ATOM      4  C   UNL     1       0.174  -1.073   0.135  0.00  0.00    +0.000 A 
ATOM      5  C   UNL     1      -1.215  -1.061   0.261  0.00  0.00    +0.000 A 
ATOM      6  C   UNL     1      -1.903   0.151   0.284  0.00  0.00    +0.000 A 
ATOM      7  C   UNL     1      -1.202   1.351   0.181  0.00  0.00    +0.000 A 
ATOM      8  C   UNL     1       0.189   1.341   0.054  0.00  0.00    +0.000 A 
ENDBRANCH   2   3
BRANCH   2   9
ATOM      9  O   UNL     1       2.862  -0.912  -0.974  0.00  0.00    +0.000 OA
BRANCH   9  10
ATOM     10  C   UNL     1       2.681  -0.594  -2.354  0.00  0.00    +0.000 C 
BRANCH  10  11
ATOM     11  C   UNL     1       3.213  -1.717  -3.209  0.00  0.00    +0.000 A 
ATOM     12  C   UNL     1       2.504  -2.142  -4.342  0.00  0.00    +0.000 A 
ATOM     13  C   UNL     1       3.011  -3.155  -5.159  0.00  0.00    +0.000 A 
ATOM     14  C   UNL     1       4.236  -3.748  -4.858  0.00  0.00    +0.000 A 
ATOM     15  C   UNL     1       4.955  -3.329  -3.741  0.00  0.00    +0.000 A 
ATOM     16  C   UNL     1       4.449  -2.316  -2.924  0.00  0.00    +0.000 A 
ENDBRANCH  10  11
ENDBRANCH   9  10
ENDBRANCH   2   9
TORSDOF 4
