REMARK  Name = *****
REMARK  3 active torsions:
REMARK  status: ('A' for Active; 'I' for Inactive)
REMARK    1  A    between atoms: C_1  and  S_2
REMARK    2  A    between atoms: S_2  and  C_16
REMARK    3  A    between atoms: C_10  and  C_11
REMARK                            x       y       z     vdW  Elec       q    Type
REMARK                         _______ _______ _______ _____ _____    ______ ____
ROOT
ATOM      1  C   UNL     1       0.826   0.006   0.187  0.00  0.00    +0.000 C 
ATOM      2  S   UNL     1       2.566  -0.027   0.271  0.00  0.00    +0.000 S 
ATOM      3  C   UNL     1       3.220  -1.303  -0.667  0.00  0.00    +0.000 A 
ATOM      4  C   UNL     1       3.054  -2.655  -0.470  0.00  0.00    +0.000 A 
ATOM      5  C   UNL     1       3.691  -3.505  -1.374  0.00  0.00    +0.000 A 
ATOM      6  C   UNL     1       4.460  -2.981  -2.430  0.00  0.00    +0.000 A 
ATOM      7  C   UNL     1       4.604  -1.597  -2.597  0.00  0.00    +0.000 A 
ATOM      8  C   UNL     1       3.972  -0.753  -1.700  0.00  0.00    +0.000 A 
ATOM      9  C   UNL     1       3.978   0.711  -1.673  0.00  0.00    +0.000 C 
ATOM     10  C   UNL     1       3.260   1.242  -0.663  0.00  0.00    +0.000 C 
ATOM     11  C   UNL     1       3.200  -0.035   1.895  0.00  0.00    +0.000 C 
ENDROOT
BRANCH  10  12
ATOM     12  C   UNL     1       3.091   2.632  -0.396  0.00  0.00    +0.000 A 
ATOM     13  C   UNL     1       2.375   3.244   0.625  0.00  0.00    +0.000 A 
ATOM     14  C   UNL     1       2.419   4.669   0.592  0.00  0.00    +0.000 A 
ATOM     15  C   UNL     1       3.171   5.130  -0.459  0.00  0.00    +0.000 A 
ATOM     16  S   UNL     1       3.813   3.855  -1.390  0.00  0.00    +0.000 S 
ENDBRANCH  10  12
TORSDOF 1
