REMARK  Name = *****
REMARK  4 active torsions:
REMARK  status: ('A' for Active; 'I' for Inactive)
REMARK    1  A    between atoms: C_1  and  C_2
REMARK    2  A    between atoms: C_2  and  C_3
REMARK    3  A    between atoms: C_8  and  C_9
REMARK    4  A    between atoms: C_10  and  C_11
REMARK                            x       y       z     vdW  Elec       q    Type
REMARK                         _______ _______ _______ _____ _____    ______ ____
ROOT
ATOM      1  C   UNL     1       2.974   0.941  -1.182  0.00  0.00    +0.000 A 
ATOM      2  C   UNL     1       2.754   2.331  -1.200  0.00  0.00    +0.000 A 
ATOM      3  C   UNL     1       3.270   3.126  -2.223  0.00  0.00    +0.000 A 
ATOM      4  C   UNL     1       4.018   2.548  -3.242  0.00  0.00    +0.000 A 
ATOM      5  C   UNL     1       4.253   1.173  -3.237  0.00  0.00    +0.000 A 
ATOM      6  C   UNL     1       3.741   0.360  -2.212  0.00  0.00    +0.000 A 
ENDROOT
BRANCH   1   8
ATOM      7  C   UNL     1       3.411   0.004   1.111  0.00  0.00    +0.000 C 
ATOM      8  C   UNL     1       2.413   0.138  -0.030  0.00  0.00    +0.000 C 
ENDBRANCH   1   8
BRANCH   6   9
ATOM      9  C   UNL     1       4.009  -1.083  -2.259  0.00  0.00    +0.000 C 
ATOM     10  C   UNL     1       5.250  -1.579  -2.128  0.00  0.00    +0.000 C 
BRANCH  10  11
ATOM     11  C   UNL     1       5.558  -3.015  -2.143  0.00  0.00    +0.000 A 
ATOM     12  C   UNL     1       4.935  -3.903  -3.029  0.00  0.00    +0.000 A 
ATOM     13  C   UNL     1       5.276  -5.258  -3.034  0.00  0.00    +0.000 A 
ATOM     14  C   UNL     1       6.249  -5.736  -2.159  0.00  0.00    +0.000 A 
ATOM     15  C   UNL     1       6.887  -4.860  -1.284  0.00  0.00    +0.000 A 
ATOM     16  C   UNL     1       6.547  -3.505  -1.280  0.00  0.00    +0.000 A 
ENDBRANCH  10  11
ENDBRANCH   6   9
TORSDOF 3
