REMARK  Name = *****
REMARK  3 active torsions:
REMARK  status: ('A' for Active; 'I' for Inactive)
REMARK    1  A    between atoms: C_4  and  C_16
REMARK    2  A    between atoms: C_5  and  C_7
REMARK    3  A    between atoms: C_8  and  C_9
REMARK                            x       y       z     vdW  Elec       q    Type
REMARK                         _______ _______ _______ _____ _____    ______ ____
ROOT
ATOM      1  C   UNL     1      -0.585   2.455   0.108  0.00  0.00    +0.000 C 
ATOM      2  C   UNL     1      -1.795   2.659  -0.436  0.00  0.00    +0.000 C 
ENDROOT
BRANCH   2   3
ATOM      3  C   UNL     1      -2.496   3.945  -0.362  0.00  0.00    +0.000 A 
ATOM      4  C   UNL     1      -1.863   5.152  -0.693  0.00  0.00    +0.000 A 
ATOM      5  C   UNL     1      -2.568   6.356  -0.637  0.00  0.00    +0.000 A 
ATOM      6  C   UNL     1      -3.905   6.351  -0.256  0.00  0.00    +0.000 A 
ATOM      7  C   UNL     1      -4.552   5.164   0.065  0.00  0.00    +0.000 A 
ATOM      8  C   UNL     1      -3.848   3.959   0.007  0.00  0.00    +0.000 A 
ATOM      9  F   UNL     1      -4.580   7.507  -0.203  0.00  0.00    +0.000 F 
ENDBRANCH   2   3
BRANCH   1  14
ATOM     10  C   UNL     1       2.089  -0.058  -0.672  0.00  0.00    +0.000 A 
ATOM     11  C   UNL     1       1.578  -1.232  -0.126  0.00  0.00    +0.000 A 
ATOM     12  C   UNL     1       0.338  -1.219   0.513  0.00  0.00    +0.000 A 
ATOM     13  C   UNL     1      -0.402  -0.030   0.608  0.00  0.00    +0.000 A 
ATOM     14  C   UNL     1       0.106   1.158   0.048  0.00  0.00    +0.000 A 
ATOM     15  C   UNL     1       1.360   1.130  -0.583  0.00  0.00    +0.000 A 
BRANCH  13  16
ATOM     16  C   UNL     1      -1.662  -0.067   1.296  0.00  0.00    +0.000 C 
ATOM     17  N   UNL     1      -2.684  -0.125   1.846  0.00  0.00    +0.000 NA
ENDBRANCH  13  16
ENDBRANCH   1  14
TORSDOF 3
