REMARK  Name = *****
REMARK  4 active torsions:
REMARK  status: ('A' for Active; 'I' for Inactive)
REMARK    1  A    between atoms: C_4  and  C_7
REMARK    2  A    between atoms: C_7  and  C_8
REMARK    3  A    between atoms: C_8  and  N_9
REMARK    4  A    between atoms: C_8  and  C_11
REMARK                            x       y       z     vdW  Elec       q    Type
REMARK                         _______ _______ _______ _____ _____    ______ ____
ROOT
ATOM      1  C   UNL     1      -3.436  -1.406  -0.319  0.00  0.00    +0.000 C 
ENDROOT
BRANCH   1   2
ATOM      2  C   UNL     1      -3.565  -1.724  -1.794  0.00  0.00    +0.000 A 
ATOM      3  C   UNL     1      -4.283  -2.868  -2.181  0.00  0.00    +0.000 A 
ATOM      4  C   UNL     1      -4.422  -3.204  -3.530  0.00  0.00    +0.000 A 
ATOM      5  C   UNL     1      -3.845  -2.401  -4.510  0.00  0.00    +0.000 A 
ATOM      6  C   UNL     1      -3.127  -1.266  -4.142  0.00  0.00    +0.000 A 
ATOM      7  C   UNL     1      -2.985  -0.929  -2.792  0.00  0.00    +0.000 A 
ENDBRANCH   1   2
BRANCH   1   8
ATOM      8  N   UNL     1      -3.786  -2.350   0.510  0.00  0.00    +0.000 NA
ATOM      9 CL   UNL     1      -3.608  -1.949   2.182  0.00  0.00    +0.000 Cl
ENDBRANCH   1   8
BRANCH   1  10
ATOM     10  C   UNL     1      -2.908  -0.019   0.060  0.00  0.00    +0.000 C 
BRANCH  10  14
ATOM     11  C   UNL     1       1.392   0.467   0.030  0.00  0.00    +0.000 A 
ATOM     12  C   UNL     1       0.845  -0.783   0.310  0.00  0.00    +0.000 A 
ATOM     13  C   UNL     1      -0.541  -0.956   0.323  0.00  0.00    +0.000 A 
ATOM     14  C   UNL     1      -1.398   0.117   0.042  0.00  0.00    +0.000 A 
ATOM     15  C   UNL     1      -0.832   1.376  -0.218  0.00  0.00    +0.000 A 
ATOM     16  C   UNL     1       0.553   1.548  -0.230  0.00  0.00    +0.000 A 
ENDBRANCH  10  14
ENDBRANCH   1  10
TORSDOF 4
