REMARK  Name = *****
REMARK  4 active torsions:
REMARK  status: ('A' for Active; 'I' for Inactive)
REMARK    1  A    between atoms: C_1  and  C_2
REMARK    2  A    between atoms: C_7  and  O_8
REMARK    3  A    between atoms: O_8  and  C_9
REMARK    4  A    between atoms: C_9  and  C_10
REMARK                            x       y       z     vdW  Elec       q    Type
REMARK                         _______ _______ _______ _____ _____    ______ ____
ROOT
ATOM      1  O   UNL     1       1.628  -2.053  -0.615  0.00  0.00    +0.000 OA
ENDROOT
BRANCH   1   8
ATOM      2  C   UNL     1       2.603   0.668  -0.539  0.00  0.00    +0.000 C 
ATOM      3  C   UNL     1       1.172   0.290  -0.294  0.00  0.00    +0.000 A 
ATOM      4  C   UNL     1       0.230   1.282   0.013  0.00  0.00    +0.000 A 
ATOM      5  C   UNL     1      -1.108   0.948   0.240  0.00  0.00    +0.000 A 
ATOM      6  C   UNL     1      -1.521  -0.381   0.164  0.00  0.00    +0.000 A 
ATOM      7  C   UNL     1      -0.593  -1.378  -0.124  0.00  0.00    +0.000 A 
ATOM      8  C   UNL     1       0.749  -1.044  -0.322  0.00  0.00    +0.000 A 
ENDBRANCH   1   8
BRANCH   1   9
ATOM      9  C   UNL     1       2.184  -2.592   0.590  0.00  0.00    +0.000 C 
BRANCH   9  10
ATOM     10  C   UNL     1       2.677  -3.989   0.305  0.00  0.00    +0.000 A 
ATOM     11  C   UNL     1       1.762  -5.044   0.175  0.00  0.00    +0.000 A 
ATOM     12  C   UNL     1       2.207  -6.340  -0.089  0.00  0.00    +0.000 A 
ATOM     13  C   UNL     1       3.570  -6.594  -0.231  0.00  0.00    +0.000 A 
ATOM     14  C   UNL     1       4.488  -5.551  -0.116  0.00  0.00    +0.000 A 
ATOM     15  C   UNL     1       4.045  -4.253   0.148  0.00  0.00    +0.000 A 
ENDBRANCH   9  10
ENDBRANCH   1   9
TORSDOF 3
