REMARK  Name = *****
REMARK  2 active torsions:
REMARK  status: ('A' for Active; 'I' for Inactive)
REMARK    1  A    between atoms: C_1  and  C_7
REMARK    2  A    between atoms: C_7  and  C_8
REMARK                            x       y       z     vdW  Elec       q    Type
REMARK                         _______ _______ _______ _____ _____    ______ ____
ROOT
ATOM      1  C   UNL     1       2.855   0.251   1.392  0.00  0.00    +0.000 C 
ENDROOT
BRANCH   1   2
ATOM      2  C   UNL     1       2.192  -0.189   0.067  0.00  0.00    +0.000 C 
ATOM      3  S   UNL     1       2.703   0.819  -1.357  0.00  0.00    +0.000 S 
ATOM      4  C   UNL     1       1.540   0.197  -2.602  0.00  0.00    +0.000 C 
ATOM      5  C   UNL     1       1.687  -1.296  -2.859  0.00  0.00    +0.000 C 
ATOM      6  C   UNL     1       1.297  -2.162  -1.670  0.00  0.00    +0.000 C 
ATOM      7  S   UNL     1       2.411  -1.968  -0.253  0.00  0.00    +0.000 S 
ENDBRANCH   1   2
BRANCH   1   8
ATOM      8  C   UNL     1       4.368   0.550   1.419  0.00  0.00    +0.000 C 
ATOM      9  S   UNL     1       5.507  -0.832   1.082  0.00  0.00    +0.000 S 
ATOM     10  C   UNL     1       5.182  -1.883   2.523  0.00  0.00    +0.000 C 
ATOM     11  C   UNL     1       5.533  -1.198   3.836  0.00  0.00    +0.000 C 
ATOM     12  C   UNL     1       4.652  -0.001   4.163  0.00  0.00    +0.000 C 
ATOM     13  S   UNL     1       4.844   1.373   2.993  0.00  0.00    +0.000 S 
ENDBRANCH   1   8
TORSDOF 2
