REMARK  Name = *****
REMARK  4 active torsions:
REMARK  status: ('A' for Active; 'I' for Inactive)
REMARK    1  A    between atoms: C_1  and  C_2
REMARK    2  A    between atoms: C_3  and  C_15
REMARK    3  A    between atoms: C_5  and  C_7
REMARK    4  A    between atoms: C_8  and  C_9
REMARK                            x       y       z     vdW  Elec       q    Type
REMARK                         _______ _______ _______ _____ _____    ______ ____
ROOT
ATOM      1  C   UNL     1       5.769  -1.841   0.029  0.00  0.00    +0.000 C 
ATOM      2  C   UNL     1       6.720  -2.575   0.013  0.00  0.00    +0.000 C 
ENDROOT
BRANCH   1   7
ATOM      3  C   UNL     1       0.985  -0.095   0.075  0.00  0.00    +0.000 C 
ATOM      4  C   UNL     1       2.470  -0.119   0.067  0.00  0.00    +0.000 C 
ATOM      5  C   UNL     1       3.354   0.898   0.072  0.00  0.00    +0.000 C 
ATOM      6  C   UNL     1       4.699   0.354   0.059  0.00  0.00    +0.000 C 
ATOM      7  C   UNL     1       4.645  -0.985   0.046  0.00  0.00    +0.000 C 
ATOM      8  C   UNL     1       3.212  -1.435   0.050  0.00  0.00    +0.000 C 
ATOM      9  C   UNL     1       3.126   2.368   0.087  0.00  0.00    +0.000 C 
ENDBRANCH   1   7
BRANCH   2  10
ATOM     10  C   UNL     1       7.850  -3.451  -0.007  0.00  0.00    +0.000 A 
ATOM     11  C   UNL     1       9.140  -2.927  -0.121  0.00  0.00    +0.000 A 
ATOM     12  C   UNL     1      10.243  -3.784  -0.142  0.00  0.00    +0.000 A 
ATOM     13  C   UNL     1      10.057  -5.163  -0.050  0.00  0.00    +0.000 A 
ATOM     14  C   UNL     1       8.770  -5.688   0.064  0.00  0.00    +0.000 A 
ATOM     15  C   UNL     1       7.666  -4.833   0.085  0.00  0.00    +0.000 A 
ENDBRANCH   2  10
TORSDOF 2
