REMARK  Name = *****
REMARK  3 active torsions:
REMARK  status: ('A' for Active; 'I' for Inactive)
REMARK    1  A    between atoms: C_4  and  O_7
REMARK    2  A    between atoms: O_7  and  C_8
REMARK    3  A    between atoms: C_8  and  C_9
REMARK                            x       y       z     vdW  Elec       q    Type
REMARK                         _______ _______ _______ _____ _____    ______ ____
ROOT
ATOM      1  C   UNL     1       2.972  -2.328  -0.298  0.00  0.00    +0.000 C 
ATOM      2  F   UNL     1       2.730  -2.534   1.026  0.00  0.00    +0.000 F 
ATOM      3  F   UNL     1       2.225  -3.245  -0.970  0.00  0.00    +0.000 F 
ENDROOT
BRANCH   1   4
ATOM      4  C   UNL     1       4.439  -2.402  -0.649  0.00  0.00    +0.000 A 
ATOM      5  C   UNL     1       5.423  -2.170   0.324  0.00  0.00    +0.000 A 
ATOM      6  C   UNL     1       6.778  -2.229  -0.009  0.00  0.00    +0.000 A 
ATOM      7  C   UNL     1       7.163  -2.515  -1.318  0.00  0.00    +0.000 A 
ATOM      8  C   UNL     1       6.196  -2.740  -2.296  0.00  0.00    +0.000 A 
ATOM      9  C   UNL     1       4.841  -2.682  -1.965  0.00  0.00    +0.000 A 
ENDBRANCH   1   4
BRANCH   1  10
ATOM     10  O   UNL     1       2.489  -1.037  -0.662  0.00  0.00    +0.000 OA
BRANCH  10  14
ATOM     11  C   UNL     1      -1.396   0.576  -0.083  0.00  0.00    +0.000 C 
ATOM     12  C   UNL     1      -1.189  -0.886   0.297  0.00  0.00    +0.000 C 
ATOM     13  C   UNL     1       0.089  -1.455  -0.312  0.00  0.00    +0.000 C 
ATOM     14  C   UNL     1       1.322  -0.613   0.040  0.00  0.00    +0.000 C 
ATOM     15  C   UNL     1       1.094   0.855  -0.343  0.00  0.00    +0.000 C 
ATOM     16  C   UNL     1      -0.179   1.422   0.275  0.00  0.00    +0.000 C 
ENDBRANCH  10  14
ENDBRANCH   1  10
TORSDOF 3
