REMARK  Name = *****
REMARK  5 active torsions:
REMARK  status: ('A' for Active; 'I' for Inactive)
REMARK    1  A    between atoms: C_4  and  C_7
REMARK    2  A    between atoms: C_7  and  C_8
REMARK    3  A    between atoms: C_7  and  S_16
REMARK    4  A    between atoms: C_8  and  C_10
REMARK    5  A    between atoms: S_16  and  C_17
REMARK                            x       y       z     vdW  Elec       q    Type
REMARK                         _______ _______ _______ _____ _____    ______ ____
ROOT
ATOM      1  C   UNL     1      -3.006   0.398  -0.170  0.00  0.00    +0.000 C 
ENDROOT
BRANCH   1   5
ATOM      2  C   UNL     1       1.140  -0.475   0.735  0.00  0.00    +0.000 A 
ATOM      3  C   UNL     1       0.293   0.023   1.723  0.00  0.00    +0.000 A 
ATOM      4  C   UNL     1      -1.042   0.301   1.425  0.00  0.00    +0.000 A 
ATOM      5  C   UNL     1      -1.546   0.093   0.129  0.00  0.00    +0.000 A 
ATOM      6  C   UNL     1      -0.684  -0.425  -0.851  0.00  0.00    +0.000 A 
ATOM      7  C   UNL     1       0.651  -0.702  -0.549  0.00  0.00    +0.000 A 
ENDBRANCH   1   5
BRANCH   1   8
ATOM      8  C   UNL     1      -3.209   1.082  -1.529  0.00  0.00    +0.000 C 
ATOM      9  O   UNL     1      -3.436   0.458  -2.567  0.00  0.00    +0.000 OA
BRANCH   8  10
ATOM     10  C   UNL     1      -3.142   2.573  -1.603  0.00  0.00    +0.000 A 
ATOM     11  C   UNL     1      -2.473   3.351  -0.651  0.00  0.00    +0.000 A 
ATOM     12  C   UNL     1      -2.452   4.744  -0.772  0.00  0.00    +0.000 A 
ATOM     13  C   UNL     1      -3.094   5.365  -1.842  0.00  0.00    +0.000 A 
ATOM     14  C   UNL     1      -3.755   4.597  -2.799  0.00  0.00    +0.000 A 
ATOM     15  C   UNL     1      -3.776   3.206  -2.682  0.00  0.00    +0.000 A 
ENDBRANCH   8  10
ENDBRANCH   1   8
BRANCH   1  16
ATOM     16  S   UNL     1      -3.996  -1.149  -0.073  0.00  0.00    +0.000 S 
BRANCH  16  17
ATOM     17  C   UNL     1      -5.522  -0.436  -0.176  0.00  0.00    +0.000 C 
ATOM     18  N   UNL     1      -6.551   0.096  -0.215  0.00  0.00    +0.000 NA
ENDBRANCH  16  17
ENDBRANCH   1  16
TORSDOF 5
