REMARK  Name = *****
REMARK  4 active torsions:
REMARK  status: ('A' for Active; 'I' for Inactive)
REMARK    1  A    between atoms: C_1  and  C_2
REMARK    2  A    between atoms: C_5  and  C_8
REMARK    3  A    between atoms: C_8  and  C_9
REMARK    4  A    between atoms: C_16  and  C_18
REMARK                            x       y       z     vdW  Elec       q    Type
REMARK                         _______ _______ _______ _____ _____    ______ ____
ROOT
ATOM      1  C   UNL     1      -4.496   1.247   0.365  0.00  0.00    +0.000 A 
ATOM      2  N   UNL     1      -5.117   1.933  -0.579  0.00  0.00    +0.000 NA
ATOM      3  C   UNL     1      -5.614   3.023   0.091  0.00  0.00    +0.000 A 
ATOM      4  C   UNL     1      -5.279   2.946   1.432  0.00  0.00    +0.000 A 
ATOM      5  O   UNL     1      -4.565   1.799   1.620  0.00  0.00    +0.000 OA
ATOM      6  C   UNL     1      -5.624   3.890   2.389  0.00  0.00    +0.000 A 
ATOM      7  C   UNL     1      -6.368   4.983   1.924  0.00  0.00    +0.000 A 
ATOM      8  C   UNL     1      -6.747   5.102   0.574  0.00  0.00    +0.000 A 
ATOM      9  C   UNL     1      -6.359   4.121  -0.360  0.00  0.00    +0.000 A 
ATOM     10  C   UNL     1      -7.515   6.308   0.113  0.00  0.00    +0.000 C 
ENDROOT
BRANCH   1  11
ATOM     11  C   UNL     1      -3.764  -0.043   0.246  0.00  0.00    +0.000 C 
BRANCH  11  16
ATOM     12  C   UNL     1       1.998   0.714  -0.211  0.00  0.00    +0.000 C 
ATOM     13  C   UNL     1       0.519   0.487  -0.100  0.00  0.00    +0.000 A 
ATOM     14  C   UNL     1      -0.055   0.141   1.128  0.00  0.00    +0.000 A 
ATOM     15  C   UNL     1      -1.436  -0.036   1.240  0.00  0.00    +0.000 A 
ATOM     16  C   UNL     1      -2.268   0.136   0.126  0.00  0.00    +0.000 A 
ATOM     17  C   UNL     1      -1.694   0.506  -1.097  0.00  0.00    +0.000 A 
ATOM     18  C   UNL     1      -0.313   0.683  -1.208  0.00  0.00    +0.000 A 
ENDBRANCH  11  16
ENDBRANCH   1  11
TORSDOF 2
