REMARK  Name = *****
REMARK  4 active torsions:
REMARK  status: ('A' for Active; 'I' for Inactive)
REMARK    1  A    between atoms: C_4  and  S_9
REMARK    2  A    between atoms: C_5  and  C_7
REMARK    3  A    between atoms: S_9  and  C_10
REMARK    4  A    between atoms: C_10  and  C_12
REMARK                            x       y       z     vdW  Elec       q    Type
REMARK                         _______ _______ _______ _____ _____    ______ ____
ROOT
ATOM      1  S   UNL     1      -3.140   0.653   1.125  0.00  0.00    +0.000 S 
ENDROOT
BRANCH   1   5
ATOM      2  C   UNL     1       1.133  -0.092  -0.417  0.00  0.00    +0.000 A 
ATOM      3  C   UNL     1       0.148   0.460  -1.229  0.00  0.00    +0.000 A 
ATOM      4  C   UNL     1      -1.140   0.662  -0.727  0.00  0.00    +0.000 A 
ATOM      5  C   UNL     1      -1.465   0.307   0.594  0.00  0.00    +0.000 A 
ATOM      6  C   UNL     1      -0.463  -0.245   1.409  0.00  0.00    +0.000 A 
ATOM      7  C   UNL     1       0.831  -0.442   0.898  0.00  0.00    +0.000 A 
BRANCH   6   8
ATOM      8  C   UNL     1      -0.708  -0.635   2.818  0.00  0.00    +0.000 C 
ATOM      9  O   UNL     1       0.201  -0.997   3.558  0.00  0.00    +0.000 OA
ENDBRANCH   6   8
ENDBRANCH   1   5
BRANCH   1  10
ATOM     10  C   UNL     1      -3.870  -0.948   1.010  0.00  0.00    +0.000 C 
ATOM     11  O   UNL     1      -3.183  -1.959   1.086  0.00  0.00    +0.000 OA
BRANCH  10  12
ATOM     12  C   UNL     1      -5.353  -1.050   0.846  0.00  0.00    +0.000 A 
ATOM     13  C   UNL     1      -6.209   0.059   0.783  0.00  0.00    +0.000 A 
ATOM     14  C   UNL     1      -7.584  -0.131   0.628  0.00  0.00    +0.000 A 
ATOM     15  C   UNL     1      -8.123  -1.412   0.534  0.00  0.00    +0.000 A 
ATOM     16  C   UNL     1      -7.282  -2.520   0.596  0.00  0.00    +0.000 A 
ATOM     17  C   UNL     1      -5.905  -2.339   0.751  0.00  0.00    +0.000 A 
ATOM     18 CL   UNL     1      -8.627   1.236   0.551  0.00  0.00    +0.000 Cl
ENDBRANCH  10  12
ENDBRANCH   1  10
TORSDOF 4
