REMARK  Name = *****
REMARK  5 active torsions:
REMARK  status: ('A' for Active; 'I' for Inactive)
REMARK    1  A    between atoms: C_1  and  O_2
REMARK    2  A    between atoms: O_2  and  P_3
REMARK    3  A    between atoms: P_3  and  C_5
REMARK    4  A    between atoms: P_3  and  O_11
REMARK    5  A    between atoms: O_11  and  C_12
REMARK                            x       y       z     vdW  Elec       q    Type
REMARK                         _______ _______ _______ _____ _____    ______ ____
ROOT
ATOM      1  P   UNL     1       3.744   1.863  -0.086  0.00  0.00    +0.000 P 
ATOM      2  S   UNL     1       5.290   0.702  -0.401  0.00  0.00    +0.000 S 
ENDROOT
BRANCH   1   3
ATOM      3  C   UNL     1       2.738   2.447  -1.457  0.00  0.00    +0.000 A 
ATOM      4  C   UNL     1       1.546   3.145  -1.201  0.00  0.00    +0.000 A 
ATOM      5  C   UNL     1       0.749   3.606  -2.250  0.00  0.00    +0.000 A 
ATOM      6  C   UNL     1       1.136   3.379  -3.569  0.00  0.00    +0.000 A 
ATOM      7  C   UNL     1       2.318   2.693  -3.839  0.00  0.00    +0.000 A 
ATOM      8  C   UNL     1       3.115   2.230  -2.790  0.00  0.00    +0.000 A 
ENDBRANCH   1   3
BRANCH   1  10
ATOM      9  C   UNL     1       2.045  -0.011   0.612  0.00  0.00    +0.000 C 
ATOM     10  O   UNL     1       2.645   1.229   0.940  0.00  0.00    +0.000 OA
ENDBRANCH   1  10
BRANCH   1  11
ATOM     11  O   UNL     1       4.099   3.255   0.671  0.00  0.00    +0.000 OA
BRANCH  11  12
ATOM     12  C   UNL     1       4.646   3.413   1.912  0.00  0.00    +0.000 A 
ATOM     13  C   UNL     1       4.831   2.390   2.838  0.00  0.00    +0.000 A 
ATOM     14  C   UNL     1       5.398   2.671   4.086  0.00  0.00    +0.000 A 
ATOM     15  C   UNL     1       5.775   3.975   4.403  0.00  0.00    +0.000 A 
ATOM     16  C   UNL     1       5.587   5.003   3.483  0.00  0.00    +0.000 A 
ATOM     17  C   UNL     1       5.021   4.719   2.238  0.00  0.00    +0.000 A 
ATOM     18 CL   UNL     1       6.470   4.316   5.938  0.00  0.00    +0.000 Cl
ENDBRANCH  11  12
ENDBRANCH   1  11
TORSDOF 4
