REMARK  Name = *****
REMARK  2 active torsions:
REMARK  status: ('A' for Active; 'I' for Inactive)
REMARK    1  A    between atoms: C_3  and  C_6
REMARK    2  A    between atoms: C_7  and  C_8
REMARK                            x       y       z     vdW  Elec       q    Type
REMARK                         _______ _______ _______ _____ _____    ______ ____
ROOT
ATOM      1  C   UNL     1       0.009   2.035  -1.247  0.00  0.00    +0.000 C 
ATOM      2  C   UNL     1       0.019   2.751  -2.212  0.00  0.00    +0.000 C 
ENDROOT
BRANCH   2   3
ATOM      3  C   UNL     1       0.031   3.604  -3.360  0.00  0.00    +0.000 A 
ATOM      4  C   UNL     1       1.247   4.011  -3.916  0.00  0.00    +0.000 A 
ATOM      5  C   UNL     1       1.260   4.848  -5.035  0.00  0.00    +0.000 A 
ATOM      6  C   UNL     1       0.056   5.275  -5.594  0.00  0.00    +0.000 A 
ATOM      7  C   UNL     1      -1.161   4.871  -5.044  0.00  0.00    +0.000 A 
ATOM      8  C   UNL     1      -1.172   4.034  -3.924  0.00  0.00    +0.000 A 
ATOM      9  I   UNL     1       0.074   6.521  -7.258  0.00  0.00    +0.000 I 
ENDBRANCH   2   3
BRANCH   1  12
ATOM     10  C   UNL     1       0.710  -1.052  -0.099  0.00  0.00    +0.000 C 
ATOM     11  C   UNL     1       1.159   0.214  -0.081  0.00  0.00    +0.000 C 
ATOM     12  C   UNL     1      -0.002   1.171  -0.063  0.00  0.00    +0.000 C 
ATOM     13  C   UNL     1      -1.170   0.223  -0.096  0.00  0.00    +0.000 C 
ATOM     14  C   UNL     1      -0.732  -1.045  -0.109  0.00  0.00    +0.000 C 
ENDBRANCH   1  12
TORSDOF 2
