REMARK  Name = *****
REMARK  3 active torsions:
REMARK  status: ('A' for Active; 'I' for Inactive)
REMARK    1  A    between atoms: C_4  and  C_7
REMARK    2  A    between atoms: C_7  and  C_8
REMARK    3  A    between atoms: C_9  and  C_10
REMARK                            x       y       z     vdW  Elec       q    Type
REMARK                         _______ _______ _______ _____ _____    ______ ____
ROOT
ATOM      1  C   UNL     1      -3.526  -0.964  -1.155  0.00  0.00    +0.000 C 
ATOM      2  C   UNL     1      -4.825  -0.897  -0.817  0.00  0.00    +0.000 C 
ENDROOT
BRANCH   2   3
ATOM      3  C   UNL     1      -5.558   0.342  -0.563  0.00  0.00    +0.000 A 
ATOM      4  C   UNL     1      -6.004   1.137  -1.625  0.00  0.00    +0.000 A 
ATOM      5  C   UNL     1      -6.699   2.321  -1.371  0.00  0.00    +0.000 A 
ATOM      6  C   UNL     1      -6.953   2.713  -0.057  0.00  0.00    +0.000 A 
ATOM      7  C   UNL     1      -6.513   1.923   1.004  0.00  0.00    +0.000 A 
ATOM      8  C   UNL     1      -5.817   0.739   0.752  0.00  0.00    +0.000 A 
ENDBRANCH   2   3
BRANCH   1   9
ATOM      9  C   UNL     1      -2.571   0.183  -1.342  0.00  0.00    +0.000 C 
BRANCH   9  13
ATOM     10  C   UNL     1       0.705  -0.011   1.461  0.00  0.00    +0.000 A 
ATOM     11  C   UNL     1       0.851  -0.546   0.183  0.00  0.00    +0.000 A 
ATOM     12  C   UNL     1      -0.205  -0.482  -0.728  0.00  0.00    +0.000 A 
ATOM     13  C   UNL     1      -1.417   0.125  -0.368  0.00  0.00    +0.000 A 
ATOM     14  C   UNL     1      -1.555   0.653   0.923  0.00  0.00    +0.000 A 
ATOM     15  C   UNL     1      -0.498   0.587   1.832  0.00  0.00    +0.000 A 
ENDBRANCH   9  13
ENDBRANCH   1   9
TORSDOF 3
