REMARK  Name = *****
REMARK  5 active torsions:
REMARK  status: ('A' for Active; 'I' for Inactive)
REMARK    1  A    between atoms: C_1  and  C_2
REMARK    2  A    between atoms: C_5  and  N_8
REMARK    3  A    between atoms: N_8  and  N_9
REMARK    4  A    between atoms: N_9  and  C_11
REMARK    5  A    between atoms: C_14  and  C_17
REMARK                            x       y       z     vdW  Elec       q    Type
REMARK                         _______ _______ _______ _____ _____    ______ ____
ROOT
ATOM      1  N   UNL     1      -3.201   0.388   0.026  0.00  0.00    +0.000 N 
ATOM      2  H   UNL     1      -3.684  -0.470   0.031  0.00  0.00    +0.000 HD
ENDROOT
BRANCH   1   7
ATOM      3  C   UNL     1       2.497  -0.281  -0.039  0.00  0.00    +0.000 C 
ATOM      4  C   UNL     1       1.011  -0.090  -0.052  0.00  0.00    +0.000 A 
ATOM      5  C   UNL     1       0.456   1.185   0.078  0.00  0.00    +0.000 A 
ATOM      6  C   UNL     1      -0.934   1.362   0.098  0.00  0.00    +0.000 A 
ATOM      7  C   UNL     1      -1.803   0.274  -0.006  0.00  0.00    +0.000 A 
ATOM      8  C   UNL     1      -1.234  -1.005  -0.111  0.00  0.00    +0.000 A 
ATOM      9  C   UNL     1       0.153  -1.188  -0.132  0.00  0.00    +0.000 A 
ENDBRANCH   1   7
BRANCH   1  10
ATOM     10  N   UNL     1      -4.035   1.537   0.053  0.00  0.00    +0.000 N 
ATOM     11  O   UNL     1      -3.588   2.667   0.028  0.00  0.00    +0.000 OA
BRANCH  10  12
ATOM     12  C   UNL     1      -5.475   1.374   0.058  0.00  0.00    +0.000 A 
ATOM     13  C   UNL     1      -6.066   0.381   0.846  0.00  0.00    +0.000 A 
ATOM     14  C   UNL     1      -7.454   0.228   0.833  0.00  0.00    +0.000 A 
ATOM     15  C   UNL     1      -8.254   1.057   0.034  0.00  0.00    +0.000 A 
ATOM     16  C   UNL     1      -7.650   2.065  -0.730  0.00  0.00    +0.000 A 
ATOM     17  C   UNL     1      -6.263   2.224  -0.722  0.00  0.00    +0.000 A 
ATOM     18  C   UNL     1      -9.748   0.916   0.053  0.00  0.00    +0.000 C 
ENDBRANCH  10  12
ENDBRANCH   1  10
TORSDOF 3
