REMARK  Name = *****
REMARK  2 active torsions:
REMARK  status: ('A' for Active; 'I' for Inactive)
REMARK    1  A    between atoms: C_3  and  S_10
REMARK    2  A    between atoms: S_10  and  C_11
REMARK                            x       y       z     vdW  Elec       q    Type
REMARK                         _______ _______ _______ _____ _____    ______ ____
ROOT
ATOM      1  C   UNL     1      -1.763   0.888   0.155  0.00  0.00    +0.000 C 
ATOM      2  C   UNL     1      -2.301  -0.520   0.124  0.00  0.00    +0.000 C 
ATOM      3  C   UNL     1      -1.326  -1.434  -0.002  0.00  0.00    +0.000 C 
ATOM      4  C   UNL     1      -0.045  -0.737  -0.082  0.00  0.00    +0.000 A 
ATOM      5  C   UNL     1       1.251  -1.210  -0.217  0.00  0.00    +0.000 A 
ATOM      6  C   UNL     1       2.300  -0.286  -0.250  0.00  0.00    +0.000 A 
ATOM      7  C   UNL     1       2.046   1.091  -0.149  0.00  0.00    +0.000 A 
ATOM      8  C   UNL     1       0.741   1.567  -0.014  0.00  0.00    +0.000 A 
ATOM      9  C   UNL     1      -0.290   0.642   0.018  0.00  0.00    +0.000 A 
ENDROOT
BRANCH   3  10
ATOM     10  S   UNL     1      -1.485  -3.127  -0.088  0.00  0.00    +0.000 S 
BRANCH  10  11
ATOM     11  C   UNL     1      -2.046  -3.493   1.568  0.00  0.00    +0.000 A 
ATOM     12  C   UNL     1      -1.370  -3.024   2.701  0.00  0.00    +0.000 A 
ATOM     13  C   UNL     1      -1.822  -3.353   3.981  0.00  0.00    +0.000 A 
ATOM     14  C   UNL     1      -2.945  -4.164   4.138  0.00  0.00    +0.000 A 
ATOM     15  C   UNL     1      -3.615  -4.647   3.016  0.00  0.00    +0.000 A 
ATOM     16  C   UNL     1      -3.166  -4.315   1.736  0.00  0.00    +0.000 A 
ENDBRANCH  10  11
ENDBRANCH   3  10
TORSDOF 2
