REMARK  Name = *****
REMARK  2 active torsions:
REMARK  status: ('A' for Active; 'I' for Inactive)
REMARK    1  A    between atoms: C_4  and  C_7
REMARK    2  A    between atoms: N_8  and  C_9
REMARK                            x       y       z     vdW  Elec       q    Type
REMARK                         _______ _______ _______ _____ _____    ______ ____
ROOT
ATOM      1  C   UNL     1      -2.892   0.284  -0.193  0.00  0.00    +0.000 C 
ATOM      2  N   UNL     1      -3.643  -0.596  -0.778  0.00  0.00    +0.000 NA
ENDROOT
BRANCH   2   3
ATOM      3  C   UNL     1      -5.014  -0.310  -0.811  0.00  0.00    +0.000 A 
ATOM      4  C   UNL     1      -5.546   0.502  -1.815  0.00  0.00    +0.000 A 
ATOM      5  C   UNL     1      -6.915   0.764  -1.843  0.00  0.00    +0.000 A 
ATOM      6  C   UNL     1      -7.763   0.213  -0.883  0.00  0.00    +0.000 A 
ATOM      7  C   UNL     1      -7.238  -0.612   0.111  0.00  0.00    +0.000 A 
ATOM      8  C   UNL     1      -5.867  -0.874   0.142  0.00  0.00    +0.000 A 
ATOM      9 CL   UNL     1      -7.565   1.776  -3.074  0.00  0.00    +0.000 Cl
ENDBRANCH   2   3
BRANCH   1  13
ATOM     10  C   UNL     1       1.335  -0.159   0.147  0.00  0.00    +0.000 A 
ATOM     11  C   UNL     1       0.587  -1.152  -0.488  0.00  0.00    +0.000 A 
ATOM     12  C   UNL     1      -0.797  -1.016  -0.605  0.00  0.00    +0.000 A 
ATOM     13  C   UNL     1      -1.430   0.116  -0.084  0.00  0.00    +0.000 A 
ATOM     14  C   UNL     1      -0.683   1.112   0.553  0.00  0.00    +0.000 A 
ATOM     15  C   UNL     1       0.702   0.971   0.666  0.00  0.00    +0.000 A 
ENDBRANCH   1  13
TORSDOF 2
