REMARK  Name = *****
REMARK  2 active torsions:
REMARK  status: ('A' for Active; 'I' for Inactive)
REMARK    1  A    between atoms: C_1  and  C_2
REMARK    2  A    between atoms: C_5  and  C_8
REMARK                            x       y       z     vdW  Elec       q    Type
REMARK                         _______ _______ _______ _____ _____    ______ ____
ROOT
ATOM      1  C   UNL     1      -3.313  -0.053   0.155  0.00  0.00    +0.000 A 
ATOM      2  N   UNL     1      -4.148   0.973   0.120  0.00  0.00    +0.000 NA
ATOM      3  C   UNL     1      -5.387   0.395   0.208  0.00  0.00    +0.000 A 
ATOM      4  C   UNL     1      -6.665   0.963   0.222  0.00  0.00    +0.000 A 
ATOM      5  C   UNL     1      -7.756   0.093   0.324  0.00  0.00    +0.000 A 
ATOM      6  C   UNL     1      -7.588  -1.296   0.409  0.00  0.00    +0.000 A 
ATOM      7  C   UNL     1      -6.315  -1.877   0.396  0.00  0.00    +0.000 A 
ATOM      8  C   UNL     1      -5.257  -0.982   0.294  0.00  0.00    +0.000 A 
ATOM      9  O   UNL     1      -3.928  -1.278   0.261  0.00  0.00    +0.000 OA
ATOM     10 CL   UNL     1      -8.964  -2.327   0.532  0.00  0.00    +0.000 Cl
ATOM     11  F   UNL     1      -8.988   0.624   0.338  0.00  0.00    +0.000 F 
ENDROOT
BRANCH   1  16
ATOM     12  C   UNL     1       2.467   0.041  -0.111  0.00  0.00    +0.000 C 
ATOM     13  C   UNL     1       0.971   0.012  -0.012  0.00  0.00    +0.000 A 
ATOM     14  C   UNL     1       0.231   1.197  -0.080  0.00  0.00    +0.000 A 
ATOM     15  C   UNL     1      -1.166   1.164  -0.021  0.00  0.00    +0.000 A 
ATOM     16  C   UNL     1      -1.854  -0.053   0.096  0.00  0.00    +0.000 A 
ATOM     17  C   UNL     1      -1.106  -1.238   0.147  0.00  0.00    +0.000 A 
ATOM     18  C   UNL     1       0.291  -1.206   0.089  0.00  0.00    +0.000 A 
ENDBRANCH   1  16
TORSDOF 1
