REMARK  Name = *****
REMARK  3 active torsions:
REMARK  status: ('A' for Active; 'I' for Inactive)
REMARK    1  A    between atoms: C_1  and  C_2
REMARK    2  A    between atoms: C_3  and  N_9
REMARK    3  A    between atoms: C_10  and  C_12
REMARK                            x       y       z     vdW  Elec       q    Type
REMARK                         _______ _______ _______ _____ _____    ______ ____
ROOT
ATOM      1  N   UNL     1       1.833  -2.329   0.073  0.00  0.00    +0.000 N 
ATOM      2  C   UNL     1       3.093  -2.541  -0.453  0.00  0.00    +0.000 C 
ATOM      3  O   UNL     1       3.733  -1.768  -1.155  0.00  0.00    +0.000 OA
ATOM      4  H   UNL     1       1.410  -3.099   0.519  0.00  0.00    +0.000 HD
ENDROOT
BRANCH   1   7
ATOM      5  C   UNL     1       3.057   0.507   0.315  0.00  0.00    +0.000 C 
ATOM      6  C   UNL     1       1.604   0.176   0.108  0.00  0.00    +0.000 A 
ATOM      7  C   UNL     1       1.081  -1.131   0.043  0.00  0.00    +0.000 A 
ATOM      8  C   UNL     1      -0.312  -1.303  -0.003  0.00  0.00    +0.000 A 
ATOM      9  C   UNL     1      -1.161  -0.204  -0.067  0.00  0.00    +0.000 A 
ATOM     10  C   UNL     1      -0.658   1.084  -0.072  0.00  0.00    +0.000 A 
ATOM     11  C   UNL     1       0.718   1.273   0.017  0.00  0.00    +0.000 A 
ATOM     12  F   UNL     1      -2.485  -0.399  -0.133  0.00  0.00    +0.000 F 
ENDBRANCH   1   7
BRANCH   2  13
ATOM     13  C   UNL     1       3.657  -3.897  -0.197  0.00  0.00    +0.000 A 
ATOM     14  C   UNL     1       4.512  -4.457  -1.152  0.00  0.00    +0.000 A 
ATOM     15  C   UNL     1       5.050  -5.718  -0.930  0.00  0.00    +0.000 A 
ATOM     16  C   UNL     1       4.760  -6.431   0.229  0.00  0.00    +0.000 A 
ATOM     17  C   UNL     1       3.922  -5.870   1.193  0.00  0.00    +0.000 A 
ATOM     18  C   UNL     1       3.373  -4.602   0.984  0.00  0.00    +0.000 A 
ATOM     19  F   UNL     1       5.861  -6.260  -1.848  0.00  0.00    +0.000 F 
ENDBRANCH   2  13
TORSDOF 2
