REMARK  Name = *****
REMARK  2 active torsions:
REMARK  status: ('A' for Active; 'I' for Inactive)
REMARK    1  A    between atoms: C_5  and  C_6
REMARK    2  A    between atoms: C_7  and  C_8
REMARK                            x       y       z     vdW  Elec       q    Type
REMARK                         _______ _______ _______ _____ _____    ______ ____
ROOT
ATOM      1  C   UNL     1      -2.933  -1.394   0.840  0.00  0.00    +0.000 C 
ATOM      2  C   UNL     1      -4.077  -1.408   1.543  0.00  0.00    +0.000 C 
ENDROOT
BRANCH   1   7
ATOM      3  C   UNL     1       1.906   0.110  -0.323  0.00  0.00    +0.000 C 
ATOM      4  C   UNL     1       1.204  -1.240  -0.181  0.00  0.00    +0.000 C 
ATOM      5  C   UNL     1      -0.234  -1.193  -0.704  0.00  0.00    +0.000 C 
ATOM      6  C   UNL     1      -1.009  -0.071  -0.049  0.00  0.00    +0.000 C 
ATOM      7  C   UNL     1      -2.172  -0.185   0.619  0.00  0.00    +0.000 C 
ATOM      8  C   UNL     1      -0.335   1.278  -0.191  0.00  0.00    +0.000 C 
ATOM      9  C   UNL     1       1.101   1.232   0.333  0.00  0.00    +0.000 C 
ENDBRANCH   1   7
BRANCH   2  10
ATOM     10  C   UNL     1      -4.870  -2.621   1.789  0.00  0.00    +0.000 A 
ATOM     11  C   UNL     1      -5.464  -2.801   3.045  0.00  0.00    +0.000 A 
ATOM     12  C   UNL     1      -6.248  -3.927   3.306  0.00  0.00    +0.000 A 
ATOM     13  C   UNL     1      -6.457  -4.879   2.309  0.00  0.00    +0.000 A 
ATOM     14  C   UNL     1      -5.885  -4.702   1.051  0.00  0.00    +0.000 A 
ATOM     15  C   UNL     1      -5.099  -3.576   0.790  0.00  0.00    +0.000 A 
ENDBRANCH   2  10
TORSDOF 2
