REMARK  Name = *****
REMARK  5 active torsions:
REMARK  status: ('A' for Active; 'I' for Inactive)
REMARK    1  A    between atoms: C_1  and  C_2
REMARK    2  A    between atoms: C_5  and  C_8
REMARK    3  A    between atoms: C_8  and  C_9
REMARK    4  A    between atoms: C_8  and  O_10
REMARK    5  A    between atoms: O_10  and  C_11
REMARK                            x       y       z     vdW  Elec       q    Type
REMARK                         _______ _______ _______ _____ _____    ______ ____
ROOT
ATOM      1  C   UNL     1      -3.313   0.084   0.049  0.00  0.00    +0.000 C 
ATOM      2  C   UNL     1      -3.878  -0.759   1.197  0.00  0.00    +0.000 C 
ENDROOT
BRANCH   1   7
ATOM      3  C   UNL     1       2.521   0.406  -0.243  0.00  0.00    +0.000 C 
ATOM      4  C   UNL     1       1.028   0.296  -0.167  0.00  0.00    +0.000 A 
ATOM      5  C   UNL     1       0.239   0.428  -1.313  0.00  0.00    +0.000 A 
ATOM      6  C   UNL     1      -1.154   0.351  -1.226  0.00  0.00    +0.000 A 
ATOM      7  C   UNL     1      -1.793   0.140   0.007  0.00  0.00    +0.000 A 
ATOM      8  C   UNL     1      -0.995   0.042   1.155  0.00  0.00    +0.000 A 
ATOM      9  C   UNL     1       0.399   0.114   1.068  0.00  0.00    +0.000 A 
ENDBRANCH   1   7
BRANCH   1  10
ATOM     10  O   UNL     1      -3.766   1.443   0.164  0.00  0.00    +0.000 OA
BRANCH  10  11
ATOM     11  C   UNL     1      -5.049   1.655  -0.267  0.00  0.00    +0.000 A 
ATOM     12  C   UNL     1      -5.413   1.415  -1.596  0.00  0.00    +0.000 A 
ATOM     13  C   UNL     1      -6.717   1.674  -2.022  0.00  0.00    +0.000 A 
ATOM     14  C   UNL     1      -7.655   2.195  -1.132  0.00  0.00    +0.000 A 
ATOM     15  C   UNL     1      -7.287   2.469   0.187  0.00  0.00    +0.000 A 
ATOM     16  C   UNL     1      -5.984   2.208   0.616  0.00  0.00    +0.000 A 
ATOM     17 CL   UNL     1      -5.572   2.565   2.255  0.00  0.00    +0.000 Cl
ENDBRANCH  10  11
ENDBRANCH   1  10
TORSDOF 3
