REMARK  Name = *****
REMARK  5 active torsions:
REMARK  status: ('A' for Active; 'I' for Inactive)
REMARK    1  A    between atoms: C_1  and  C_2
REMARK    2  A    between atoms: C_3  and  C_19
REMARK    3  A    between atoms: C_5  and  O_8
REMARK    4  A    between atoms: O_8  and  C_9
REMARK    5  A    between atoms: C_9  and  C_11
REMARK                            x       y       z     vdW  Elec       q    Type
REMARK                         _______ _______ _______ _____ _____    ______ ____
ROOT
ATOM      1  C   UNL     1      -4.123  -0.953  -0.847  0.00  0.00    +0.000 C 
ATOM      2  O   UNL     1      -4.047  -0.145  -1.761  0.00  0.00    +0.000 OA
ENDROOT
BRANCH   1   3
ATOM      3  C   UNL     1      -5.341  -1.750  -0.598  0.00  0.00    +0.000 A 
ATOM      4  C   UNL     1      -5.306  -3.003   0.021  0.00  0.00    +0.000 A 
ATOM      5  C   UNL     1      -6.480  -3.727   0.231  0.00  0.00    +0.000 A 
ATOM      6  C   UNL     1      -7.701  -3.202  -0.188  0.00  0.00    +0.000 A 
ATOM      7  C   UNL     1      -7.733  -1.961  -0.818  0.00  0.00    +0.000 A 
ATOM      8  C   UNL     1      -6.569  -1.232  -1.031  0.00  0.00    +0.000 A 
ATOM      9  F   UNL     1      -8.907  -1.462  -1.225  0.00  0.00    +0.000 F 
ATOM     10  F   UNL     1      -4.148  -3.559   0.406  0.00  0.00    +0.000 F 
ENDBRANCH   1   3
BRANCH   1  11
ATOM     11  O   UNL     1      -3.185  -1.218   0.131  0.00  0.00    +0.000 OA
BRANCH  11  16
ATOM     12  C   UNL     1       1.853   1.442  -0.022  0.00  0.00    +0.000 C 
ATOM     13  C   UNL     1       0.529   0.728   0.007  0.00  0.00    +0.000 A 
ATOM     14  C   UNL     1       0.454  -0.681   0.050  0.00  0.00    +0.000 A 
ATOM     15  C   UNL     1      -0.804  -1.300   0.071  0.00  0.00    +0.000 A 
ATOM     16  C   UNL     1      -1.966  -0.530   0.049  0.00  0.00    +0.000 A 
ATOM     17  C   UNL     1      -1.903   0.859   0.044  0.00  0.00    +0.000 A 
ATOM     18  C   UNL     1      -0.656   1.483   0.015  0.00  0.00    +0.000 A 
ATOM     19  C   UNL     1       1.693  -1.534   0.056  0.00  0.00    +0.000 C 
ENDBRANCH  11  16
ENDBRANCH   1  11
TORSDOF 3
