REMARK  Name = *****
REMARK  4 active torsions:
REMARK  status: ('A' for Active; 'I' for Inactive)
REMARK    1  A    between atoms: C_1  and  O_2
REMARK    2  A    between atoms: O_2  and  C_3
REMARK    3  A    between atoms: C_6  and  C_9
REMARK    4  A    between atoms: C_10  and  C_11
REMARK                            x       y       z     vdW  Elec       q    Type
REMARK                         _______ _______ _______ _____ _____    ______ ____
ROOT
ATOM      1  C   UNL     1       4.689  -5.295  -0.649  0.00  0.00    +0.000 C 
ATOM      2  C   UNL     1       5.178  -6.386  -0.770  0.00  0.00    +0.000 C 
ENDROOT
BRANCH   2   3
ATOM      3  C   UNL     1       5.758  -7.686  -0.911  0.00  0.00    +0.000 A 
ATOM      4  C   UNL     1       7.049  -7.822  -1.431  0.00  0.00    +0.000 A 
ATOM      5  C   UNL     1       7.614  -9.092  -1.568  0.00  0.00    +0.000 A 
ATOM      6  C   UNL     1       6.885 -10.212  -1.184  0.00  0.00    +0.000 A 
ATOM      7  C   UNL     1       5.600 -10.088  -0.666  0.00  0.00    +0.000 A 
ATOM      8  C   UNL     1       5.033  -8.819  -0.529  0.00  0.00    +0.000 A 
ATOM      9  F   UNL     1       7.427 -11.429  -1.316  0.00  0.00    +0.000 F 
ENDBRANCH   2   3
BRANCH   1  13
ATOM     10  C   UNL     1       2.952  -1.457  -0.219  0.00  0.00    +0.000 A 
ATOM     11  C   UNL     1       2.391  -2.388  -1.095  0.00  0.00    +0.000 A 
ATOM     12  C   UNL     1       2.967  -3.656  -1.237  0.00  0.00    +0.000 A 
ATOM     13  C   UNL     1       4.106  -3.998  -0.504  0.00  0.00    +0.000 A 
ATOM     14  C   UNL     1       4.669  -3.070   0.370  0.00  0.00    +0.000 A 
ATOM     15  C   UNL     1       4.092  -1.805   0.509  0.00  0.00    +0.000 A 
BRANCH  10  17
ATOM     16  C   UNL     1       1.319   0.206  -0.690  0.00  0.00    +0.000 C 
ATOM     17  O   UNL     1       2.490  -0.191   0.013  0.00  0.00    +0.000 OA
ENDBRANCH  10  17
ENDBRANCH   1  13
TORSDOF 3
