REMARK  Name = *****
REMARK  3 active torsions:
REMARK  status: ('A' for Active; 'I' for Inactive)
REMARK    1  A    between atoms: C_4  and  S_7
REMARK    2  A    between atoms: S_7  and  C_8
REMARK    3  A    between atoms: C_9  and  C_10
REMARK                            x       y       z     vdW  Elec       q    Type
REMARK                         _______ _______ _______ _____ _____    ______ ____
ROOT
ATOM      1  S   UNL     1      -2.688   0.924  -0.847  0.00  0.00    +0.000 S 
ENDROOT
BRANCH   1   5
ATOM      2  C   UNL     1       1.358  -0.799   0.434  0.00  0.00    +0.000 A 
ATOM      3  C   UNL     1       0.829  -1.118  -0.816  0.00  0.00    +0.000 A 
ATOM      4  C   UNL     1      -0.404  -0.593  -1.208  0.00  0.00    +0.000 A 
ATOM      5  C   UNL     1      -1.115   0.250  -0.347  0.00  0.00    +0.000 A 
ATOM      6  C   UNL     1      -0.576   0.574   0.901  0.00  0.00    +0.000 A 
ATOM      7  C   UNL     1       0.657   0.048   1.292  0.00  0.00    +0.000 A 
ENDBRANCH   1   5
BRANCH   1   8
ATOM      8  C   UNL     1      -3.725  -0.358  -0.318  0.00  0.00    +0.000 C 
ATOM      9  C   UNL     1      -5.050  -0.460  -0.502  0.00  0.00    +0.000 C 
BRANCH   9  10
ATOM     10  C   UNL     1      -5.902   0.461  -1.178  0.00  0.00    +0.000 A 
ATOM     11  C   UNL     1      -7.278   0.355  -1.371  0.00  0.00    +0.000 A 
ATOM     12  C   UNL     1      -7.714   1.491  -2.093  0.00  0.00    +0.000 A 
ATOM     13  C   UNL     1      -6.590   2.244  -2.310  0.00  0.00    +0.000 A 
ATOM     14  O   UNL     1      -5.507   1.639  -1.770  0.00  0.00    +0.000 OA
ENDBRANCH   9  10
ENDBRANCH   1   8
TORSDOF 3
