REMARK  Name = *****
REMARK  4 active torsions:
REMARK  status: ('A' for Active; 'I' for Inactive)
REMARK    1  A    between atoms: C_1  and  C_2
REMARK    2  A    between atoms: C_5  and  S_8
REMARK    3  A    between atoms: S_8  and  O_10
REMARK    4  A    between atoms: O_10  and  C_11
REMARK                            x       y       z     vdW  Elec       q    Type
REMARK                         _______ _______ _______ _____ _____    ______ ____
ROOT
ATOM      1  S   UNL     1      -3.781  -0.031  -0.336  0.00  0.00    +0.000 S 
ATOM      2  O   UNL     1      -4.125  -1.272  -1.108  0.00  0.00    +0.000 OA
ENDROOT
BRANCH   1   7
ATOM      3  C   UNL     1       2.315   0.002   0.256  0.00  0.00    +0.000 C 
ATOM      4  C   UNL     1       0.824   0.002   0.084  0.00  0.00    +0.000 A 
ATOM      5  C   UNL     1       0.051   1.044   0.609  0.00  0.00    +0.000 A 
ATOM      6  C   UNL     1      -1.340   1.028   0.479  0.00  0.00    +0.000 A 
ATOM      7  C   UNL     1      -1.978  -0.039  -0.166  0.00  0.00    +0.000 A 
ATOM      8  C   UNL     1      -1.207  -1.085  -0.683  0.00  0.00    +0.000 A 
ATOM      9  C   UNL     1       0.184  -1.068  -0.552  0.00  0.00    +0.000 A 
ENDBRANCH   1   7
BRANCH   1  10
ATOM     10  O   UNL     1      -4.004  -0.358   1.229  0.00  0.00    +0.000 OA
BRANCH  10  11
ATOM     11  C   UNL     1      -5.178   0.116   1.756  0.00  0.00    +0.000 A 
ATOM     12  C   UNL     1      -6.422  -0.347   1.323  0.00  0.00    +0.000 A 
ATOM     13  C   UNL     1      -7.586   0.139   1.918  0.00  0.00    +0.000 A 
ATOM     14  C   UNL     1      -7.504   1.070   2.954  0.00  0.00    +0.000 A 
ATOM     15  C   UNL     1      -6.259   1.511   3.403  0.00  0.00    +0.000 A 
ATOM     16  C   UNL     1      -5.093   1.027   2.810  0.00  0.00    +0.000 A 
ENDBRANCH  10  11
ENDBRANCH   1  10
TORSDOF 3
