REMARK  Name = *****
REMARK  1 active torsions:
REMARK  status: ('A' for Active; 'I' for Inactive)
REMARK    1  A    between atoms: C_4  and  C_7
REMARK                            x       y       z     vdW  Elec       q    Type
REMARK                         _______ _______ _______ _____ _____    ______ ____
ROOT
ATOM      1  C   UNL     1      -4.384  -1.032  -0.213  0.00  0.00    +0.000 C 
ATOM      2  C   UNL     1      -5.226  -0.273  -0.957  0.00  0.00    +0.000 C 
ATOM      3  C   UNL     1      -6.673   0.084  -0.736  0.00  0.00    +0.000 A 
ATOM      4  C   UNL     1      -7.098   1.165  -1.548  0.00  0.00    +0.000 A 
ATOM      5  C   UNL     1      -8.403   1.661  -1.514  0.00  0.00    +0.000 A 
ATOM      6  C   UNL     1      -9.335   1.091  -0.664  0.00  0.00    +0.000 A 
ATOM      7  C   UNL     1      -8.960   0.023   0.148  0.00  0.00    +0.000 A 
ATOM      8  C   UNL     1      -7.647  -0.502   0.131  0.00  0.00    +0.000 A 
ATOM      9  S   UNL     1      -7.475  -1.900   1.298  0.00  0.00    +0.000 S 
ATOM     10  C   UNL     1      -5.944  -2.483   0.762  0.00  0.00    +0.000 C 
ATOM     11  C   UNL     1      -4.913  -1.656   0.984  0.00  0.00    +0.000 C 
ENDROOT
BRANCH   1  15
ATOM     12  C   UNL     1      -0.289  -1.510  -1.381  0.00  0.00    +0.000 A 
ATOM     13  C   UNL     1      -0.604  -1.017  -0.117  0.00  0.00    +0.000 A 
ATOM     14  C   UNL     1      -1.940  -0.859   0.260  0.00  0.00    +0.000 A 
ATOM     15  C   UNL     1      -2.974  -1.191  -0.626  0.00  0.00    +0.000 A 
ATOM     16  C   UNL     1      -2.644  -1.695  -1.893  0.00  0.00    +0.000 A 
ATOM     17  C   UNL     1      -1.308  -1.850  -2.269  0.00  0.00    +0.000 A 
ENDBRANCH   1  15
TORSDOF 1
