REMARK  Name = *****
REMARK  5 active torsions:
REMARK  status: ('A' for Active; 'I' for Inactive)
REMARK    1  A    between atoms: C_1  and  C_2
REMARK    2  A    between atoms: C_5  and  C_8
REMARK    3  A    between atoms: C_8  and  C_9
REMARK    4  A    between atoms: C_9  and  C_10
REMARK    5  A    between atoms: C_15  and  C_16
REMARK                            x       y       z     vdW  Elec       q    Type
REMARK                         _______ _______ _______ _____ _____    ______ ____
ROOT
ATOM      1  C   UNL     1      -3.863  -0.761  -1.286  0.00  0.00    +0.000 C 
ATOM      2  F   UNL     1      -3.237  -1.966  -1.490  0.00  0.00    +0.000 F 
ATOM      3  F   UNL     1      -3.446   0.035  -2.325  0.00  0.00    +0.000 F 
ENDROOT
BRANCH   1   4
ATOM      4  C   UNL     1      -5.379  -0.958  -1.386  0.00  0.00    +0.000 A 
ATOM      5  C   UNL     1      -6.267  -0.624  -0.345  0.00  0.00    +0.000 A 
ATOM      6  C   UNL     1      -7.643  -0.838  -0.472  0.00  0.00    +0.000 A 
ATOM      7  C   UNL     1      -8.164  -1.384  -1.639  0.00  0.00    +0.000 A 
ATOM      8  C   UNL     1      -7.309  -1.714  -2.687  0.00  0.00    +0.000 A 
ATOM      9  C   UNL     1      -5.925  -1.505  -2.571  0.00  0.00    +0.000 A 
BRANCH   9  10
ATOM     10  C   UNL     1      -5.103  -1.863  -3.698  0.00  0.00    +0.000 C 
ATOM     11  N   UNL     1      -4.466  -2.156  -4.622  0.00  0.00    +0.000 NA
ENDBRANCH   9  10
ENDBRANCH   1   4
BRANCH   1  12
ATOM     12  C   UNL     1      -3.307  -0.153   0.045  0.00  0.00    +0.000 C 
ATOM     13  F   UNL     1      -3.762  -0.909   1.099  0.00  0.00    +0.000 F 
ATOM     14  F   UNL     1      -3.871   1.082   0.243  0.00  0.00    +0.000 F 
BRANCH  12  19
ATOM     15  C   UNL     1       2.529   0.185   0.147  0.00  0.00    +0.000 C 
ATOM     16  C   UNL     1       1.031   0.112   0.117  0.00  0.00    +0.000 A 
ATOM     17  C   UNL     1       0.287   0.921  -0.748  0.00  0.00    +0.000 A 
ATOM     18  C   UNL     1      -1.108   0.845  -0.767  0.00  0.00    +0.000 A 
ATOM     19  C   UNL     1      -1.788  -0.055   0.068  0.00  0.00    +0.000 A 
ATOM     20  C   UNL     1      -1.036  -0.857   0.942  0.00  0.00    +0.000 A 
ATOM     21  C   UNL     1       0.358  -0.772   0.966  0.00  0.00    +0.000 A 
ENDBRANCH  12  19
ENDBRANCH   1  12
TORSDOF 4
