REMARK  Name = *****
REMARK  5 active torsions:
REMARK  status: ('A' for Active; 'I' for Inactive)
REMARK    1  A    between atoms: C_1  and  C_2
REMARK    2  A    between atoms: C_7  and  O_8
REMARK    3  A    between atoms: O_8  and  C_9
REMARK    4  A    between atoms: C_9  and  C_11
REMARK    5  A    between atoms: C_11  and  C_12
REMARK                            x       y       z     vdW  Elec       q    Type
REMARK                         _______ _______ _______ _____ _____    ______ ____
ROOT
ATOM      1  C   UNL     1       2.083  -2.965  -0.354  0.00  0.00    +0.000 C 
ATOM      2  O   UNL     1       2.693  -2.573   0.632  0.00  0.00    +0.000 OA
ENDROOT
BRANCH   1   3
ATOM      3  O   UNL     1       0.985  -2.339  -0.947  0.00  0.00    +0.000 OA
BRANCH   3  10
ATOM      4  C   UNL     1      -1.574  -2.162   0.298  0.00  0.00    +0.000 C 
ATOM      5  C   UNL     1      -0.650  -0.985   0.196  0.00  0.00    +0.000 A 
ATOM      6  C   UNL     1      -1.035   0.267   0.692  0.00  0.00    +0.000 A 
ATOM      7  C   UNL     1      -0.178   1.366   0.590  0.00  0.00    +0.000 A 
ATOM      8  C   UNL     1       1.072   1.230  -0.013  0.00  0.00    +0.000 A 
ATOM      9  C   UNL     1       1.471  -0.008  -0.513  0.00  0.00    +0.000 A 
ATOM     10  C   UNL     1       0.617  -1.106  -0.389  0.00  0.00    +0.000 A 
ENDBRANCH   3  10
ENDBRANCH   1   3
BRANCH   1  11
ATOM     11  C   UNL     1       2.342  -4.256  -1.103  0.00  0.00    +0.000 C 
BRANCH  11  12
ATOM     12  C   UNL     1       3.784  -4.700  -1.069  0.00  0.00    +0.000 A 
ATOM     13  C   UNL     1       4.697  -4.218  -2.018  0.00  0.00    +0.000 A 
ATOM     14  C   UNL     1       6.033  -4.620  -1.983  0.00  0.00    +0.000 A 
ATOM     15  C   UNL     1       6.471  -5.502  -0.996  0.00  0.00    +0.000 A 
ATOM     16  C   UNL     1       5.574  -5.979  -0.042  0.00  0.00    +0.000 A 
ATOM     17  C   UNL     1       4.237  -5.578  -0.075  0.00  0.00    +0.000 A 
ENDBRANCH  11  12
ENDBRANCH   1  11
TORSDOF 4
