REMARK  Name = *****
REMARK  4 active torsions:
REMARK  status: ('A' for Active; 'I' for Inactive)
REMARK    1  A    between atoms: C_3  and  C_8
REMARK    2  A    between atoms: C_8  and  C_9
REMARK    3  A    between atoms: C_9  and  C_10
REMARK    4  A    between atoms: C_10  and  C_12
REMARK                            x       y       z     vdW  Elec       q    Type
REMARK                         _______ _______ _______ _____ _____    ______ ____
ROOT
ATOM      1  C   UNL     1       1.470   3.673   0.160  0.00  0.00    +0.000 C 
ENDROOT
BRANCH   1   2
ATOM      2  C   UNL     1       2.208   4.994   0.050  0.00  0.00    +0.000 C 
ATOM      3  O   UNL     1       3.424   5.054  -0.114  0.00  0.00    +0.000 OA
BRANCH   2   4
ATOM      4  C   UNL     1       1.423   6.264   0.146  0.00  0.00    +0.000 A 
ATOM      5  C   UNL     1       0.038   6.277   0.362  0.00  0.00    +0.000 A 
ATOM      6  C   UNL     1      -0.649   7.494   0.444  0.00  0.00    +0.000 A 
ATOM      7  C   UNL     1       0.043   8.696   0.312  0.00  0.00    +0.000 A 
ATOM      8  C   UNL     1       1.418   8.696   0.097  0.00  0.00    +0.000 A 
ATOM      9  C   UNL     1       2.107   7.482   0.015  0.00  0.00    +0.000 A 
ATOM     10 CL   UNL     1      -0.808  10.187   0.414  0.00  0.00    +0.000 Cl
ENDBRANCH   2   4
ENDBRANCH   1   2
BRANCH   1  11
ATOM     11  C   UNL     1       2.419   2.483   0.013  0.00  0.00    +0.000 C 
BRANCH  11  14
ATOM     12  C   UNL     1       0.792  -0.645   1.466  0.00  0.00    +0.000 A 
ATOM     13  C   UNL     1       1.498   0.556   1.365  0.00  0.00    +0.000 A 
ATOM     14  C   UNL     1       1.677   1.173   0.119  0.00  0.00    +0.000 A 
ATOM     15  C   UNL     1       1.131   0.572  -1.024  0.00  0.00    +0.000 A 
ATOM     16  C   UNL     1       0.426  -0.627  -0.916  0.00  0.00    +0.000 A 
ATOM     17  C   UNL     1       0.255  -1.238   0.324  0.00  0.00    +0.000 A 
ATOM     18 CL   UNL     1      -0.241  -1.355  -2.326  0.00  0.00    +0.000 Cl
ENDBRANCH  11  14
ENDBRANCH   1  11
TORSDOF 4
