REMARK  Name = *****
REMARK  3 active torsions:
REMARK  status: ('A' for Active; 'I' for Inactive)
REMARK    1  A    between atoms: C_4  and  N_7
REMARK    2  A    between atoms: N_7  and  C_8
REMARK    3  A    between atoms: C_8  and  C_9
REMARK                            x       y       z     vdW  Elec       q    Type
REMARK                         _______ _______ _______ _____ _____    ______ ____
ROOT
ATOM      1  C   UNL     1      -3.194   1.617  -0.330  0.00  0.00    +0.000 C 
ENDROOT
BRANCH   1   2
ATOM      2  C   UNL     1      -2.389   2.776  -0.735  0.00  0.00    +0.000 A 
ATOM      3  C   UNL     1      -2.689   4.057  -0.241  0.00  0.00    +0.000 A 
ATOM      4  C   UNL     1      -1.933   5.151  -0.688  0.00  0.00    +0.000 A 
ATOM      5  C   UNL     1      -0.906   4.965  -1.619  0.00  0.00    +0.000 A 
ATOM      6  C   UNL     1      -0.628   3.692  -2.117  0.00  0.00    +0.000 A 
ATOM      7  C   UNL     1      -1.375   2.598  -1.684  0.00  0.00    +0.000 A 
ATOM      8 CL   UNL     1      -2.214   6.764  -0.131  0.00  0.00    +0.000 Cl
ATOM      9 CL   UNL     1      -3.950   4.266   0.931  0.00  0.00    +0.000 Cl
ENDBRANCH   1   2
BRANCH   1  10
ATOM     10  N   UNL     1      -2.746   0.509   0.214  0.00  0.00    +0.000 N 
ATOM     11  O   UNL     1      -3.561  -0.442   0.454  0.00  0.00    +0.000 OA
BRANCH  10  15
ATOM     12  C   UNL     1       1.336  -0.074   1.150  0.00  0.00    +0.000 A 
ATOM     13  C   UNL     1       0.626   0.953   1.777  0.00  0.00    +0.000 A 
ATOM     14  C   UNL     1      -0.722   1.154   1.481  0.00  0.00    +0.000 A 
ATOM     15  C   UNL     1      -1.344   0.331   0.536  0.00  0.00    +0.000 A 
ATOM     16  C   UNL     1      -0.646  -0.716  -0.074  0.00  0.00    +0.000 A 
ATOM     17  C   UNL     1       0.700  -0.911   0.232  0.00  0.00    +0.000 A 
ENDBRANCH  10  15
ENDBRANCH   1  10
TORSDOF 3
