REMARK  Name = *****
REMARK  6 active torsions:
REMARK  status: ('A' for Active; 'I' for Inactive)
REMARK    1  A    between atoms: C_1  and  C_2
REMARK    2  A    between atoms: C_4  and  C_9
REMARK    3  A    between atoms: C_5  and  C_8
REMARK    4  A    between atoms: C_9  and  S_10
REMARK    5  A    between atoms: S_10  and  C_11
REMARK    6  A    between atoms: C_15  and  C_17
REMARK                            x       y       z     vdW  Elec       q    Type
REMARK                         _______ _______ _______ _____ _____    ______ ____
ROOT
ATOM      1  C   UNL     1      -1.375   2.604   0.097  0.00  0.00    +0.000 C 
ENDROOT
BRANCH   1   5
ATOM      2  C   UNL     1       2.889  -0.056  -0.001  0.00  0.00    +0.000 C 
ATOM      3  C   UNL     1       1.390  -0.025  -0.038  0.00  0.00    +0.000 A 
ATOM      4  C   UNL     1       0.704   1.194   0.027  0.00  0.00    +0.000 A 
ATOM      5  C   UNL     1      -0.704   1.247   0.026  0.00  0.00    +0.000 A 
ATOM      6  C   UNL     1      -1.434   0.040  -0.013  0.00  0.00    +0.000 A 
ATOM      7  C   UNL     1      -0.739  -1.178  -0.068  0.00  0.00    +0.000 A 
ATOM      8  C   UNL     1       0.656  -1.211  -0.075  0.00  0.00    +0.000 A 
ATOM      9  C   UNL     1      -2.938   0.019  -0.009  0.00  0.00    +0.000 C 
ENDBRANCH   1   5
BRANCH   1  10
ATOM     10  S   UNL     1      -1.616   3.135   1.824  0.00  0.00    +0.000 S 
BRANCH  10  11
ATOM     11  C   UNL     1      -2.404   4.714   1.565  0.00  0.00    +0.000 A 
ATOM     12  N   UNL     1      -2.600   5.143   0.299  0.00  0.00    +0.000 NA
ATOM     13  C   UNL     1      -3.189   6.347   0.141  0.00  0.00    +0.000 A 
ATOM     14  C   UNL     1      -3.603   7.151   1.190  0.00  0.00    +0.000 A 
ATOM     15  C   UNL     1      -3.412   6.694   2.492  0.00  0.00    +0.000 A 
ATOM     16  C   UNL     1      -2.789   5.456   2.678  0.00  0.00    +0.000 A 
ATOM     17  C   UNL     1      -3.806   7.533   3.670  0.00  0.00    +0.000 C 
ENDBRANCH  10  11
ENDBRANCH   1  10
TORSDOF 3
