REMARK  Name = *****
REMARK  5 active torsions:
REMARK  status: ('A' for Active; 'I' for Inactive)
REMARK    1  A    between atoms: C_1  and  C_2
REMARK    2  A    between atoms: C_3  and  C_16
REMARK    3  A    between atoms: C_5  and  N_8
REMARK    4  A    between atoms: C_9  and  C_10
REMARK    5  A    between atoms: C_11  and  C_15
REMARK                            x       y       z     vdW  Elec       q    Type
REMARK                         _______ _______ _______ _____ _____    ______ ____
ROOT
ATOM      1  C   UNL     1       1.837   1.502  -0.038  0.00  0.00    +0.000 C 
ATOM      2  C   UNL     1       0.560   0.714   0.073  0.00  0.00    +0.000 A 
ATOM      3  C   UNL     1       0.516  -0.662  -0.230  0.00  0.00    +0.000 A 
ATOM      4  C   UNL     1      -0.700  -1.353  -0.104  0.00  0.00    +0.000 A 
ATOM      5  C   UNL     1      -1.863  -0.702   0.313  0.00  0.00    +0.000 A 
ATOM      6  C   UNL     1      -1.806   0.653   0.636  0.00  0.00    +0.000 A 
ATOM      7  C   UNL     1      -0.607   1.357   0.513  0.00  0.00    +0.000 A 
ATOM      8  C   UNL     1       1.741  -1.406  -0.686  0.00  0.00    +0.000 C 
ENDROOT
BRANCH   5   9
ATOM      9  N   UNL     1      -3.063  -1.414   0.440  0.00  0.00    +0.000 NA
ATOM     10  C   UNL     1      -3.852  -1.375  -0.588  0.00  0.00    +0.000 C 
BRANCH  10  11
ATOM     11  C   UNL     1      -5.124  -2.065  -0.596  0.00  0.00    +0.000 A 
ATOM     12  C   UNL     1      -5.723  -2.857   0.375  0.00  0.00    +0.000 A 
ATOM     13  C   UNL     1      -7.001  -3.336  -0.072  0.00  0.00    +0.000 A 
ATOM     14  C   UNL     1      -7.321  -2.903  -1.337  0.00  0.00    +0.000 A 
ATOM     15  S   UNL     1      -6.096  -1.921  -2.000  0.00  0.00    +0.000 S 
ATOM     16  C   UNL     1      -5.142  -3.185   1.713  0.00  0.00    +0.000 C 
ENDBRANCH  10  11
ENDBRANCH   5   9
TORSDOF 2
