REMARK  Name = *****
REMARK  5 active torsions:
REMARK  status: ('A' for Active; 'I' for Inactive)
REMARK    1  A    between atoms: N_3  and  C_10
REMARK    2  A    between atoms: C_6  and  C_7
REMARK    3  A    between atoms: C_7  and  C_8
REMARK    4  A    between atoms: C_10  and  O_12
REMARK    5  A    between atoms: O_12  and  C_13
REMARK                            x       y       z     vdW  Elec       q    Type
REMARK                         _______ _______ _______ _____ _____    ______ ____
ROOT
ATOM      1  C   UNL     1      -0.641   1.615  -0.962  0.00  0.00    +0.000 C 
ATOM      2  C   UNL     1       0.836   1.354  -0.675  0.00  0.00    +0.000 C 
ATOM      3  N   UNL     1       1.054   0.719   0.632  0.00  0.00    +0.000 N 
ATOM      4  C   UNL     1       0.209  -0.445   0.920  0.00  0.00    +0.000 C 
ATOM      5  C   UNL     1      -1.268  -0.184   0.637  0.00  0.00    +0.000 C 
ATOM      6  C   UNL     1      -1.518   0.369  -0.772  0.00  0.00    +0.000 C 
ENDROOT
BRANCH   3   7
ATOM      7  C   UNL     1       2.244   0.912   1.353  0.00  0.00    +0.000 C 
ATOM      8  S   UNL     1       3.451   2.024   1.011  0.00  0.00    +0.000 S 
BRANCH   7   9
ATOM      9  O   UNL     1       2.358   0.043   2.454  0.00  0.00    +0.000 OA
BRANCH   9  10
ATOM     10  C   UNL     1       3.394   0.061   3.417  0.00  0.00    +0.000 A 
ATOM     11  C   UNL     1       3.290   0.916   4.511  0.00  0.00    +0.000 A 
ATOM     12  C   UNL     1       4.290   0.892   5.481  0.00  0.00    +0.000 A 
ATOM     13  C   UNL     1       5.365   0.008   5.355  0.00  0.00    +0.000 A 
ATOM     14  C   UNL     1       5.443  -0.858   4.260  0.00  0.00    +0.000 A 
ATOM     15  C   UNL     1       4.447  -0.840   3.285  0.00  0.00    +0.000 A 
ENDBRANCH   9  10
ENDBRANCH   7   9
ENDBRANCH   3   7
BRANCH   6  16
ATOM     16  C   UNL     1      -1.285  -0.657  -1.901  0.00  0.00    +0.000 C 
BRANCH  16  17
ATOM     17  C   UNL     1      -2.278  -1.815  -1.868  0.00  0.00    +0.000 C 
ATOM     18 CL   UNL     1      -2.017  -2.889  -3.263  0.00  0.00    +0.000 Cl
ENDBRANCH  16  17
ENDBRANCH   6  16
TORSDOF 5
