REMARK  Name = *****
REMARK  4 active torsions:
REMARK  status: ('A' for Active; 'I' for Inactive)
REMARK    1  A    between atoms: C_1  and  C_2
REMARK    2  A    between atoms: C_5  and  C_8
REMARK    3  A    between atoms: C_9  and  C_10
REMARK    4  A    between atoms: C_12  and  C_16
REMARK                            x       y       z     vdW  Elec       q    Type
REMARK                         _______ _______ _______ _____ _____    ______ ____
ROOT
ATOM      1  C   UNL     1      -3.287   0.024  -0.087  0.00  0.00    +0.000 C 
ATOM      2  C   UNL     1      -4.068   1.117  -0.060  0.00  0.00    +0.000 C 
ENDROOT
BRANCH   1   7
ATOM      3  C   UNL     1       2.503   0.028  -0.012  0.00  0.00    +0.000 C 
ATOM      4  C   UNL     1       1.004   0.059  -0.051  0.00  0.00    +0.000 A 
ATOM      5  C   UNL     1       0.292   0.972   0.733  0.00  0.00    +0.000 A 
ATOM      6  C   UNL     1      -1.107   0.979   0.722  0.00  0.00    +0.000 A 
ATOM      7  C   UNL     1      -1.818   0.072  -0.073  0.00  0.00    +0.000 A 
ATOM      8  C   UNL     1      -1.102  -0.862  -0.831  0.00  0.00    +0.000 A 
ATOM      9  C   UNL     1       0.296  -0.869  -0.821  0.00  0.00    +0.000 A 
ENDBRANCH   1   7
BRANCH   2  10
ATOM     10  C   UNL     1      -5.536   1.075  -0.093  0.00  0.00    +0.000 A 
ATOM     11  C   UNL     1      -6.272   0.108   0.605  0.00  0.00    +0.000 A 
ATOM     12  C   UNL     1      -7.672   0.119   0.573  0.00  0.00    +0.000 A 
ATOM     13  C   UNL     1      -8.345   1.108  -0.150  0.00  0.00    +0.000 A 
ATOM     14  C   UNL     1      -7.622   2.084  -0.834  0.00  0.00    +0.000 A 
ATOM     15  C   UNL     1      -6.225   2.070  -0.800  0.00  0.00    +0.000 A 
BRANCH  12  16
ATOM     16  C   UNL     1      -8.414  -0.880   1.285  0.00  0.00    +0.000 C 
ATOM     17  N   UNL     1      -9.016  -1.689   1.861  0.00  0.00    +0.000 NA
ENDBRANCH  12  16
ENDBRANCH   2  10
TORSDOF 3
