REMARK  Name = *****
REMARK  3 active torsions:
REMARK  status: ('A' for Active; 'I' for Inactive)
REMARK    1  A    between atoms: C_1  and  C_2
REMARK    2  A    between atoms: C_5  and  C_8
REMARK    3  A    between atoms: C_10  and  C_11
REMARK                            x       y       z     vdW  Elec       q    Type
REMARK                         _______ _______ _______ _____ _____    ______ ____
ROOT
ATOM      1  C   UNL     1      -3.149   0.340   0.188  0.00  0.00    +0.000 C 
ATOM      2  C   UNL     1      -3.778   0.549  -1.164  0.00  0.00    +0.000 C 
ATOM      3  C   UNL     1      -3.644   1.721  -0.224  0.00  0.00    +0.000 C 
ENDROOT
BRANCH   1   8
ATOM      4  C   UNL     1       2.519  -0.938   0.944  0.00  0.00    +0.000 C 
ATOM      5  C   UNL     1       1.077  -0.588   0.731  0.00  0.00    +0.000 A 
ATOM      6  C   UNL     1       0.339   0.031   1.741  0.00  0.00    +0.000 A 
ATOM      7  C   UNL     1      -1.014   0.328   1.547  0.00  0.00    +0.000 A 
ATOM      8  C   UNL     1      -1.677   0.022   0.346  0.00  0.00    +0.000 A 
ATOM      9  C   UNL     1      -0.925  -0.633  -0.642  0.00  0.00    +0.000 A 
ATOM     10  C   UNL     1       0.430  -0.934  -0.457  0.00  0.00    +0.000 A 
ENDBRANCH   1   8
BRANCH   3  11
ATOM     11  C   UNL     1      -2.711   2.866  -0.559  0.00  0.00    +0.000 A 
ATOM     12  C   UNL     1      -2.574   3.357  -1.869  0.00  0.00    +0.000 A 
ATOM     13  C   UNL     1      -1.731   4.432  -2.165  0.00  0.00    +0.000 A 
ATOM     14  C   UNL     1      -1.010   5.052  -1.150  0.00  0.00    +0.000 A 
ATOM     15  C   UNL     1      -1.140   4.601   0.160  0.00  0.00    +0.000 A 
ATOM     16  C   UNL     1      -1.987   3.527   0.448  0.00  0.00    +0.000 A 
ENDBRANCH   3  11
TORSDOF 2
