REMARK  Name = *****
REMARK  3 active torsions:
REMARK  status: ('A' for Active; 'I' for Inactive)
REMARK    1  A    between atoms: C_3  and  C_8
REMARK    2  A    between atoms: C_8  and  O_10
REMARK    3  A    between atoms: O_10  and  C_11
REMARK                            x       y       z     vdW  Elec       q    Type
REMARK                         _______ _______ _______ _____ _____    ______ ____
ROOT
ATOM      1  C   UNL     1       2.193   2.391  -0.574  0.00  0.00    +0.000 C 
ATOM      2  O   UNL     1       3.290   2.731  -0.157  0.00  0.00    +0.000 OA
ENDROOT
BRANCH   1   5
ATOM      3  C   UNL     1       1.684  -0.984   1.035  0.00  0.00    +0.000 A 
ATOM      4  C   UNL     1       2.250   0.229   0.638  0.00  0.00    +0.000 A 
ATOM      5  C   UNL     1       1.535   1.112  -0.185  0.00  0.00    +0.000 A 
ATOM      6  C   UNL     1       0.243   0.770  -0.605  0.00  0.00    +0.000 A 
ATOM      7  C   UNL     1      -0.315  -0.444  -0.202  0.00  0.00    +0.000 A 
ATOM      8  C   UNL     1       0.398  -1.321   0.614  0.00  0.00    +0.000 A 
ATOM      9 CL   UNL     1      -1.903  -0.863  -0.717  0.00  0.00    +0.000 Cl
ENDBRANCH   1   5
BRANCH   1  10
ATOM     10  O   UNL     1       1.384   3.088  -1.452  0.00  0.00    +0.000 OA
BRANCH  10  11
ATOM     11  C   UNL     1       1.918   4.303  -1.894  0.00  0.00    +0.000 A 
ATOM     12  C   UNL     1       1.265   5.476  -1.522  0.00  0.00    +0.000 A 
ATOM     13  C   UNL     1       1.750   6.690  -1.996  0.00  0.00    +0.000 A 
ATOM     14  C   UNL     1       2.855   6.746  -2.837  0.00  0.00    +0.000 A 
ATOM     15  C   UNL     1       3.477   5.560  -3.210  0.00  0.00    +0.000 A 
ATOM     16  C   UNL     1       3.015   4.330  -2.754  0.00  0.00    +0.000 A 
ATOM     17  F   UNL     1       4.534   5.602  -4.031  0.00  0.00    +0.000 F 
ATOM     18  F   UNL     1       1.135   7.826  -1.642  0.00  0.00    +0.000 F 
ENDBRANCH  10  11
ENDBRANCH   1  10
TORSDOF 3
