REMARK  Name = *****
REMARK  2 active torsions:
REMARK  status: ('A' for Active; 'I' for Inactive)
REMARK    1  A    between atoms: C_4  and  C_7
REMARK    2  A    between atoms: C_8  and  C_9
REMARK                            x       y       z     vdW  Elec       q    Type
REMARK                         _______ _______ _______ _____ _____    ______ ____
ROOT
ATOM      1  C   UNL     1      -2.731   0.370  -0.385  0.00  0.00    +0.000 C 
ATOM      2  C   UNL     1      -3.619  -0.632  -0.283  0.00  0.00    +0.000 C 
ATOM      3 CL   UNL     1      -5.313  -0.293  -0.421  0.00  0.00    +0.000 Cl
ENDROOT
BRANCH   1   7
ATOM      4  C   UNL     1       1.495  -0.101  -0.091  0.00  0.00    +0.000 A 
ATOM      5  C   UNL     1       0.863  -0.233  -1.327  0.00  0.00    +0.000 A 
ATOM      6  C   UNL     1      -0.521  -0.077  -1.425  0.00  0.00    +0.000 A 
ATOM      7  C   UNL     1      -1.278   0.212  -0.285  0.00  0.00    +0.000 A 
ATOM      8  C   UNL     1      -0.640   0.345   0.952  0.00  0.00    +0.000 A 
ATOM      9  C   UNL     1       0.744   0.188   1.048  0.00  0.00    +0.000 A 
ENDBRANCH   1   7
BRANCH   2  10
ATOM     10  C   UNL     1      -3.274  -2.040  -0.054  0.00  0.00    +0.000 A 
ATOM     11  C   UNL     1      -3.164  -2.539   1.250  0.00  0.00    +0.000 A 
ATOM     12  C   UNL     1      -2.826  -3.876   1.467  0.00  0.00    +0.000 A 
ATOM     13  C   UNL     1      -2.595  -4.722   0.382  0.00  0.00    +0.000 A 
ATOM     14  C   UNL     1      -2.703  -4.233  -0.919  0.00  0.00    +0.000 A 
ATOM     15  C   UNL     1      -3.041  -2.896  -1.138  0.00  0.00    +0.000 A 
ENDBRANCH   2  10
TORSDOF 2
