REMARK  Name = *****
REMARK  2 active torsions:
REMARK  status: ('A' for Active; 'I' for Inactive)
REMARK    1  A    between atoms: C_5  and  C_6
REMARK    2  A    between atoms: C_6  and  C_7
REMARK                            x       y       z     vdW  Elec       q    Type
REMARK                         _______ _______ _______ _____ _____    ______ ____
ROOT
ATOM      1  C   UNL     1       2.023  -0.201  -0.398  0.00  0.00    +0.000 C 
ATOM      2  C   UNL     1       1.166  -1.458  -0.257  0.00  0.00    +0.000 C 
ATOM      3  C   UNL     1      -0.263  -1.234  -0.756  0.00  0.00    +0.000 C 
ATOM      4  C   UNL     1      -0.884  -0.032  -0.084  0.00  0.00    +0.000 C 
ATOM      5  C   UNL     1      -2.042  -0.027   0.605  0.00  0.00    +0.000 C 
ATOM      6  C   UNL     1      -0.057   1.229  -0.218  0.00  0.00    +0.000 C 
ATOM      7  C   UNL     1       1.370   1.002   0.283  0.00  0.00    +0.000 C 
ENDROOT
BRANCH   5   8
ATOM      8  C   UNL     1      -2.990  -1.171   0.840  0.00  0.00    +0.000 C 
BRANCH   8   9
ATOM      9  C   UNL     1      -3.010  -1.607   2.286  0.00  0.00    +0.000 A 
ATOM     10  C   UNL     1      -4.007  -1.150   3.159  0.00  0.00    +0.000 A 
ATOM     11  C   UNL     1      -4.011  -1.546   4.498  0.00  0.00    +0.000 A 
ATOM     12  C   UNL     1      -3.017  -2.397   4.978  0.00  0.00    +0.000 A 
ATOM     13  C   UNL     1      -2.016  -2.851   4.121  0.00  0.00    +0.000 A 
ATOM     14  C   UNL     1      -2.010  -2.456   2.783  0.00  0.00    +0.000 A 
ENDBRANCH   8   9
ENDBRANCH   5   8
TORSDOF 2
