REMARK  Name = *****
REMARK  3 active torsions:
REMARK  status: ('A' for Active; 'I' for Inactive)
REMARK    1  A    between atoms: C_4  and  C_7
REMARK    2  A    between atoms: C_7  and  C_9
REMARK    3  A    between atoms: C_9  and  C_10
REMARK                            x       y       z     vdW  Elec       q    Type
REMARK                         _______ _______ _______ _____ _____    ______ ____
ROOT
ATOM      1  C   UNL     1      -3.756  -0.451   0.000  0.00  0.00    +0.000 C 
ENDROOT
BRANCH   1   2
ATOM      2  C   UNL     1      -5.194  -0.069  -0.296  0.00  0.00    +0.000 A 
ATOM      3  C   UNL     1      -6.045  -0.874  -1.086  0.00  0.00    +0.000 A 
ATOM      4  C   UNL     1      -7.381  -0.489  -1.301  0.00  0.00    +0.000 A 
ATOM      5  C   UNL     1      -7.880   0.681  -0.724  0.00  0.00    +0.000 A 
ATOM      6  C   UNL     1      -7.058   1.466   0.077  0.00  0.00    +0.000 A 
ATOM      7  C   UNL     1      -5.733   1.090   0.296  0.00  0.00    +0.000 A 
ATOM      8 CL   UNL     1      -8.475  -1.419  -2.268  0.00  0.00    +0.000 Cl
ATOM      9 CL   UNL     1      -5.446  -2.345  -1.789  0.00  0.00    +0.000 Cl
ENDBRANCH   1   2
BRANCH   1  10
ATOM     10  C   UNL     1      -2.793   0.721   0.072  0.00  0.00    +0.000 C 
ATOM     11  O   UNL     1      -2.481   1.214   1.157  0.00  0.00    +0.000 OA
BRANCH  10  15
ATOM     12  C   UNL     1      -1.089   2.462  -3.471  0.00  0.00    +0.000 A 
ATOM     13  C   UNL     1      -0.666   2.862  -2.206  0.00  0.00    +0.000 A 
ATOM     14  C   UNL     1      -1.231   2.284  -1.068  0.00  0.00    +0.000 A 
ATOM     15  C   UNL     1      -2.223   1.299  -1.185  0.00  0.00    +0.000 A 
ATOM     16  C   UNL     1      -2.643   0.904  -2.461  0.00  0.00    +0.000 A 
ATOM     17  C   UNL     1      -2.076   1.486  -3.599  0.00  0.00    +0.000 A 
ENDBRANCH  10  15
ENDBRANCH   1  10
TORSDOF 3
