REMARK  Name = *****
REMARK  6 active torsions:
REMARK  status: ('A' for Active; 'I' for Inactive)
REMARK    1  A    between atoms: C_1  and  C_2
REMARK    2  A    between atoms: C_2  and  O_4
REMARK    3  A    between atoms: O_4  and  C_5
REMARK    4  A    between atoms: C_5  and  C_6
REMARK    5  A    between atoms: C_5  and  C_13
REMARK    6  A    between atoms: C_6  and  C_7
REMARK                            x       y       z     vdW  Elec       q    Type
REMARK                         _______ _______ _______ _____ _____    ______ ____
ROOT
ATOM      1  C   UNL     1       4.521  -1.109   0.547  0.00  0.00    +0.000 C 
ENDROOT
BRANCH   1   2
ATOM      2  C   UNL     1       5.060  -2.513   0.761  0.00  0.00    +0.000 A 
ATOM      3  C   UNL     1       5.859  -3.116  -0.222  0.00  0.00    +0.000 A 
ATOM      4  C   UNL     1       6.371  -4.401  -0.032  0.00  0.00    +0.000 A 
ATOM      5  C   UNL     1       6.089  -5.100   1.140  0.00  0.00    +0.000 A 
ATOM      6  C   UNL     1       5.293  -4.516   2.123  0.00  0.00    +0.000 A 
ATOM      7  C   UNL     1       4.780  -3.231   1.936  0.00  0.00    +0.000 A 
ENDBRANCH   1   2
BRANCH   1   8
ATOM      8  O   UNL     1       3.101  -1.127   0.795  0.00  0.00    +0.000 OA
BRANCH   8  10
ATOM      9  C   UNL     1       0.866  -1.132   0.112  0.00  0.00    +0.000 C 
ATOM     10  C   UNL     1       2.305  -1.149  -0.306  0.00  0.00    +0.000 C 
ATOM     11  O   UNL     1       2.681  -1.185  -1.469  0.00  0.00    +0.000 OA
ENDBRANCH   8  10
ENDBRANCH   1   8
BRANCH   1  12
ATOM     12  C   UNL     1       5.178  -0.113   1.524  0.00  0.00    +0.000 C 
BRANCH  12  13
ATOM     13  C   UNL     1       4.789   1.320   1.230  0.00  0.00    +0.000 A 
ATOM     14  C   UNL     1       3.793   1.954   1.985  0.00  0.00    +0.000 A 
ATOM     15  C   UNL     1       3.418   3.267   1.699  0.00  0.00    +0.000 A 
ATOM     16  C   UNL     1       4.031   3.957   0.655  0.00  0.00    +0.000 A 
ATOM     17  C   UNL     1       5.020   3.334  -0.104  0.00  0.00    +0.000 A 
ATOM     18  C   UNL     1       5.399   2.022   0.181  0.00  0.00    +0.000 A 
ENDBRANCH  12  13
ENDBRANCH   1  12
TORSDOF 5
