REMARK  Name = *****
REMARK  5 active torsions:
REMARK  status: ('A' for Active; 'I' for Inactive)
REMARK    1  A    between atoms: C_1  and  N_2
REMARK    2  A    between atoms: N_2  and  C_3
REMARK    3  A    between atoms: N_2  and  C_4
REMARK    4  A    between atoms: C_9  and  C_10
REMARK    5  A    between atoms: C_11  and  C_12
REMARK                            x       y       z     vdW  Elec       q    Type
REMARK                         _______ _______ _______ _____ _____    ______ ____
ROOT
ATOM      1  C   UNL     1       3.053   1.059  -0.037  0.00  0.00    +0.000 A 
ATOM      2  C   UNL     1       2.746   2.070   0.897  0.00  0.00    +0.000 A 
ATOM      3  C   UNL     1       3.522   3.229   1.027  0.00  0.00    +0.000 A 
ATOM      4  C   UNL     1       4.631   3.419   0.215  0.00  0.00    +0.000 A 
ATOM      5  C   UNL     1       4.958   2.451  -0.730  0.00  0.00    +0.000 A 
ATOM      6  C   UNL     1       4.183   1.285  -0.865  0.00  0.00    +0.000 A 
ENDROOT
BRANCH   1   8
ATOM      7  C   UNL     1       0.885  -0.073   0.355  0.00  0.00    +0.000 C 
ATOM      8  N   UNL     1       2.258  -0.093  -0.135  0.00  0.00    +0.000 N 
ATOM      9  C   UNL     1       2.950  -1.378  -0.028  0.00  0.00    +0.000 C 
ENDBRANCH   1   8
BRANCH   6  10
ATOM     10  C   UNL     1       4.573   0.379  -1.910  0.00  0.00    +0.000 C 
ATOM     11  C   UNL     1       4.921  -0.372  -2.781  0.00  0.00    +0.000 C 
BRANCH  11  12
ATOM     12  C   UNL     1       5.336  -1.281  -3.799  0.00  0.00    +0.000 C 
ATOM     13  C   UNL     1       6.000  -0.811  -4.869  0.00  0.00    +0.000 C 
ATOM     14  C   UNL     1       6.474  -1.676  -6.001  0.00  0.00    +0.000 C 
ATOM     15  C   UNL     1       5.876  -3.084  -5.979  0.00  0.00    +0.000 C 
ATOM     16  C   UNL     1       5.848  -3.648  -4.563  0.00  0.00    +0.000 C 
ATOM     17  C   UNL     1       5.033  -2.750  -3.629  0.00  0.00    +0.000 C 
ENDBRANCH  11  12
ENDBRANCH   6  10
TORSDOF 3
