REMARK  Name = *****
REMARK  3 active torsions:
REMARK  status: ('A' for Active; 'I' for Inactive)
REMARK    1  A    between atoms: C_4  and  C_7
REMARK    2  A    between atoms: C_7  and  O_9
REMARK    3  A    between atoms: O_9  and  C_10
REMARK                            x       y       z     vdW  Elec       q    Type
REMARK                         _______ _______ _______ _____ _____    ______ ____
ROOT
ATOM      1  C   UNL     1      -2.701   0.144   0.501  0.00  0.00    +0.000 C 
ATOM      2  O   UNL     1      -3.332   1.182   0.366  0.00  0.00    +0.000 OA
ENDROOT
BRANCH   1   6
ATOM      3  C   UNL     1       1.420  -0.142  -0.664  0.00  0.00    +0.000 A 
ATOM      4  C   UNL     1       0.782  -1.267  -0.142  0.00  0.00    +0.000 A 
ATOM      5  C   UNL     1      -0.560  -1.198   0.242  0.00  0.00    +0.000 A 
ATOM      6  C   UNL     1      -1.270   0.004   0.106  0.00  0.00    +0.000 A 
ATOM      7  C   UNL     1      -0.620   1.129  -0.420  0.00  0.00    +0.000 A 
ATOM      8  C   UNL     1       0.721   1.055  -0.803  0.00  0.00    +0.000 A 
ENDBRANCH   1   6
BRANCH   1   9
ATOM      9  O   UNL     1      -3.160  -1.050   1.024  0.00  0.00    +0.000 OA
BRANCH   9  10
ATOM     10  C   UNL     1      -4.491  -0.986   1.441  0.00  0.00    +0.000 A 
ATOM     11  C   UNL     1      -4.784  -0.553   2.732  0.00  0.00    +0.000 A 
ATOM     12  C   UNL     1      -6.113  -0.542   3.148  0.00  0.00    +0.000 A 
ATOM     13  C   UNL     1      -7.129  -0.972   2.293  0.00  0.00    +0.000 A 
ATOM     14  C   UNL     1      -6.817  -1.422   1.007  0.00  0.00    +0.000 A 
ATOM     15  C   UNL     1      -5.490  -1.437   0.579  0.00  0.00    +0.000 A 
ATOM     16 CL   UNL     1      -6.506  -0.004   4.735  0.00  0.00    +0.000 Cl
ENDBRANCH   9  10
ENDBRANCH   1   9
TORSDOF 3
