REMARK  Name = *****
REMARK  1 active torsions:
REMARK  status: ('A' for Active; 'I' for Inactive)
REMARK    1  A    between atoms: C_10  and  C_12
REMARK                            x       y       z     vdW  Elec       q    Type
REMARK                         _______ _______ _______ _____ _____    ______ ____
ROOT
ATOM      1  C   UNL     1       3.504   1.427  -0.800  0.00  0.00    +0.000 C 
ATOM      2  C   UNL     1       3.666   1.090   0.694  0.00  0.00    +0.000 C 
ATOM      3  C   UNL     1       2.210   0.944   1.174  0.00  0.00    +0.000 C 
ATOM      4  C   UNL     1       1.518   2.031   0.344  0.00  0.00    +0.000 C 
ATOM      5  C   UNL     1       1.974   1.433  -0.991  0.00  0.00    +0.000 C 
ATOM      6  C   UNL     1       1.475  -0.029  -0.911  0.00  0.00    +0.000 C 
ATOM      7  C   UNL     1       1.643  -0.359   0.581  0.00  0.00    +0.000 C 
ATOM      8  C   UNL     1       0.236  -0.672   1.022  0.00  0.00    +0.000 C 
ATOM      9  O   UNL     1      -0.071  -0.935   2.176  0.00  0.00    +0.000 OA
ATOM     10  C   UNL     1      -0.719  -0.613  -0.119  0.00  0.00    +0.000 C 
ATOM     11  C   UNL     1       0.014  -0.224  -1.175  0.00  0.00    +0.000 C 
ENDROOT
BRANCH  10  12
ATOM     12  C   UNL     1      -2.163  -0.861  -0.085  0.00  0.00    +0.000 A 
ATOM     13  C   UNL     1      -2.917  -0.589   1.065  0.00  0.00    +0.000 A 
ATOM     14  C   UNL     1      -4.294  -0.829   1.096  0.00  0.00    +0.000 A 
ATOM     15  C   UNL     1      -4.938  -1.348  -0.024  0.00  0.00    +0.000 A 
ATOM     16  C   UNL     1      -4.206  -1.629  -1.173  0.00  0.00    +0.000 A 
ATOM     17  C   UNL     1      -2.829  -1.389  -1.203  0.00  0.00    +0.000 A 
ENDBRANCH  10  12
TORSDOF 1
