REMARK  Name = *****
REMARK  4 active torsions:
REMARK  status: ('A' for Active; 'I' for Inactive)
REMARK    1  A    between atoms: C_1  and  N_2
REMARK    2  A    between atoms: N_2  and  C_3
REMARK    3  A    between atoms: N_2  and  C_9
REMARK    4  A    between atoms: C_9  and  C_11
REMARK                            x       y       z     vdW  Elec       q    Type
REMARK                         _______ _______ _______ _____ _____    ______ ____
ROOT
ATOM      1  C   UNL     1       1.629  -1.342   0.702  0.00  0.00    +0.000 C 
ATOM      2  N   UNL     1       2.775  -0.520   0.290  0.00  0.00    +0.000 N 
ENDROOT
BRANCH   2   3
ATOM      3  C   UNL     1       3.366   0.266   1.321  0.00  0.00    +0.000 A 
ATOM      4  C   UNL     1       2.635   0.729   2.430  0.00  0.00    +0.000 A 
ATOM      5  C   UNL     1       3.236   1.485   3.445  0.00  0.00    +0.000 A 
ATOM      6  C   UNL     1       4.589   1.798   3.377  0.00  0.00    +0.000 A 
ATOM      7  C   UNL     1       5.339   1.356   2.295  0.00  0.00    +0.000 A 
ATOM      8  C   UNL     1       4.734   0.601   1.284  0.00  0.00    +0.000 A 
ENDBRANCH   2   3
BRANCH   2   9
ATOM      9  C   UNL     1       3.295  -0.609  -1.007  0.00  0.00    +0.000 C 
ATOM     10  C   UNL     1       3.672   0.444  -1.754  0.00  0.00    +0.000 C 
BRANCH   9  11
ATOM     11  C   UNL     1       3.470  -1.963  -1.592  0.00  0.00    +0.000 A 
ATOM     12  C   UNL     1       4.222  -2.925  -0.902  0.00  0.00    +0.000 A 
ATOM     13  C   UNL     1       4.393  -4.207  -1.427  0.00  0.00    +0.000 A 
ATOM     14  C   UNL     1       3.813  -4.541  -2.650  0.00  0.00    +0.000 A 
ATOM     15  C   UNL     1       3.060  -3.596  -3.345  0.00  0.00    +0.000 A 
ATOM     16  C   UNL     1       2.888  -2.314  -2.819  0.00  0.00    +0.000 A 
ENDBRANCH   9  11
ENDBRANCH   2   9
TORSDOF 3
