REMARK  Name = *****
REMARK  3 active torsions:
REMARK  status: ('A' for Active; 'I' for Inactive)
REMARK    1  A    between atoms: C_4  and  C_8
REMARK    2  A    between atoms: C_8  and  O_10
REMARK    3  A    between atoms: O_10  and  C_11
REMARK                            x       y       z     vdW  Elec       q    Type
REMARK                         _______ _______ _______ _____ _____    ______ ____
ROOT
ATOM      1  C   UNL     1       0.039   2.107   0.880  0.00  0.00    +0.000 C 
ATOM      2  O   UNL     1      -0.958   2.811   0.885  0.00  0.00    +0.000 OA
ENDROOT
BRANCH   1   6
ATOM      3  C   UNL     1       0.131  -1.793  -0.837  0.00  0.00    +0.000 A 
ATOM      4  C   UNL     1      -0.414  -0.721  -1.546  0.00  0.00    +0.000 A 
ATOM      5  C   UNL     1      -0.436   0.551  -0.975  0.00  0.00    +0.000 A 
ATOM      6  C   UNL     1       0.087   0.765   0.295  0.00  0.00    +0.000 A 
ATOM      7  C   UNL     1       0.623  -0.308   1.001  0.00  0.00    +0.000 A 
ATOM      8  C   UNL     1       0.650  -1.585   0.441  0.00  0.00    +0.000 A 
ATOM      9  F   UNL     1       1.104  -0.143   2.242  0.00  0.00    +0.000 F 
ATOM     10  F   UNL     1      -0.950   1.562  -1.689  0.00  0.00    +0.000 F 
ENDBRANCH   1   6
BRANCH   1  11
ATOM     11  O   UNL     1       1.297   2.409   1.363  0.00  0.00    +0.000 OA
BRANCH  11  12
ATOM     12  C   UNL     1       1.363   3.712   1.861  0.00  0.00    +0.000 A 
ATOM     13  C   UNL     1       1.730   4.777   1.032  0.00  0.00    +0.000 A 
ATOM     14  C   UNL     1       1.820   6.064   1.561  0.00  0.00    +0.000 A 
ATOM     15  C   UNL     1       1.556   6.268   2.916  0.00  0.00    +0.000 A 
ATOM     16  C   UNL     1       1.209   5.200   3.748  0.00  0.00    +0.000 A 
ATOM     17  C   UNL     1       1.119   3.911   3.221  0.00  0.00    +0.000 A 
ATOM     18 CL   UNL     1       1.670   7.853   3.575  0.00  0.00    +0.000 Cl
ATOM     19 CL   UNL     1       2.092   4.532  -0.637  0.00  0.00    +0.000 Cl
ENDBRANCH  11  12
ENDBRANCH   1  11
TORSDOF 3
