REMARK  Name = *****
REMARK  4 active torsions:
REMARK  status: ('A' for Active; 'I' for Inactive)
REMARK    1  A    between atoms: C_1  and  O_2
REMARK    2  A    between atoms: O_2  and  C_3
REMARK    3  A    between atoms: C_6  and  C_9
REMARK    4  A    between atoms: C_10  and  C_11
REMARK                            x       y       z     vdW  Elec       q    Type
REMARK                         _______ _______ _______ _____ _____    ______ ____
ROOT
ATOM      1  C   UNL     1       5.446   3.571   3.031  0.00  0.00    +0.000 C 
ATOM      2  C   UNL     1       6.578   4.065   2.503  0.00  0.00    +0.000 C 
ATOM      3  F   UNL     1       5.028   4.123   4.197  0.00  0.00    +0.000 F 
ENDROOT
BRANCH   1   7
ATOM      4  C   UNL     1       2.835   0.527   1.501  0.00  0.00    +0.000 A 
ATOM      5  C   UNL     1       4.215   0.334   1.466  0.00  0.00    +0.000 A 
ATOM      6  C   UNL     1       5.077   1.321   1.961  0.00  0.00    +0.000 A 
ATOM      7  C   UNL     1       4.575   2.520   2.484  0.00  0.00    +0.000 A 
ATOM      8  C   UNL     1       3.187   2.695   2.534  0.00  0.00    +0.000 A 
ATOM      9  C   UNL     1       2.327   1.710   2.040  0.00  0.00    +0.000 A 
BRANCH   4  11
ATOM     10  C   UNL     1       2.355  -1.576   0.502  0.00  0.00    +0.000 C 
ATOM     11  O   UNL     1       1.887  -0.351   1.053  0.00  0.00    +0.000 OA
ENDBRANCH   4  11
ENDBRANCH   1   7
BRANCH   2  12
ATOM     12  C   UNL     1       7.206   3.710   1.227  0.00  0.00    +0.000 A 
ATOM     13  C   UNL     1       6.509   3.803   0.016  0.00  0.00    +0.000 A 
ATOM     14  C   UNL     1       7.137   3.477  -1.188  0.00  0.00    +0.000 A 
ATOM     15  C   UNL     1       8.470   3.069  -1.191  0.00  0.00    +0.000 A 
ATOM     16  C   UNL     1       9.177   2.990   0.007  0.00  0.00    +0.000 A 
ATOM     17  C   UNL     1       8.549   3.315   1.212  0.00  0.00    +0.000 A 
ENDBRANCH   2  12
TORSDOF 3
