REMARK  Name = *****
REMARK  3 active torsions:
REMARK  status: ('A' for Active; 'I' for Inactive)
REMARK    1  A    between atoms: C_4  and  C_6
REMARK    2  A    between atoms: C_7  and  C_8
REMARK    3  A    between atoms: C_7  and  C_10
REMARK                            x       y       z     vdW  Elec       q    Type
REMARK                         _______ _______ _______ _____ _____    ______ ____
ROOT
ATOM      1  C   UNL     1       0.044  -2.685  -0.139  0.00  0.00    +0.000 C 
ATOM      2  C   UNL     1       0.961  -3.672  -0.050  0.00  0.00    +0.000 C 
ENDROOT
BRANCH   1   6
ATOM      3  C   UNL     1       1.246   0.863  -0.264  0.00  0.00    +0.000 A 
ATOM      4  C   UNL     1       0.090   1.139   0.426  0.00  0.00    +0.000 A 
ATOM      5  S   UNL     1      -0.837  -0.265   0.707  0.00  0.00    +0.000 S 
ATOM      6  C   UNL     1       0.322  -1.286  -0.070  0.00  0.00    +0.000 A 
ATOM      7  C   UNL     1       1.373  -0.527  -0.558  0.00  0.00    +0.000 A 
ENDBRANCH   1   6
BRANCH   2   8
ATOM      8  C   UNL     1       0.490  -5.030  -0.123  0.00  0.00    +0.000 A 
ATOM      9  C   UNL     1      -0.592  -5.625   0.513  0.00  0.00    +0.000 A 
ATOM     10  C   UNL     1      -0.751  -7.003   0.186  0.00  0.00    +0.000 A 
ATOM     11  C   UNL     1       0.213  -7.435  -0.693  0.00  0.00    +0.000 A 
ATOM     12  S   UNL     1       1.297  -6.188  -1.119  0.00  0.00    +0.000 S 
ENDBRANCH   2   8
BRANCH   2  13
ATOM     13  C   UNL     1       2.357  -3.424   0.154  0.00  0.00    +0.000 C 
ATOM     14  N   UNL     1       3.489  -3.223   0.315  0.00  0.00    +0.000 NA
ENDBRANCH   2  13
TORSDOF 3
