REMARK  Name = *****
REMARK  3 active torsions:
REMARK  status: ('A' for Active; 'I' for Inactive)
REMARK    1  A    between atoms: C_6  and  O_7
REMARK    2  A    between atoms: O_7  and  C_8
REMARK    3  A    between atoms: C_8  and  C_9
REMARK                            x       y       z     vdW  Elec       q    Type
REMARK                         _______ _______ _______ _____ _____    ______ ____
ROOT
ATOM      1  O   UNL     1      -2.977   1.370  -0.417  0.00  0.00    +0.000 OA
ENDROOT
BRANCH   1   7
ATOM      2  C   UNL     1       1.069  -1.276  -0.361  0.00  0.00    +0.000 C 
ATOM      3  C   UNL     1       1.941  -0.113   0.116  0.00  0.00    +0.000 C 
ATOM      4  C   UNL     1       1.198   1.191   0.131  0.00  0.00    +0.000 C 
ATOM      5  C   UNL     1      -0.139   1.279   0.066  0.00  0.00    +0.000 C 
ATOM      6  C   UNL     1      -0.996   0.106   0.027  0.00  0.00    +0.000 C 
ATOM      7  C   UNL     1      -2.315   0.187  -0.209  0.00  0.00    +0.000 C 
ATOM      8  C   UNL     1      -0.321  -1.224   0.273  0.00  0.00    +0.000 C 
ENDBRANCH   1   7
BRANCH   1   9
ATOM      9  C   UNL     1      -4.133   1.209  -1.243  0.00  0.00    +0.000 C 
BRANCH   9  10
ATOM     10  C   UNL     1      -4.757   2.562  -1.483  0.00  0.00    +0.000 A 
ATOM     11  C   UNL     1      -4.898   3.067  -2.783  0.00  0.00    +0.000 A 
ATOM     12  C   UNL     1      -5.490   4.313  -2.998  0.00  0.00    +0.000 A 
ATOM     13  C   UNL     1      -5.947   5.066  -1.918  0.00  0.00    +0.000 A 
ATOM     14  C   UNL     1      -5.811   4.575  -0.621  0.00  0.00    +0.000 A 
ATOM     15  C   UNL     1      -5.220   3.329  -0.404  0.00  0.00    +0.000 A 
ENDBRANCH   9  10
ENDBRANCH   1   9
TORSDOF 3
