REMARK  Name = *****
REMARK  4 active torsions:
REMARK  status: ('A' for Active; 'I' for Inactive)
REMARK    1  A    between atoms: C_1  and  C_2
REMARK    2  A    between atoms: C_2  and  C_3
REMARK    3  A    between atoms: C_2  and  C_10
REMARK    4  A    between atoms: C_10  and  C_12
REMARK                            x       y       z     vdW  Elec       q    Type
REMARK                         _______ _______ _______ _____ _____    ______ ____
ROOT
ATOM      1  C   UNL     1       1.046  -0.001  -0.191  0.00  0.00    +0.000 C 
ATOM      2  C   UNL     1       2.566   0.122  -0.030  0.00  0.00    +0.000 C 
ATOM      3  F   UNL     1       3.092  -0.779  -0.928  0.00  0.00    +0.000 F 
ENDROOT
BRANCH   2   4
ATOM      4  C   UNL     1       2.994   1.554  -0.363  0.00  0.00    +0.000 A 
ATOM      5  C   UNL     1       2.751   2.622   0.518  0.00  0.00    +0.000 A 
ATOM      6  C   UNL     1       3.143   3.922   0.188  0.00  0.00    +0.000 A 
ATOM      7  C   UNL     1       3.774   4.169  -1.028  0.00  0.00    +0.000 A 
ATOM      8  C   UNL     1       4.014   3.127  -1.920  0.00  0.00    +0.000 A 
ATOM      9  C   UNL     1       3.623   1.827  -1.590  0.00  0.00    +0.000 A 
ATOM     10 CL   UNL     1       4.255   5.770  -1.434  0.00  0.00    +0.000 Cl
ENDBRANCH   2   4
BRANCH   2  11
ATOM     11  C   UNL     1       2.965  -0.267   1.407  0.00  0.00    +0.000 C 
ATOM     12  O   UNL     1       2.198  -0.113   2.363  0.00  0.00    +0.000 OA
BRANCH  11  13
ATOM     13  C   UNL     1       4.336  -0.802   1.684  0.00  0.00    +0.000 A 
ATOM     14  C   UNL     1       5.379  -0.761   0.752  0.00  0.00    +0.000 A 
ATOM     15  C   UNL     1       6.640  -1.270   1.079  0.00  0.00    +0.000 A 
ATOM     16  C   UNL     1       6.870  -1.821   2.338  0.00  0.00    +0.000 A 
ATOM     17  C   UNL     1       5.842  -1.862   3.276  0.00  0.00    +0.000 A 
ATOM     18  C   UNL     1       4.582  -1.354   2.952  0.00  0.00    +0.000 A 
ENDBRANCH  11  13
ENDBRANCH   2  11
TORSDOF 3
