REMARK  Name = *****
REMARK  4 active torsions:
REMARK  status: ('A' for Active; 'I' for Inactive)
REMARK    1  A    between atoms: C_4  and  O_7
REMARK    2  A    between atoms: O_7  and  P_8
REMARK    3  A    between atoms: P_8  and  O_10
REMARK    4  A    between atoms: O_10  and  C_11
REMARK                            x       y       z     vdW  Elec       q    Type
REMARK                         _______ _______ _______ _____ _____    ______ ____
ROOT
ATOM      1  P   UNL     1       3.069  -2.685   0.323  0.00  0.00    +0.000 P 
ATOM      2  O   UNL     1       2.571  -3.462  -0.807  0.00  0.00    +0.000 OA
ENDROOT
BRANCH   1   3
ATOM      3  O   UNL     1       2.554  -1.227  -0.161  0.00  0.00    +0.000 OA
BRANCH   3   7
ATOM      4  C   UNL     1      -1.058   0.958   0.314  0.00  0.00    +0.000 C 
ATOM      5  C   UNL     1      -0.559   0.650  -1.094  0.00  0.00    +0.000 C 
ATOM      6  C   UNL     1       0.903   0.215  -1.090  0.00  0.00    +0.000 C 
ATOM      7  C   UNL     1       1.147  -0.973  -0.149  0.00  0.00    +0.000 C 
ATOM      8  C   UNL     1       0.655  -0.632   1.266  0.00  0.00    +0.000 C 
ATOM      9  C   UNL     1      -0.811  -0.207   1.266  0.00  0.00    +0.000 C 
ENDBRANCH   3   7
ENDBRANCH   1   3
BRANCH   1  10
ATOM     10  O   UNL     1       4.610  -2.596  -0.157  0.00  0.00    +0.000 OA
BRANCH  10  11
ATOM     11  C   UNL     1       5.417  -1.469   0.182  0.00  0.00    +0.000 C 
ATOM     12  C   UNL     1       6.713  -1.612  -0.630  0.00  0.00    +0.000 C 
ATOM     13  C   UNL     1       7.723  -0.517  -0.311  0.00  0.00    +0.000 C 
ATOM     14  C   UNL     1       8.021  -0.447   1.183  0.00  0.00    +0.000 C 
ATOM     15  C   UNL     1       6.743  -0.299   2.000  0.00  0.00    +0.000 C 
ATOM     16  C   UNL     1       5.740  -1.406   1.683  0.00  0.00    +0.000 C 
ENDBRANCH  10  11
ENDBRANCH   1  10
TORSDOF 4
