REMARK  Name = *****
REMARK  6 active torsions:
REMARK  status: ('A' for Active; 'I' for Inactive)
REMARK    1  A    between atoms: C_1  and  O_2
REMARK    2  A    between atoms: O_2  and  C_3
REMARK    3  A    between atoms: C_8  and  C_9
REMARK    4  A    between atoms: C_9  and  S_11
REMARK    5  A    between atoms: S_11  and  C_12
REMARK    6  A    between atoms: C_12  and  C_13
REMARK                            x       y       z     vdW  Elec       q    Type
REMARK                         _______ _______ _______ _____ _____    ______ ____
ROOT
ATOM      1  C   UNL     1       4.293  -0.960   1.448  0.00  0.00    +0.000 C 
ATOM      2  O   UNL     1       5.442  -1.017   1.869  0.00  0.00    +0.000 OA
ENDROOT
BRANCH   1   8
ATOM      3  C   UNL     1       3.222  -0.651  -0.826  0.00  0.00    +0.000 A 
ATOM      4  C   UNL     1       2.969  -1.168  -2.103  0.00  0.00    +0.000 A 
ATOM      5  C   UNL     1       3.450  -2.430  -2.468  0.00  0.00    +0.000 A 
ATOM      6  C   UNL     1       4.201  -3.183  -1.570  0.00  0.00    +0.000 A 
ATOM      7  C   UNL     1       4.468  -2.677  -0.299  0.00  0.00    +0.000 A 
ATOM      8  C   UNL     1       3.968  -1.422   0.080  0.00  0.00    +0.000 A 
BRANCH   3  10
ATOM      9  C   UNL     1       1.707   1.160  -1.085  0.00  0.00    +0.000 C 
ATOM     10  O   UNL     1       2.848   0.608  -0.437  0.00  0.00    +0.000 OA
ENDBRANCH   3  10
ENDBRANCH   1   8
BRANCH   1  11
ATOM     11  S   UNL     1       2.946  -0.494   2.476  0.00  0.00    +0.000 S 
BRANCH  11  12
ATOM     12  C   UNL     1       3.868   0.513   3.670  0.00  0.00    +0.000 C 
BRANCH  12  13
ATOM     13  C   UNL     1       2.938   1.281   4.577  0.00  0.00    +0.000 A 
ATOM     14  C   UNL     1       2.487   0.719   5.780  0.00  0.00    +0.000 A 
ATOM     15  C   UNL     1       1.619   1.430   6.611  0.00  0.00    +0.000 A 
ATOM     16  C   UNL     1       1.189   2.704   6.246  0.00  0.00    +0.000 A 
ATOM     17  C   UNL     1       1.623   3.270   5.049  0.00  0.00    +0.000 A 
ATOM     18  C   UNL     1       2.491   2.561   4.216  0.00  0.00    +0.000 A 
ENDBRANCH  12  13
ENDBRANCH  11  12
ENDBRANCH   1  11
TORSDOF 5
