REMARK  Name = *****
REMARK  3 active torsions:
REMARK  status: ('A' for Active; 'I' for Inactive)
REMARK    1  A    between atoms: C_3  and  O_8
REMARK    2  A    between atoms: O_8  and  C_9
REMARK    3  A    between atoms: C_9  and  C_11
REMARK                            x       y       z     vdW  Elec       q    Type
REMARK                         _______ _______ _______ _____ _____    ______ ____
ROOT
ATOM      1  C   UNL     1       1.723   3.690  -0.529  0.00  0.00    +0.000 C 
ATOM      2  O   UNL     1       0.504   3.744  -0.477  0.00  0.00    +0.000 OA
ENDROOT
BRANCH   1   3
ATOM      3  C   UNL     1       2.598   4.883  -0.343  0.00  0.00    +0.000 A 
ATOM      4  C   UNL     1       4.000   4.809  -0.376  0.00  0.00    +0.000 A 
ATOM      5  C   UNL     1       4.767   5.963  -0.193  0.00  0.00    +0.000 A 
ATOM      6  C   UNL     1       4.135   7.183   0.021  0.00  0.00    +0.000 A 
ATOM      7  C   UNL     1       2.749   7.275   0.056  0.00  0.00    +0.000 A 
ATOM      8  C   UNL     1       1.978   6.124  -0.125  0.00  0.00    +0.000 A 
ATOM      9  F   UNL     1       4.874   8.286   0.195  0.00  0.00    +0.000 F 
ENDBRANCH   1   3
BRANCH   1  10
ATOM     10  O   UNL     1       2.501   2.571  -0.761  0.00  0.00    +0.000 OA
BRANCH  10  13
ATOM     11  C   UNL     1       1.076  -0.757  -0.151  0.00  0.00    +0.000 A 
ATOM     12  C   UNL     1       1.764   0.440   0.047  0.00  0.00    +0.000 A 
ATOM     13  C   UNL     1       1.762   1.402  -0.962  0.00  0.00    +0.000 A 
ATOM     14  C   UNL     1       1.117   1.181  -2.178  0.00  0.00    +0.000 A 
ATOM     15  C   UNL     1       0.433  -0.018  -2.363  0.00  0.00    +0.000 A 
ATOM     16  C   UNL     1       0.407  -0.985  -1.356  0.00  0.00    +0.000 A 
ATOM     17 CL   UNL     1      -0.381  -0.315  -3.850  0.00  0.00    +0.000 Cl
ENDBRANCH  10  13
ENDBRANCH   1  10
TORSDOF 3
