REMARK  Name = *****
REMARK  3 active torsions:
REMARK  status: ('A' for Active; 'I' for Inactive)
REMARK    1  A    between atoms: C_4  and  C_7
REMARK    2  A    between atoms: C_8  and  C_9
REMARK    3  A    between atoms: C_8  and  C_11
REMARK                            x       y       z     vdW  Elec       q    Type
REMARK                         _______ _______ _______ _____ _____    ______ ____
ROOT
ATOM      1  C   UNL     1      -2.833   0.309  -0.279  0.00  0.00    +0.000 C 
ATOM      2  C   UNL     1      -3.712  -0.712  -0.226  0.00  0.00    +0.000 C 
ENDROOT
BRANCH   1   6
ATOM      3  C   UNL     1       1.375   0.024   0.364  0.00  0.00    +0.000 A 
ATOM      4  C   UNL     1       0.879   0.454  -0.866  0.00  0.00    +0.000 A 
ATOM      5  C   UNL     1      -0.500   0.542  -1.072  0.00  0.00    +0.000 A 
ATOM      6  C   UNL     1      -1.389   0.194  -0.050  0.00  0.00    +0.000 A 
ATOM      7  C   UNL     1      -0.884  -0.225   1.186  0.00  0.00    +0.000 A 
ATOM      8  C   UNL     1       0.494  -0.314   1.391  0.00  0.00    +0.000 A 
ENDBRANCH   1   6
BRANCH   2   9
ATOM      9  C   UNL     1      -5.149  -0.432  -0.447  0.00  0.00    +0.000 A 
ATOM     10  C   UNL     1      -5.584   0.250  -1.593  0.00  0.00    +0.000 A 
ATOM     11  C   UNL     1      -6.943   0.498  -1.803  0.00  0.00    +0.000 A 
ATOM     12  C   UNL     1      -7.883   0.066  -0.870  0.00  0.00    +0.000 A 
ATOM     13  C   UNL     1      -7.466  -0.616   0.271  0.00  0.00    +0.000 A 
ATOM     14  C   UNL     1      -6.107  -0.865   0.480  0.00  0.00    +0.000 A 
ENDBRANCH   2   9
BRANCH   2  15
ATOM     15  C   UNL     1      -3.357  -2.151   0.043  0.00  0.00    +0.000 C 
ATOM     16  F   UNL     1      -3.565  -2.464   1.354  0.00  0.00    +0.000 F 
ENDBRANCH   2  15
TORSDOF 3
