REMARK  Name = *****
REMARK  3 active torsions:
REMARK  status: ('A' for Active; 'I' for Inactive)
REMARK    1  A    between atoms: C_1  and  C_2
REMARK    2  A    between atoms: C_7  and  C_8
REMARK    3  A    between atoms: C_9  and  C_10
REMARK                            x       y       z     vdW  Elec       q    Type
REMARK                         _______ _______ _______ _____ _____    ______ ____
ROOT
ATOM      1  C   UNL     1       0.930   0.226   0.219  0.00  0.00    +0.000 C 
ATOM      2  C   UNL     1       2.451   0.098   0.086  0.00  0.00    +0.000 C 
ATOM      3  C   UNL     1       3.028   1.164  -0.862  0.00  0.00    +0.000 C 
ATOM      4  C   UNL     1       2.712   0.889  -2.334  0.00  0.00    +0.000 C 
ATOM      5  C   UNL     1       3.127  -0.521  -2.755  0.00  0.00    +0.000 C 
ATOM      6  C   UNL     1       2.540  -1.557  -1.824  0.00  0.00    +0.000 C 
ATOM      7  C   UNL     1       1.786  -2.605  -2.202  0.00  0.00    +0.000 C 
ATOM      8  C   UNL     1       2.864  -1.314  -0.366  0.00  0.00    +0.000 C 
ENDROOT
BRANCH   7   9
ATOM      9  C   UNL     1       1.437  -2.881  -3.552  0.00  0.00    +0.000 C 
ATOM     10  C   UNL     1       1.137  -3.115  -4.691  0.00  0.00    +0.000 C 
BRANCH  10  11
ATOM     11  C   UNL     1       0.781  -3.380  -6.051  0.00  0.00    +0.000 A 
ATOM     12  C   UNL     1       0.717  -4.695  -6.516  0.00  0.00    +0.000 A 
ATOM     13  C   UNL     1       0.370  -4.951  -7.844  0.00  0.00    +0.000 A 
ATOM     14  C   UNL     1       0.088  -3.893  -8.708  0.00  0.00    +0.000 A 
ATOM     15  C   UNL     1       0.151  -2.578  -8.245  0.00  0.00    +0.000 A 
ATOM     16  C   UNL     1       0.498  -2.321  -6.918  0.00  0.00    +0.000 A 
ENDBRANCH  10  11
ENDBRANCH   7   9
TORSDOF 2
