REMARK  Name = *****
REMARK  5 active torsions:
REMARK  status: ('A' for Active; 'I' for Inactive)
REMARK    1  A    between atoms: N_2  and  C_3
REMARK    2  A    between atoms: C_6  and  C_9
REMARK    3  A    between atoms: C_9  and  O_11
REMARK    4  A    between atoms: O_11  and  C_12
REMARK    5  A    between atoms: C_12  and  C_13
REMARK                            x       y       z     vdW  Elec       q    Type
REMARK                         _______ _______ _______ _____ _____    ______ ____
ROOT
ATOM      1  C   UNL     1       3.927   0.023   0.182  0.00  0.00    +0.000 C 
ATOM      2  O   UNL     1       4.558   1.009   0.525  0.00  0.00    +0.000 OA
ENDROOT
BRANCH   1   6
ATOM      3  C   UNL     1      -0.348  -0.013   0.159  0.00  0.00    +0.000 A 
ATOM      4  C   UNL     1       0.329  -1.180  -0.189  0.00  0.00    +0.000 A 
ATOM      5  C   UNL     1       1.727  -1.186  -0.187  0.00  0.00    +0.000 A 
ATOM      6  C   UNL     1       2.438  -0.026   0.161  0.00  0.00    +0.000 A 
ATOM      7  C   UNL     1       1.734   1.139   0.511  0.00  0.00    +0.000 A 
ATOM      8  C   UNL     1       0.337   1.148   0.510  0.00  0.00    +0.000 A 
BRANCH   3  10
ATOM      9  C   UNL     1      -2.908  -0.004   0.154  0.00  0.00    +0.000 C 
ATOM     10  N   UNL     1      -1.736  -0.007   0.157  0.00  0.00    +0.000 NA
ENDBRANCH   3  10
ENDBRANCH   1   6
BRANCH   1  11
ATOM     11  O   UNL     1       4.443  -1.158  -0.233  0.00  0.00    +0.000 OA
BRANCH  11  12
ATOM     12  C   UNL     1       5.872  -1.256  -0.205  0.00  0.00    +0.000 C 
BRANCH  12  13
ATOM     13  C   UNL     1       6.296  -1.959   1.058  0.00  0.00    +0.000 A 
ATOM     14  C   UNL     1       6.280  -3.358   1.136  0.00  0.00    +0.000 A 
ATOM     15  C   UNL     1       6.652  -4.005   2.316  0.00  0.00    +0.000 A 
ATOM     16  C   UNL     1       7.036  -3.260   3.429  0.00  0.00    +0.000 A 
ATOM     17  C   UNL     1       7.044  -1.868   3.367  0.00  0.00    +0.000 A 
ATOM     18  C   UNL     1       6.672  -1.219   2.188  0.00  0.00    +0.000 A 
ENDBRANCH  12  13
ENDBRANCH  11  12
ENDBRANCH   1  11
TORSDOF 5
