REMARK  Name = *****
REMARK  1 active torsions:
REMARK  status: ('A' for Active; 'I' for Inactive)
REMARK    1  A    between atoms: C_10  and  C_12
REMARK                            x       y       z     vdW  Elec       q    Type
REMARK                         _______ _______ _______ _____ _____    ______ ____
ROOT
ATOM      1  C   UNL     1       2.165   0.794  -0.670  0.00  0.00    +0.000 C 
ATOM      2  C   UNL     1       3.475   1.085  -1.391  0.00  0.00    +0.000 C 
ATOM      3  C   UNL     1       3.898  -0.100  -2.262  0.00  0.00    +0.000 C 
ATOM      4  C   UNL     1       3.710  -1.438  -1.588  0.00  0.00    +0.000 C 
ATOM      5  C   UNL     1       3.011  -1.588  -0.445  0.00  0.00    +0.000 C 
ATOM      6  C   UNL     1       2.292  -0.443   0.221  0.00  0.00    +0.000 C 
ATOM      7  C   UNL     1       2.888  -2.940   0.211  0.00  0.00    +0.000 C 
ATOM      8  N   UNL     1       2.170  -3.878  -0.663  0.00  0.00    +0.000 NA
ATOM      9  N   UNL     1       2.678  -4.277  -1.736  0.00  0.00    +0.000 NA
ATOM     10  C   UNL     1       3.878  -3.835  -2.252  0.00  0.00    +0.000 C 
ATOM     11  C   UNL     1       4.356  -2.573  -2.228  0.00  0.00    +0.000 C 
ENDROOT
BRANCH  10  12
ATOM     12  C   UNL     1       4.649  -4.824  -3.038  0.00  0.00    +0.000 A 
ATOM     13  C   UNL     1       5.919  -5.249  -2.623  0.00  0.00    +0.000 A 
ATOM     14  C   UNL     1       6.638  -6.171  -3.387  0.00  0.00    +0.000 A 
ATOM     15  C   UNL     1       6.094  -6.676  -4.568  0.00  0.00    +0.000 A 
ATOM     16  C   UNL     1       4.830  -6.264  -4.985  0.00  0.00    +0.000 A 
ATOM     17  C   UNL     1       4.108  -5.345  -4.222  0.00  0.00    +0.000 A 
ENDBRANCH  10  12
TORSDOF 1
