REMARK  Name = *****
REMARK  4 active torsions:
REMARK  status: ('A' for Active; 'I' for Inactive)
REMARK    1  A    between atoms: C_2  and  C_3
REMARK    2  A    between atoms: C_2  and  O_10
REMARK    3  A    between atoms: C_3  and  C_4
REMARK    4  A    between atoms: O_10  and  C_11
REMARK                            x       y       z     vdW  Elec       q    Type
REMARK                         _______ _______ _______ _____ _____    ______ ____
ROOT
ATOM      1  C   UNL     1       0.791  -0.154  -0.415  0.00  0.00    +0.000 C 
ATOM      2  C   UNL     1       2.035   0.085   0.033  0.00  0.00    +0.000 C 
ENDROOT
BRANCH   2   3
ATOM      3  C   UNL     1       2.592   1.475   0.216  0.00  0.00    +0.000 C 
BRANCH   3   4
ATOM      4  C   UNL     1       3.681   1.809  -0.778  0.00  0.00    +0.000 A 
ATOM      5  C   UNL     1       3.359   2.307  -2.048  0.00  0.00    +0.000 A 
ATOM      6  C   UNL     1       4.364   2.592  -2.973  0.00  0.00    +0.000 A 
ATOM      7  C   UNL     1       5.701   2.379  -2.639  0.00  0.00    +0.000 A 
ATOM      8  C   UNL     1       6.033   1.877  -1.382  0.00  0.00    +0.000 A 
ATOM      9  C   UNL     1       5.029   1.591  -0.457  0.00  0.00    +0.000 A 
ENDBRANCH   3   4
ENDBRANCH   2   3
BRANCH   2  10
ATOM     10  O   UNL     1       2.870  -0.929   0.482  0.00  0.00    +0.000 OA
BRANCH  10  11
ATOM     11  C   UNL     1       3.109  -2.041  -0.318  0.00  0.00    +0.000 C 
ATOM     12  C   UNL     1       3.086  -3.263   0.237  0.00  0.00    +0.000 C 
ATOM     13  C   UNL     1       3.420  -4.519  -0.509  0.00  0.00    +0.000 C 
ATOM     14  C   UNL     1       4.128  -4.256  -1.839  0.00  0.00    +0.000 C 
ATOM     15  C   UNL     1       3.480  -3.099  -2.592  0.00  0.00    +0.000 C 
ATOM     16  C   UNL     1       3.495  -1.813  -1.760  0.00  0.00    +0.000 C 
ENDBRANCH  10  11
ENDBRANCH   2  10
TORSDOF 4
