REMARK  Name = *****
REMARK  6 active torsions:
REMARK  status: ('A' for Active; 'I' for Inactive)
REMARK    1  A    between atoms: C_1  and  C_2
REMARK    2  A    between atoms: C_6  and  C_7
REMARK    3  A    between atoms: C_7  and  S_8
REMARK    4  A    between atoms: S_8  and  C_9
REMARK    5  A    between atoms: C_12  and  O_15
REMARK    6  A    between atoms: O_15  and  C_16
REMARK                            x       y       z     vdW  Elec       q    Type
REMARK                         _______ _______ _______ _____ _____    ______ ____
ROOT
ATOM      1  S   UNL     1       0.970   2.427   3.003  0.00  0.00    +0.000 S 
ENDROOT
BRANCH   1   2
ATOM      2  C   UNL     1       0.144   2.668   4.566  0.00  0.00    +0.000 A 
ATOM      3  C   UNL     1      -0.326   1.597   5.331  0.00  0.00    +0.000 A 
ATOM      4  C   UNL     1      -0.961   1.821   6.559  0.00  0.00    +0.000 A 
ATOM      5  C   UNL     1      -1.122   3.121   7.038  0.00  0.00    +0.000 A 
ATOM      6  C   UNL     1      -0.637   4.190   6.282  0.00  0.00    +0.000 A 
ATOM      7  C   UNL     1      -0.004   3.967   5.056  0.00  0.00    +0.000 A 
BRANCH   5   8
ATOM      8  O   UNL     1      -1.721   3.478   8.215  0.00  0.00    +0.000 OA
ATOM      9  C   UNL     1      -2.236   2.426   9.020  0.00  0.00    +0.000 C 
ENDBRANCH   5   8
ENDBRANCH   1   2
BRANCH   1  10
ATOM     10  C   UNL     1      -0.257   1.383   2.137  0.00  0.00    +0.000 C 
BRANCH  10  16
ATOM     11  C   UNL     1       1.944   0.653  -0.999  0.00  0.00    +0.000 C 
ATOM     12  C   UNL     1       1.326   0.359   0.371  0.00  0.00    +0.000 C 
ATOM     13  C   UNL     1       0.790  -1.074   0.440  0.00  0.00    +0.000 C 
ATOM     14  C   UNL     1      -0.687  -1.002   0.054  0.00  0.00    +0.000 C 
ATOM     15  C   UNL     1      -1.028   0.478  -0.090  0.00  0.00    +0.000 C 
ATOM     16  C   UNL     1       0.087   1.236   0.642  0.00  0.00    +0.000 C 
ENDBRANCH  10  16
ENDBRANCH   1  10
TORSDOF 4
