REMARK  Name = *****
REMARK  5 active torsions:
REMARK  status: ('A' for Active; 'I' for Inactive)
REMARK    1  A    between atoms: C_1  and  P_2
REMARK    2  A    between atoms: P_2  and  N_4
REMARK    3  A    between atoms: P_2  and  O_12
REMARK    4  A    between atoms: N_4  and  C_5
REMARK    5  A    between atoms: O_12  and  C_13
REMARK                            x       y       z     vdW  Elec       q    Type
REMARK                         _______ _______ _______ _____ _____    ______ ____
ROOT
ATOM      1  C   UNL     1       1.049   0.024  -0.084  0.00  0.00    +0.000 C 
ATOM      2  P   UNL     1       2.879   0.024  -0.084  0.00  0.00    +0.000 P 
ATOM      3  O   UNL     1       2.812  -1.382  -0.695  0.00  0.00    +0.000 OA
ENDROOT
BRANCH   2   4
ATOM      4  N   UNL     1       2.762   1.370  -1.080  0.00  0.00    +0.000 N 
ATOM      5  H   UNL     1       2.430   2.195  -0.658  0.00  0.00    +0.000 HD
BRANCH   4   6
ATOM      6  C   UNL     1       3.082   1.459  -2.451  0.00  0.00    +0.000 A 
ATOM      7  C   UNL     1       3.345   0.348  -3.256  0.00  0.00    +0.000 A 
ATOM      8  C   UNL     1       3.586   0.489  -4.628  0.00  0.00    +0.000 A 
ATOM      9  C   UNL     1       3.543   1.749  -5.214  0.00  0.00    +0.000 A 
ATOM     10  C   UNL     1       3.253   2.867  -4.441  0.00  0.00    +0.000 A 
ATOM     11  C   UNL     1       3.014   2.718  -3.071  0.00  0.00    +0.000 A 
ATOM     12 CL   UNL     1       3.835   1.923  -6.900  0.00  0.00    +0.000 Cl
ENDBRANCH   4   6
ENDBRANCH   2   4
BRANCH   2  13
ATOM     13  O   UNL     1       4.609   0.024  -0.084  0.00  0.00    +0.000 OA
BRANCH  13  14
ATOM     14  C   UNL     1       5.312  -0.568   0.931  0.00  0.00    +0.000 A 
ATOM     15  C   UNL     1       6.663  -0.221   1.016  0.00  0.00    +0.000 A 
ATOM     16  C   UNL     1       7.466  -0.771   2.015  0.00  0.00    +0.000 A 
ATOM     17  C   UNL     1       6.911  -1.671   2.917  0.00  0.00    +0.000 A 
ATOM     18  C   UNL     1       5.570  -2.032   2.833  0.00  0.00    +0.000 A 
ATOM     19  C   UNL     1       4.765  -1.480   1.833  0.00  0.00    +0.000 A 
ATOM     20  F   UNL     1       7.679  -2.204   3.876  0.00  0.00    +0.000 F 
ENDBRANCH  13  14
ENDBRANCH   2  13
TORSDOF 4
