REMARK  Name = *****
REMARK  7 active torsions:
REMARK  status: ('A' for Active; 'I' for Inactive)
REMARK    1  A    between atoms: C_1  and  C_2
REMARK    2  A    between atoms: C_4  and  C_19
REMARK    3  A    between atoms: C_5  and  C_9
REMARK    4  A    between atoms: C_6  and  C_8
REMARK    5  A    between atoms: C_9  and  C_11
REMARK    6  A    between atoms: C_11  and  C_12
REMARK    7  A    between atoms: C_12  and  C_13
REMARK                            x       y       z     vdW  Elec       q    Type
REMARK                         _______ _______ _______ _____ _____    ______ ____
ROOT
ATOM      1  C   UNL     1      -1.757  -2.278   0.670  0.00  0.00    +0.000 C 
ATOM      2  O   UNL     1      -2.498  -2.153   1.640  0.00  0.00    +0.000 OA
ENDROOT
BRANCH   1   7
ATOM      3  C   UNL     1       1.843   2.021  -0.760  0.00  0.00    +0.000 C 
ATOM      4  C   UNL     1       0.914   0.896  -0.409  0.00  0.00    +0.000 A 
ATOM      5  C   UNL     1       1.421  -0.310   0.089  0.00  0.00    +0.000 A 
ATOM      6  C   UNL     1       0.566  -1.356   0.469  0.00  0.00    +0.000 A 
ATOM      7  C   UNL     1      -0.823  -1.180   0.318  0.00  0.00    +0.000 A 
ATOM      8  C   UNL     1      -1.355   0.034  -0.162  0.00  0.00    +0.000 A 
ATOM      9  C   UNL     1      -0.472   1.066  -0.510  0.00  0.00    +0.000 A 
ATOM     10  C   UNL     1      -2.837   0.260  -0.283  0.00  0.00    +0.000 C 
ATOM     11  C   UNL     1       1.167  -2.624   1.009  0.00  0.00    +0.000 C 
ENDBRANCH   1   7
BRANCH   1  12
ATOM     12  C   UNL     1      -1.742  -3.506  -0.213  0.00  0.00    +0.000 C 
BRANCH  12  13
ATOM     13  C   UNL     1      -3.164  -3.988  -0.483  0.00  0.00    +0.000 C 
BRANCH  13  14
ATOM     14  C   UNL     1      -3.173  -5.195  -1.388  0.00  0.00    +0.000 A 
ATOM     15  C   UNL     1      -3.078  -6.485  -0.848  0.00  0.00    +0.000 A 
ATOM     16  C   UNL     1      -3.062  -7.602  -1.685  0.00  0.00    +0.000 A 
ATOM     17  C   UNL     1      -3.137  -7.439  -3.067  0.00  0.00    +0.000 A 
ATOM     18  C   UNL     1      -3.227  -6.160  -3.614  0.00  0.00    +0.000 A 
ATOM     19  C   UNL     1      -3.242  -5.042  -2.778  0.00  0.00    +0.000 A 
ENDBRANCH  13  14
ENDBRANCH  12  13
ENDBRANCH   1  12
TORSDOF 4
