REMARK  Name = *****
REMARK  3 active torsions:
REMARK  status: ('A' for Active; 'I' for Inactive)
REMARK    1  A    between atoms: N_3  and  C_8
REMARK    2  A    between atoms: C_8  and  C_9
REMARK    3  A    between atoms: C_9  and  C_10
REMARK                            x       y       z     vdW  Elec       q    Type
REMARK                         _______ _______ _______ _____ _____    ______ ____
ROOT
ATOM      1  C   UNL     1       1.094  -2.419  -1.076  0.00  0.00    +0.000 C 
ENDROOT
BRANCH   1   4
ATOM      2  C   UNL     1      -1.152   0.609  -0.623  0.00  0.00    +0.000 C 
ATOM      3  C   UNL     1       0.034  -0.190  -1.115  0.00  0.00    +0.000 C 
ATOM      4  N   UNL     1       0.356  -1.379  -0.324  0.00  0.00    +0.000 N 
ATOM      5  C   UNL     1       0.299  -1.405   1.079  0.00  0.00    +0.000 C 
ATOM      6  S   UNL     1       1.077  -2.533   2.064  0.00  0.00    +0.000 S 
ATOM      7  S   UNL     1      -0.750  -0.251   1.900  0.00  0.00    +0.000 S 
ATOM      8  C   UNL     1      -0.857   1.124   0.762  0.00  0.00    +0.000 C 
ENDBRANCH   1   4
BRANCH   1   9
ATOM      9  C   UNL     1       2.571  -2.067  -1.298  0.00  0.00    +0.000 C 
BRANCH   9  10
ATOM     10  C   UNL     1       3.301  -3.170  -2.025  0.00  0.00    +0.000 A 
ATOM     11  C   UNL     1       3.386  -3.169  -3.423  0.00  0.00    +0.000 A 
ATOM     12  C   UNL     1       4.044  -4.204  -4.090  0.00  0.00    +0.000 A 
ATOM     13  C   UNL     1       4.617  -5.248  -3.368  0.00  0.00    +0.000 A 
ATOM     14  C   UNL     1       4.532  -5.261  -1.977  0.00  0.00    +0.000 A 
ATOM     15  C   UNL     1       3.876  -4.227  -1.307  0.00  0.00    +0.000 A 
ENDBRANCH   9  10
ENDBRANCH   1   9
TORSDOF 3
