REMARK  Name = *****
REMARK  3 active torsions:
REMARK  status: ('A' for Active; 'I' for Inactive)
REMARK    1  A    between atoms: C_7  and  O_8
REMARK    2  A    between atoms: O_8  and  C_9
REMARK    3  A    between atoms: C_9  and  C_11
REMARK                            x       y       z     vdW  Elec       q    Type
REMARK                         _______ _______ _______ _____ _____    ______ ____
ROOT
ATOM      1  O   UNL     1       2.495   0.064  -0.192  0.00  0.00    +0.000 OA
ENDROOT
BRANCH   1   8
ATOM      2  C   UNL     1      -1.678  -0.152   0.577  0.00  0.00    +0.000 C 
ATOM      3  C   UNL     1      -0.947  -1.409   0.081  0.00  0.00    +0.000 C 
ATOM      4  C   UNL     1       0.291  -0.831  -0.623  0.00  0.00    +0.000 C 
ATOM      5  C   UNL     1      -0.280   0.441  -1.256  0.00  0.00    +0.000 C 
ATOM      6  C   UNL     1      -0.777   0.992   0.079  0.00  0.00    +0.000 C 
ATOM      7  C   UNL     1       0.517   1.011   0.912  0.00  0.00    +0.000 C 
ATOM      8  C   UNL     1       1.250  -0.262   0.444  0.00  0.00    +0.000 C 
ENDBRANCH   1   8
BRANCH   1   9
ATOM      9  C   UNL     1       3.518   0.353   0.651  0.00  0.00    +0.000 C 
ATOM     10  O   UNL     1       3.461   0.352   1.871  0.00  0.00    +0.000 OA
BRANCH   9  11
ATOM     11  C   UNL     1       4.748   0.687  -0.116  0.00  0.00    +0.000 A 
ATOM     12  C   UNL     1       4.789   0.672  -1.518  0.00  0.00    +0.000 A 
ATOM     13  C   UNL     1       5.971   0.997  -2.188  0.00  0.00    +0.000 A 
ATOM     14  C   UNL     1       7.114   1.338  -1.466  0.00  0.00    +0.000 A 
ATOM     15  C   UNL     1       7.081   1.355  -0.073  0.00  0.00    +0.000 A 
ATOM     16  C   UNL     1       5.902   1.030   0.602  0.00  0.00    +0.000 A 
ENDBRANCH   9  11
ENDBRANCH   1   9
TORSDOF 3
