REMARK  Name = *****
REMARK  3 active torsions:
REMARK  status: ('A' for Active; 'I' for Inactive)
REMARK    1  A    between atoms: C_4  and  C_7
REMARK    2  A    between atoms: C_7  and  C_10
REMARK    3  A    between atoms: C_10  and  C_12
REMARK                            x       y       z     vdW  Elec       q    Type
REMARK                         _______ _______ _______ _____ _____    ______ ____
ROOT
ATOM      1  C   UNL     1      -2.894   0.456  -0.177  0.00  0.00    +0.000 C 
ATOM      2  C   UNL     1      -3.389   1.662  -0.145  0.00  0.00    +0.000 C 
ATOM      3  O   UNL     1      -3.818   2.757  -0.109  0.00  0.00    +0.000 OA
ENDROOT
BRANCH   1   7
ATOM      4  C   UNL     1       1.336  -0.245   0.183  0.00  0.00    +0.000 A 
ATOM      5  C   UNL     1       0.426  -1.235   0.542  0.00  0.00    +0.000 A 
ATOM      6  C   UNL     1      -0.947  -1.002   0.423  0.00  0.00    +0.000 A 
ATOM      7  C   UNL     1      -1.434   0.224  -0.061  0.00  0.00    +0.000 A 
ATOM      8  C   UNL     1      -0.499   1.213  -0.413  0.00  0.00    +0.000 A 
ATOM      9  C   UNL     1       0.874   0.979  -0.293  0.00  0.00    +0.000 A 
ENDBRANCH   1   7
BRANCH   1  10
ATOM     10  C   UNL     1      -3.843  -0.666  -0.480  0.00  0.00    +0.000 C 
ATOM     11  N   UNL     1      -3.574  -1.596  -1.345  0.00  0.00    +0.000 NA
ATOM     12  H   UNL     1      -2.718  -1.584  -1.830  0.00  0.00    +0.000 HD
BRANCH  10  13
ATOM     13  C   UNL     1      -5.150  -0.707   0.243  0.00  0.00    +0.000 A 
ATOM     14  C   UNL     1      -6.261  -1.252  -0.413  0.00  0.00    +0.000 A 
ATOM     15  C   UNL     1      -7.497  -1.318   0.231  0.00  0.00    +0.000 A 
ATOM     16  C   UNL     1      -7.627  -0.850   1.537  0.00  0.00    +0.000 A 
ATOM     17  C   UNL     1      -6.521  -0.325   2.205  0.00  0.00    +0.000 A 
ATOM     18  C   UNL     1      -5.281  -0.257   1.564  0.00  0.00    +0.000 A 
ENDBRANCH  10  13
ENDBRANCH   1  10
TORSDOF 3
