REMARK  Name = *****
REMARK  5 active torsions:
REMARK  status: ('A' for Active; 'I' for Inactive)
REMARK    1  A    between atoms: C_1  and  C_2
REMARK    2  A    between atoms: C_3  and  O_9
REMARK    3  A    between atoms: C_4  and  C_8
REMARK    4  A    between atoms: O_9  and  C_10
REMARK    5  A    between atoms: C_10  and  C_12
REMARK                            x       y       z     vdW  Elec       q    Type
REMARK                         _______ _______ _______ _____ _____    ______ ____
ROOT
ATOM      1  O   UNL     1       0.879   1.838   1.138  0.00  0.00    +0.000 OA
ENDROOT
BRANCH   1   4
ATOM      2  C   UNL     1       2.804  -0.281   0.892  0.00  0.00    +0.000 C 
ATOM      3  C   UNL     1       1.409  -0.386   0.349  0.00  0.00    +0.000 A 
ATOM      4  C   UNL     1       0.498   0.678   0.450  0.00  0.00    +0.000 A 
ATOM      5  C   UNL     1      -0.814   0.583  -0.042  0.00  0.00    +0.000 A 
ATOM      6  C   UNL     1      -1.190  -0.590  -0.707  0.00  0.00    +0.000 A 
ATOM      7  C   UNL     1      -0.287  -1.646  -0.847  0.00  0.00    +0.000 A 
ATOM      8  C   UNL     1       1.003  -1.545  -0.323  0.00  0.00    +0.000 A 
ATOM      9  C   UNL     1      -1.785   1.719   0.090  0.00  0.00    +0.000 C 
ENDBRANCH   1   4
BRANCH   1  10
ATOM     10  C   UNL     1       1.467   2.791   0.329  0.00  0.00    +0.000 C 
ATOM     11  O   UNL     1       1.684   2.719  -0.871  0.00  0.00    +0.000 OA
BRANCH  10  12
ATOM     12  C   UNL     1       1.834   3.982   1.148  0.00  0.00    +0.000 A 
ATOM     13  C   UNL     1       2.517   5.032   0.513  0.00  0.00    +0.000 A 
ATOM     14  C   UNL     1       2.885   6.172   1.232  0.00  0.00    +0.000 A 
ATOM     15  C   UNL     1       2.568   6.261   2.582  0.00  0.00    +0.000 A 
ATOM     16  C   UNL     1       1.890   5.233   3.228  0.00  0.00    +0.000 A 
ATOM     17  C   UNL     1       1.521   4.090   2.513  0.00  0.00    +0.000 A 
ATOM     18  F   UNL     1       2.919   7.354   3.271  0.00  0.00    +0.000 F 
ENDBRANCH  10  12
ENDBRANCH   1  10
TORSDOF 3
