REMARK  Name = *****
REMARK  7 active torsions:
REMARK  status: ('A' for Active; 'I' for Inactive)
REMARK    1  A    between atoms: C_1  and  C_2
REMARK    2  A    between atoms: C_4  and  S_18
REMARK    3  A    between atoms: C_5  and  C_17
REMARK    4  A    between atoms: C_6  and  C_16
REMARK    5  A    between atoms: C_7  and  O_8
REMARK    6  A    between atoms: O_8  and  C_9
REMARK    7  A    between atoms: C_9  and  C_10
REMARK                            x       y       z     vdW  Elec       q    Type
REMARK                         _______ _______ _______ _____ _____    ______ ____
ROOT
ATOM      1  C   UNL     1       0.905   0.178   0.207  0.00  0.00    +0.000 C 
ATOM      2  C   UNL     1       2.400   0.111   0.078  0.00  0.00    +0.000 A 
ATOM      3  C   UNL     1       3.047  -1.126   0.140  0.00  0.00    +0.000 A 
ATOM      4  C   UNL     1       4.441  -1.223   0.016  0.00  0.00    +0.000 A 
ATOM      5  C   UNL     1       5.222  -0.062  -0.178  0.00  0.00    +0.000 A 
ATOM      6  C   UNL     1       4.580   1.203  -0.201  0.00  0.00    +0.000 A 
ATOM      7  C   UNL     1       3.172   1.259  -0.137  0.00  0.00    +0.000 A 
ATOM      8  C   UNL     1       5.379   2.478  -0.311  0.00  0.00    +0.000 C 
ATOM      9  C   UNL     1       6.725  -0.160  -0.295  0.00  0.00    +0.000 C 
ENDROOT
BRANCH   4  10
ATOM     10  S   UNL     1       5.150  -2.863   0.153  0.00  0.00    +0.000 S 
ATOM     11  H   UNL     1       4.155  -3.773   0.334  0.00  0.00    +0.000 HD
ENDBRANCH   4  10
BRANCH   7  12
ATOM     12  O   UNL     1       2.531   2.473  -0.212  0.00  0.00    +0.000 OA
BRANCH  12  13
ATOM     13  C   UNL     1       2.253   2.802  -1.580  0.00  0.00    +0.000 C 
BRANCH  13  14
ATOM     14  C   UNL     1       1.458   4.084  -1.611  0.00  0.00    +0.000 A 
ATOM     15  C   UNL     1       2.034   5.284  -1.168  0.00  0.00    +0.000 A 
ATOM     16  C   UNL     1       1.307   6.474  -1.201  0.00  0.00    +0.000 A 
ATOM     17  C   UNL     1      -0.003   6.479  -1.676  0.00  0.00    +0.000 A 
ATOM     18  C   UNL     1      -0.588   5.292  -2.115  0.00  0.00    +0.000 A 
ATOM     19  C   UNL     1       0.138   4.100  -2.083  0.00  0.00    +0.000 A 
ENDBRANCH  13  14
ENDBRANCH  12  13
ENDBRANCH   7  12
TORSDOF 4
