REMARK  Name = *****
REMARK  6 active torsions:
REMARK  status: ('A' for Active; 'I' for Inactive)
REMARK    1  A    between atoms: C_1  and  N_2
REMARK    2  A    between atoms: N_2  and  C_3
REMARK    3  A    between atoms: N_2  and  C_4
REMARK    4  A    between atoms: C_4  and  C_5
REMARK    5  A    between atoms: C_10  and  C_11
REMARK    6  A    between atoms: C_12  and  C_13
REMARK                            x       y       z     vdW  Elec       q    Type
REMARK                         _______ _______ _______ _____ _____    ______ ____
ROOT
ATOM      1  C   UNL     1       4.417  -0.869  -1.038  0.00  0.00    +0.000 A 
ATOM      2  C   UNL     1       5.184  -0.420   0.056  0.00  0.00    +0.000 A 
ATOM      3  C   UNL     1       6.574  -0.541   0.061  0.00  0.00    +0.000 A 
ATOM      4  C   UNL     1       7.224  -1.120  -1.024  0.00  0.00    +0.000 A 
ATOM      5  C   UNL     1       6.484  -1.560  -2.120  0.00  0.00    +0.000 A 
ATOM      6  C   UNL     1       5.085  -1.435  -2.140  0.00  0.00    +0.000 A 
ENDROOT
BRANCH   6   7
ATOM      7  C   UNL     1       4.390  -1.877  -3.355  0.00  0.00    +0.000 C 
ATOM      8  C   UNL     1       4.237  -1.037  -4.389  0.00  0.00    +0.000 C 
BRANCH   8   9
ATOM      9  C   UNL     1       3.613  -1.370  -5.680  0.00  0.00    +0.000 A 
ATOM     10  C   UNL     1       2.695  -2.415  -5.841  0.00  0.00    +0.000 A 
ATOM     11  C   UNL     1       2.128  -2.680  -7.091  0.00  0.00    +0.000 A 
ATOM     12  C   UNL     1       2.463  -1.896  -8.193  0.00  0.00    +0.000 A 
ATOM     13  C   UNL     1       3.361  -0.842  -8.044  0.00  0.00    +0.000 A 
ATOM     14  C   UNL     1       3.928  -0.579  -6.795  0.00  0.00    +0.000 A 
ENDBRANCH   8   9
ENDBRANCH   6   7
BRANCH   1  15
ATOM     15  C   UNL     1       2.903  -0.774  -0.955  0.00  0.00    +0.000 C 
BRANCH  15  17
ATOM     16  C   UNL     1       2.611   1.438  -1.908  0.00  0.00    +0.000 C 
ATOM     17  N   UNL     1       2.393   0.594  -0.730  0.00  0.00    +0.000 N 
ATOM     18  C   UNL     1       0.962   0.540  -0.423  0.00  0.00    +0.000 C 
ATOM     19  H   UNL     1       2.902   1.002   0.055  0.00  0.00    +0.000 HD
ENDBRANCH  15  17
ENDBRANCH   1  15
TORSDOF 4
