REMARK  Name = *****
REMARK  3 active torsions:
REMARK  status: ('A' for Active; 'I' for Inactive)
REMARK    1  A    between atoms: C_1  and  C_2
REMARK    2  A    between atoms: C_4  and  N_8
REMARK    3  A    between atoms: C_10  and  C_11
REMARK                            x       y       z     vdW  Elec       q    Type
REMARK                         _______ _______ _______ _____ _____    ______ ____
ROOT
ATOM      1  N   UNL     1      -1.681   2.547  -0.286  0.00  0.00    +0.000 N 
ATOM      2  C   UNL     1      -1.343   3.614  -1.224  0.00  0.00    +0.000 C 
ATOM      3  C   UNL     1      -1.090   3.791   0.247  0.00  0.00    +0.000 C 
ENDROOT
BRANCH   1   7
ATOM      4  C   UNL     1       2.337  -0.328  -1.258  0.00  0.00    +0.000 C 
ATOM      5  C   UNL     1       0.921  -0.158  -0.792  0.00  0.00    +0.000 A 
ATOM      6  C   UNL     1       0.322   1.114  -0.798  0.00  0.00    +0.000 A 
ATOM      7  C   UNL     1      -0.982   1.313  -0.321  0.00  0.00    +0.000 A 
ATOM      8  C   UNL     1      -1.679   0.192   0.157  0.00  0.00    +0.000 A 
ATOM      9  C   UNL     1      -1.094  -1.076   0.179  0.00  0.00    +0.000 A 
ATOM     10  C   UNL     1       0.206  -1.248  -0.288  0.00  0.00    +0.000 A 
ENDBRANCH   1   7
BRANCH   3  11
ATOM     11  C   UNL     1       0.302   3.869   0.819  0.00  0.00    +0.000 A 
ATOM     12  C   UNL     1       1.284   4.703   0.254  0.00  0.00    +0.000 A 
ATOM     13  C   UNL     1       2.571   4.787   0.795  0.00  0.00    +0.000 A 
ATOM     14  C   UNL     1       2.895   4.042   1.925  0.00  0.00    +0.000 A 
ATOM     15  C   UNL     1       1.942   3.222   2.519  0.00  0.00    +0.000 A 
ATOM     16  C   UNL     1       0.657   3.146   1.972  0.00  0.00    +0.000 A 
ATOM     17 CL   UNL     1       4.478   4.140   2.590  0.00  0.00    +0.000 Cl
ENDBRANCH   3  11
TORSDOF 2
