REMARK  Name = *****
REMARK  2 active torsions:
REMARK  status: ('A' for Active; 'I' for Inactive)
REMARK    1  A    between atoms: C_4  and  C_7
REMARK    2  A    between atoms: C_7  and  C_8
REMARK                            x       y       z     vdW  Elec       q    Type
REMARK                         _______ _______ _______ _____ _____    ______ ____
ROOT
ATOM      1  C   UNL     1      -4.105   0.485  -0.811  0.00  0.00    +0.000 A 
ATOM      2  C   UNL     1      -4.574   1.281  -1.840  0.00  0.00    +0.000 A 
ATOM      3  S   UNL     1      -5.799   0.540  -2.757  0.00  0.00    +0.000 S 
ATOM      4  C   UNL     1      -5.771  -0.876  -1.783  0.00  0.00    +0.000 A 
ATOM      5  C   UNL     1      -6.581  -2.020  -1.939  0.00  0.00    +0.000 A 
ATOM      6  C   UNL     1      -6.431  -3.085  -1.051  0.00  0.00    +0.000 A 
ATOM      7  C   UNL     1      -5.498  -3.019  -0.028  0.00  0.00    +0.000 A 
ATOM      8  C   UNL     1      -4.697  -1.882   0.123  0.00  0.00    +0.000 A 
ATOM      9  C   UNL     1      -4.818  -0.780  -0.763  0.00  0.00    +0.000 A 
ENDROOT
BRANCH   1  10
ATOM     10  C   UNL     1      -3.031   0.919   0.147  0.00  0.00    +0.000 C 
BRANCH  10  14
ATOM     11  C   UNL     1       0.665  -1.012  -0.994  0.00  0.00    +0.000 A 
ATOM     12  C   UNL     1       0.086  -0.070  -1.841  0.00  0.00    +0.000 A 
ATOM     13  C   UNL     1      -1.110   0.554  -1.479  0.00  0.00    +0.000 A 
ATOM     14  C   UNL     1      -1.749   0.236  -0.269  0.00  0.00    +0.000 A 
ATOM     15  C   UNL     1      -1.144  -0.706   0.578  0.00  0.00    +0.000 A 
ATOM     16  C   UNL     1       0.052  -1.328   0.216  0.00  0.00    +0.000 A 
ENDBRANCH  10  14
ENDBRANCH   1  10
TORSDOF 2
