REMARK  Name = *****
REMARK  4 active torsions:
REMARK  status: ('A' for Active; 'I' for Inactive)
REMARK    1  A    between atoms: C_1  and  C_2
REMARK    2  A    between atoms: C_7  and  C_8
REMARK    3  A    between atoms: C_8  and  O_10
REMARK    4  A    between atoms: O_10  and  C_11
REMARK                            x       y       z     vdW  Elec       q    Type
REMARK                         _______ _______ _______ _____ _____    ______ ____
ROOT
ATOM      1  C   UNL     1       1.103  -2.511  -0.431  0.00  0.00    +0.000 C 
ATOM      2  O   UNL     1       0.587  -3.432  -1.044  0.00  0.00    +0.000 OA
ENDROOT
BRANCH   1   9
ATOM      3  C   UNL     1       2.517   0.201  -0.507  0.00  0.00    +0.000 C 
ATOM      4  C   UNL     1       1.058   0.033  -0.184  0.00  0.00    +0.000 A 
ATOM      5  C   UNL     1       0.301   1.179   0.119  0.00  0.00    +0.000 A 
ATOM      6  C   UNL     1      -1.063   1.086   0.402  0.00  0.00    +0.000 A 
ATOM      7  C   UNL     1      -1.696  -0.153   0.390  0.00  0.00    +0.000 A 
ATOM      8  C   UNL     1      -0.960  -1.303   0.109  0.00  0.00    +0.000 A 
ATOM      9  C   UNL     1       0.417  -1.223  -0.159  0.00  0.00    +0.000 A 
ENDBRANCH   1   9
BRANCH   1  10
ATOM     10  O   UNL     1       2.313  -2.530   0.179  0.00  0.00    +0.000 OA
BRANCH  10  11
ATOM     11  C   UNL     1       3.069  -3.746   0.046  0.00  0.00    +0.000 C 
ATOM     12  C   UNL     1       2.636  -4.747   1.121  0.00  0.00    +0.000 C 
ATOM     13  C   UNL     1       3.521  -5.989   1.124  0.00  0.00    +0.000 C 
ATOM     14  C   UNL     1       4.997  -5.628   1.267  0.00  0.00    +0.000 C 
ATOM     15  C   UNL     1       5.437  -4.622   0.206  0.00  0.00    +0.000 C 
ATOM     16  C   UNL     1       4.548  -3.384   0.207  0.00  0.00    +0.000 C 
ENDBRANCH  10  11
ENDBRANCH   1  10
TORSDOF 3
