REMARK  Name = *****
REMARK  1 active torsions:
REMARK  status: ('A' for Active; 'I' for Inactive)
REMARK    1  A    between atoms: C_10  and  C_12
REMARK                            x       y       z     vdW  Elec       q    Type
REMARK                         _______ _______ _______ _____ _____    ______ ____
ROOT
ATOM      1  C   UNL     1       1.413  -1.581   1.027  0.00  0.00    +0.000 C 
ATOM      2  C   UNL     1       0.721  -2.737   0.371  0.00  0.00    +0.000 C 
ATOM      3  C   UNL     1       0.340  -2.733  -0.912  0.00  0.00    +0.000 C 
ATOM      4  C   UNL     1       0.554  -1.565  -1.828  0.00  0.00    +0.000 C 
ATOM      5  C   UNL     1       0.977  -0.257  -1.121  0.00  0.00    +0.000 C 
ATOM      6  C   UNL     1       1.965  -0.531   0.036  0.00  0.00    +0.000 C 
ATOM      7  C   UNL     1       2.429   0.720   0.827  0.00  0.00    +0.000 C 
ATOM      8  C   UNL     1       2.316   2.055   0.142  0.00  0.00    +0.000 C 
ATOM      9  C   UNL     1       1.172   2.567  -0.344  0.00  0.00    +0.000 C 
ATOM     10  C   UNL     1      -0.110   1.876  -0.333  0.00  0.00    +0.000 C 
ATOM     11  C   UNL     1      -0.210   0.575  -0.675  0.00  0.00    +0.000 C 
ENDROOT
BRANCH  10  12
ATOM     12  C   UNL     1      -1.357   2.586   0.014  0.00  0.00    +0.000 A 
ATOM     13  C   UNL     1      -1.642   2.884   1.352  0.00  0.00    +0.000 A 
ATOM     14  C   UNL     1      -2.816   3.563   1.687  0.00  0.00    +0.000 A 
ATOM     15  C   UNL     1      -3.707   3.951   0.687  0.00  0.00    +0.000 A 
ATOM     16  C   UNL     1      -3.427   3.662  -0.648  0.00  0.00    +0.000 A 
ATOM     17  C   UNL     1      -2.255   2.982  -0.985  0.00  0.00    +0.000 A 
ENDBRANCH  10  12
TORSDOF 1
