REMARK  Name = *****
REMARK  4 active torsions:
REMARK  status: ('A' for Active; 'I' for Inactive)
REMARK    1  A    between atoms: C_1  and  C_2
REMARK    2  A    between atoms: C_5  and  C_8
REMARK    3  A    between atoms: N_10  and  C_11
REMARK    4  A    between atoms: N_10  and  O_18
REMARK                            x       y       z     vdW  Elec       q    Type
REMARK                         _______ _______ _______ _____ _____    ______ ____
ROOT
ATOM      1  C   UNL     1      -3.247  -0.014  -0.028  0.00  0.00    +0.000 C 
ATOM      2  O   UNL     1      -3.856  -1.080   0.037  0.00  0.00    +0.000 OA
ATOM      3  N   UNL     1      -3.817   1.254  -0.120  0.00  0.00    +0.000 N 
ENDROOT
BRANCH   1   8
ATOM      4  C   UNL     1       2.516  -0.540   0.249  0.00  0.00    +0.000 C 
ATOM      5  C   UNL     1       1.026  -0.368   0.188  0.00  0.00    +0.000 A 
ATOM      6  C   UNL     1       0.441   0.408  -0.821  0.00  0.00    +0.000 A 
ATOM      7  C   UNL     1      -0.948   0.538  -0.898  0.00  0.00    +0.000 A 
ATOM      8  C   UNL     1      -1.764  -0.104   0.039  0.00  0.00    +0.000 A 
ATOM      9  C   UNL     1      -1.187  -0.913   1.024  0.00  0.00    +0.000 A 
ATOM     10  C   UNL     1       0.202  -1.041   1.099  0.00  0.00    +0.000 A 
ENDBRANCH   1   8
BRANCH   3  11
ATOM     11  C   UNL     1      -5.185   1.581  -0.342  0.00  0.00    +0.000 A 
ATOM     12  C   UNL     1      -6.181   0.604  -0.482  0.00  0.00    +0.000 A 
ATOM     13  C   UNL     1      -7.520   0.959  -0.697  0.00  0.00    +0.000 A 
ATOM     14  C   UNL     1      -7.881   2.298  -0.778  0.00  0.00    +0.000 A 
ATOM     15  C   UNL     1      -6.914   3.288  -0.649  0.00  0.00    +0.000 A 
ATOM     16  C   UNL     1      -5.577   2.929  -0.434  0.00  0.00    +0.000 A 
ATOM     17 CL   UNL     1      -9.523   2.733  -1.042  0.00  0.00    +0.000 Cl
ENDBRANCH   3  11
BRANCH   3  18
ATOM     18  O   UNL     1      -2.954   2.371  -0.006  0.00  0.00    +0.000 OA
ATOM     19  H   UNL     1      -2.046   2.063   0.142  0.00  0.00    +0.000 HD
ENDBRANCH   3  18
TORSDOF 3
