REMARK  Name = *****
REMARK  5 active torsions:
REMARK  status: ('A' for Active; 'I' for Inactive)
REMARK    1  A    between atoms: C_1  and  C_2
REMARK    2  A    between atoms: C_3  and  C_16
REMARK    3  A    between atoms: C_6  and  C_7
REMARK    4  A    between atoms: C_7  and  C_8
REMARK    5  A    between atoms: C_9  and  C_10
REMARK                            x       y       z     vdW  Elec       q    Type
REMARK                         _______ _______ _______ _____ _____    ______ ____
ROOT
ATOM      1  C   UNL     1       2.864  -2.475   0.486  0.00  0.00    +0.000 C 
ENDROOT
BRANCH   1   7
ATOM      2  C   UNL     1       3.473  -1.145  -2.419  0.00  0.00    +0.000 C 
ATOM      3  C   UNL     1       3.525  -0.476  -1.094  0.00  0.00    +0.000 A 
ATOM      4  C   UNL     1       3.857   0.844  -0.840  0.00  0.00    +0.000 A 
ATOM      5  O   UNL     1       3.799   1.100   0.495  0.00  0.00    +0.000 OA
ATOM      6  C   UNL     1       3.441  -0.054   1.106  0.00  0.00    +0.000 A 
ATOM      7  C   UNL     1       3.260  -1.066   0.187  0.00  0.00    +0.000 A 
ATOM      8  C   UNL     1       4.239   1.983  -1.700  0.00  0.00    +0.000 C 
ENDBRANCH   1   7
BRANCH   1   9
ATOM      9  C   UNL     1       4.014  -3.426   0.306  0.00  0.00    +0.000 C 
ATOM     10  C   UNL     1       3.997  -4.469  -0.540  0.00  0.00    +0.000 C 
BRANCH  10  11
ATOM     11  C   UNL     1       5.123  -5.396  -0.719  0.00  0.00    +0.000 A 
ATOM     12  C   UNL     1       4.857  -6.755  -0.929  0.00  0.00    +0.000 A 
ATOM     13  C   UNL     1       5.901  -7.661  -1.134  0.00  0.00    +0.000 A 
ATOM     14  C   UNL     1       7.221  -7.213  -1.144  0.00  0.00    +0.000 A 
ATOM     15  C   UNL     1       7.497  -5.861  -0.953  0.00  0.00    +0.000 A 
ATOM     16  C   UNL     1       6.453  -4.956  -0.747  0.00  0.00    +0.000 A 
ENDBRANCH  10  11
ENDBRANCH   1   9
TORSDOF 3
