REMARK  Name = *****
REMARK  6 active torsions:
REMARK  status: ('A' for Active; 'I' for Inactive)
REMARK    1  A    between atoms: C_1  and  C_2
REMARK    2  A    between atoms: C_4  and  C_18
REMARK    3  A    between atoms: C_5  and  O_9
REMARK    4  A    between atoms: C_6  and  C_8
REMARK    5  A    between atoms: O_9  and  C_10
REMARK    6  A    between atoms: C_10  and  C_12
REMARK                            x       y       z     vdW  Elec       q    Type
REMARK                         _______ _______ _______ _____ _____    ______ ____
ROOT
ATOM      1  C   UNL     1       1.844   2.127   0.574  0.00  0.00    +0.000 C 
ATOM      2  C   UNL     1       1.020   0.919   0.237  0.00  0.00    +0.000 A 
ATOM      3  C   UNL     1       1.604  -0.355   0.225  0.00  0.00    +0.000 A 
ATOM      4  C   UNL     1       0.839  -1.496  -0.052  0.00  0.00    +0.000 A 
ATOM      5  C   UNL     1      -0.536  -1.336  -0.278  0.00  0.00    +0.000 A 
ATOM      6  C   UNL     1      -1.145  -0.072  -0.292  0.00  0.00    +0.000 A 
ATOM      7  C   UNL     1      -0.353   1.049  -0.010  0.00  0.00    +0.000 A 
ATOM      8  C   UNL     1      -2.615   0.093  -0.544  0.00  0.00    +0.000 C 
ATOM      9  C   UNL     1       1.480  -2.852  -0.053  0.00  0.00    +0.000 C 
ENDROOT
BRANCH   5  10
ATOM     10  O   UNL     1      -1.304  -2.471  -0.575  0.00  0.00    +0.000 OA
BRANCH  10  11
ATOM     11  C   UNL     1      -1.947  -3.022   0.531  0.00  0.00    +0.000 C 
ATOM     12  O   UNL     1      -1.871  -2.626   1.686  0.00  0.00    +0.000 OA
BRANCH  11  13
ATOM     13  C   UNL     1      -2.742  -4.239   0.077  0.00  0.00    +0.000 C 
ATOM     14  C   UNL     1      -3.806  -3.839  -0.954  0.00  0.00    +0.000 C 
ATOM     15  C   UNL     1      -4.662  -5.030  -1.379  0.00  0.00    +0.000 C 
ATOM     16  C   UNL     1      -5.293  -5.728  -0.179  0.00  0.00    +0.000 C 
ATOM     17  C   UNL     1      -4.241  -6.134   0.848  0.00  0.00    +0.000 C 
ATOM     18  C   UNL     1      -3.389  -4.944   1.278  0.00  0.00    +0.000 C 
ENDBRANCH  11  13
ENDBRANCH  10  11
ENDBRANCH   5  10
TORSDOF 3
