REMARK  Name = *****
REMARK  3 active torsions:
REMARK  status: ('A' for Active; 'I' for Inactive)
REMARK    1  A    between atoms: C_1  and  C_2
REMARK    2  A    between atoms: C_7  and  C_8
REMARK    3  A    between atoms: C_9  and  C_10
REMARK                            x       y       z     vdW  Elec       q    Type
REMARK                         _______ _______ _______ _____ _____    ______ ____
ROOT
ATOM      1  C   UNL     1       2.496  -2.592  -0.171  0.00  0.00    +0.000 C 
ATOM      2  C   UNL     1       1.917  -3.643  -0.217  0.00  0.00    +0.000 C 
ENDROOT
BRANCH   1   9
ATOM      3  C   UNL     1       0.980  -0.083   0.084  0.00  0.00    +0.000 C 
ATOM      4  C   UNL     1       2.482  -0.121   0.004  0.00  0.00    +0.000 A 
ATOM      5  C   UNL     1       3.208   1.080   0.052  0.00  0.00    +0.000 A 
ATOM      6  C   UNL     1       4.602   1.073  -0.019  0.00  0.00    +0.000 A 
ATOM      7  C   UNL     1       5.289  -0.132  -0.139  0.00  0.00    +0.000 A 
ATOM      8  C   UNL     1       4.581  -1.333  -0.188  0.00  0.00    +0.000 A 
ATOM      9  C   UNL     1       3.182  -1.334  -0.117  0.00  0.00    +0.000 A 
ENDBRANCH   1   9
BRANCH   2  10
ATOM     10  C   UNL     1       1.215  -4.884  -0.272  0.00  0.00    +0.000 C 
ATOM     11  C   UNL     1       1.886  -6.028  -0.053  0.00  0.00    +0.000 C 
ATOM     12  C   UNL     1       1.251  -7.387  -0.097  0.00  0.00    +0.000 C 
ATOM     13  C   UNL     1      -0.152  -7.382  -0.705  0.00  0.00    +0.000 C 
ATOM     14  C   UNL     1      -0.963  -6.190  -0.209  0.00  0.00    +0.000 C 
ATOM     15  C   UNL     1      -0.268  -4.870  -0.555  0.00  0.00    +0.000 C 
ENDBRANCH   2  10
TORSDOF 2
