REMARK  Name = *****
REMARK  3 active torsions:
REMARK  status: ('A' for Active; 'I' for Inactive)
REMARK    1  A    between atoms: C_4  and  C_7
REMARK    2  A    between atoms: C_7  and  C_8
REMARK    3  A    between atoms: C_8  and  C_9
REMARK                            x       y       z     vdW  Elec       q    Type
REMARK                         _______ _______ _______ _____ _____    ______ ____
ROOT
ATOM      1  C   UNL     1      -2.740   0.832  -0.223  0.00  0.00    +0.000 C 
ATOM      2 CL   UNL     1      -3.817  -0.406   0.510  0.00  0.00    +0.000 Cl
ENDROOT
BRANCH   1   6
ATOM      3  C   UNL     1       1.464  -0.110   0.268  0.00  0.00    +0.000 A 
ATOM      4  C   UNL     1       0.990   1.172   0.532  0.00  0.00    +0.000 A 
ATOM      5  C   UNL     1      -0.368   1.462   0.384  0.00  0.00    +0.000 A 
ATOM      6  C   UNL     1      -1.275   0.469  -0.027  0.00  0.00    +0.000 A 
ATOM      7  C   UNL     1      -0.778  -0.818  -0.292  0.00  0.00    +0.000 A 
ATOM      8  C   UNL     1       0.581  -1.105  -0.144  0.00  0.00    +0.000 A 
ENDBRANCH   1   6
BRANCH   1   9
ATOM      9  C   UNL     1      -3.084   1.184  -1.696  0.00  0.00    +0.000 C 
ATOM     10 CL   UNL     1      -4.712   1.953  -1.817  0.00  0.00    +0.000 Cl
BRANCH   9  11
ATOM     11  C   UNL     1      -2.952   0.070  -2.719  0.00  0.00    +0.000 A 
ATOM     12  C   UNL     1      -3.908  -0.943  -2.865  0.00  0.00    +0.000 A 
ATOM     13  C   UNL     1      -3.695  -1.939  -3.806  0.00  0.00    +0.000 A 
ATOM     14  N   UNL     1      -2.608  -2.000  -4.603  0.00  0.00    +0.000 NA
ATOM     15  C   UNL     1      -1.696  -1.019  -4.456  0.00  0.00    +0.000 A 
ATOM     16  C   UNL     1      -1.820   0.020  -3.546  0.00  0.00    +0.000 A 
ENDBRANCH   9  11
ENDBRANCH   1   9
TORSDOF 3
