REMARK  Name = *****
REMARK  2 active torsions:
REMARK  status: ('A' for Active; 'I' for Inactive)
REMARK    1  A    between atoms: C_5  and  N_7
REMARK    2  A    between atoms: C_8  and  C_10
REMARK                            x       y       z     vdW  Elec       q    Type
REMARK                         _______ _______ _______ _____ _____    ______ ____
ROOT
ATOM      1  N   UNL     1      -0.491  -2.386   0.071  0.00  0.00    +0.000 N 
ATOM      2  C   UNL     1      -1.859  -2.557  -0.037  0.00  0.00    +0.000 C 
ATOM      3  O   UNL     1      -2.698  -1.676  -0.175  0.00  0.00    +0.000 OA
ATOM      4  H   UNL     1       0.065  -3.199   0.098  0.00  0.00    +0.000 HD
ENDROOT
BRANCH   1   9
ATOM      5  C   UNL     1       2.155   0.109  -0.546  0.00  0.00    +0.000 A 
ATOM      6  C   UNL     1       1.680   1.242   0.104  0.00  0.00    +0.000 A 
ATOM      7  C   UNL     1       0.480   1.180   0.812  0.00  0.00    +0.000 A 
ATOM      8  C   UNL     1      -0.266  -0.007   0.852  0.00  0.00    +0.000 A 
ATOM      9  C   UNL     1       0.178  -1.140   0.147  0.00  0.00    +0.000 A 
ATOM     10  C   UNL     1       1.416  -1.076  -0.514  0.00  0.00    +0.000 A 
ATOM     11 CL   UNL     1      -1.584  -0.029   1.975  0.00  0.00    +0.000 Cl
ENDBRANCH   1   9
BRANCH   2  12
ATOM     12  C   UNL     1      -2.327  -3.968  -0.038  0.00  0.00    +0.000 A 
ATOM     13  C   UNL     1      -1.656  -4.972  -0.745  0.00  0.00    +0.000 A 
ATOM     14  C   UNL     1      -2.148  -6.276  -0.711  0.00  0.00    +0.000 A 
ATOM     15  C   UNL     1      -3.300  -6.587   0.012  0.00  0.00    +0.000 A 
ATOM     16  C   UNL     1      -3.979  -5.582   0.701  0.00  0.00    +0.000 A 
ATOM     17  C   UNL     1      -3.496  -4.273   0.672  0.00  0.00    +0.000 A 
ATOM     18 CL   UNL     1      -1.326  -7.516  -1.577  0.00  0.00    +0.000 Cl
ENDBRANCH   2  12
TORSDOF 2
