REMARK  Name = *****
REMARK  3 active torsions:
REMARK  status: ('A' for Active; 'I' for Inactive)
REMARK    1  A    between atoms: C_4  and  C_8
REMARK    2  A    between atoms: C_9  and  C_10
REMARK    3  A    between atoms: C_10  and  C_12
REMARK                            x       y       z     vdW  Elec       q    Type
REMARK                         _______ _______ _______ _____ _____    ______ ____
ROOT
ATOM      1  C   UNL     1       0.153   2.394   0.083  0.00  0.00    +0.000 C 
ATOM      2  C   UNL     1       1.271   3.109   0.288  0.00  0.00    +0.000 C 
ENDROOT
BRANCH   1   6
ATOM      3  C   UNL     1      -0.187  -1.893  -0.104  0.00  0.00    +0.000 A 
ATOM      4  C   UNL     1      -1.253  -1.104   0.321  0.00  0.00    +0.000 A 
ATOM      5  C   UNL     1      -1.112   0.284   0.377  0.00  0.00    +0.000 A 
ATOM      6  C   UNL     1       0.085   0.922   0.028  0.00  0.00    +0.000 A 
ATOM      7  C   UNL     1       1.136   0.107  -0.410  0.00  0.00    +0.000 A 
ATOM      8  C   UNL     1       1.010  -1.283  -0.472  0.00  0.00    +0.000 A 
ATOM      9  F   UNL     1       2.305   0.642  -0.796  0.00  0.00    +0.000 F 
ATOM     10  F   UNL     1      -2.166   1.006   0.790  0.00  0.00    +0.000 F 
ENDBRANCH   1   6
BRANCH   2  11
ATOM     11  C   UNL     1       1.196   4.596   0.315  0.00  0.00    +0.000 C 
ATOM     12  O   UNL     1       0.191   5.202  -0.045  0.00  0.00    +0.000 OA
BRANCH  11  13
ATOM     13  C   UNL     1       2.402   5.351   0.751  0.00  0.00    +0.000 A 
ATOM     14  C   UNL     1       2.588   6.646   0.241  0.00  0.00    +0.000 A 
ATOM     15  C   UNL     1       3.697   7.402   0.625  0.00  0.00    +0.000 A 
ATOM     16  C   UNL     1       4.610   6.868   1.525  0.00  0.00    +0.000 A 
ATOM     17  C   UNL     1       4.433   5.593   2.054  0.00  0.00    +0.000 A 
ATOM     18  C   UNL     1       3.324   4.832   1.672  0.00  0.00    +0.000 A 
ATOM     19  F   UNL     1       5.673   7.592   1.896  0.00  0.00    +0.000 F 
ENDBRANCH  11  13
ENDBRANCH   2  11
TORSDOF 3
