REMARK  Name = *****
REMARK  3 active torsions:
REMARK  status: ('A' for Active; 'I' for Inactive)
REMARK    1  A    between atoms: C_1  and  C_2
REMARK    2  A    between atoms: C_2  and  C_8
REMARK    3  A    between atoms: C_9  and  C_10
REMARK                            x       y       z     vdW  Elec       q    Type
REMARK                         _______ _______ _______ _____ _____    ______ ____
ROOT
ATOM      1  C   UNL     1       2.784   0.606   1.466  0.00  0.00    +0.000 C 
ATOM      2  C   UNL     1       2.065   0.972   2.544  0.00  0.00    +0.000 C 
ENDROOT
BRANCH   1   4
ATOM      3  C   UNL     1       0.735   0.173  -0.006  0.00  0.00    +0.000 C 
ATOM      4  C   UNL     1       2.267   0.176   0.099  0.00  0.00    +0.000 C 
ATOM      5  S   UNL     1       3.002   1.371  -1.094  0.00  0.00    +0.000 S 
ATOM      6  C   UNL     1       2.541   0.621  -2.678  0.00  0.00    +0.000 C 
ATOM      7  C   UNL     1       3.090  -0.785  -2.857  0.00  0.00    +0.000 C 
ATOM      8  C   UNL     1       2.493  -1.807  -1.902  0.00  0.00    +0.000 C 
ATOM      9  S   UNL     1       2.943  -1.516  -0.170  0.00  0.00    +0.000 S 
ENDBRANCH   1   4
BRANCH   2  10
ATOM     10  C   UNL     1       2.666   1.375   3.824  0.00  0.00    +0.000 A 
ATOM     11  C   UNL     1       3.796   2.200   3.889  0.00  0.00    +0.000 A 
ATOM     12  C   UNL     1       4.321   2.591   5.123  0.00  0.00    +0.000 A 
ATOM     13  C   UNL     1       3.714   2.169   6.305  0.00  0.00    +0.000 A 
ATOM     14  C   UNL     1       2.581   1.360   6.252  0.00  0.00    +0.000 A 
ATOM     15  C   UNL     1       2.056   0.970   5.018  0.00  0.00    +0.000 A 
ENDBRANCH   2  10
TORSDOF 2
