REMARK  Name = *****
REMARK  4 active torsions:
REMARK  status: ('A' for Active; 'I' for Inactive)
REMARK    1  A    between atoms: C_4  and  C_7
REMARK    2  A    between atoms: C_7  and  O_9
REMARK    3  A    between atoms: O_9  and  C_10
REMARK    4  A    between atoms: C_13  and  C_16
REMARK                            x       y       z     vdW  Elec       q    Type
REMARK                         _______ _______ _______ _____ _____    ______ ____
ROOT
ATOM      1  O   UNL     1      -3.720  -0.646  -1.043  0.00  0.00    +0.000 OA
ENDROOT
BRANCH   1   2
ATOM      2  C   UNL     1      -5.092  -0.380  -0.986  0.00  0.00    +0.000 A 
ATOM      3  C   UNL     1      -5.755   0.193  -2.069  0.00  0.00    +0.000 A 
ATOM      4  C   UNL     1      -7.134   0.389  -2.000  0.00  0.00    +0.000 A 
ATOM      5  C   UNL     1      -7.853   0.005  -0.856  0.00  0.00    +0.000 A 
ATOM      6  C   UNL     1      -7.168  -0.601   0.210  0.00  0.00    +0.000 A 
ATOM      7  C   UNL     1      -5.788  -0.798   0.145  0.00  0.00    +0.000 A 
BRANCH   5   8
ATOM      8  C   UNL     1      -9.341   0.210  -0.788  0.00  0.00    +0.000 C 
ATOM      9 CL   UNL     1     -10.195  -1.214  -1.418  0.00  0.00    +0.000 Cl
ENDBRANCH   5   8
ENDBRANCH   1   2
BRANCH   1  10
ATOM     10  C   UNL     1      -2.910   0.474  -1.069  0.00  0.00    +0.000 C 
ATOM     11  O   UNL     1      -3.263   1.644  -1.030  0.00  0.00    +0.000 OA
BRANCH  10  15
ATOM     12  C   UNL     1       1.236  -0.608  -1.310  0.00  0.00    +0.000 A 
ATOM     13  C   UNL     1       0.272  -1.615  -1.270  0.00  0.00    +0.000 A 
ATOM     14  C   UNL     1      -1.083  -1.286  -1.192  0.00  0.00    +0.000 A 
ATOM     15  C   UNL     1      -1.481   0.058  -1.153  0.00  0.00    +0.000 A 
ATOM     16  C   UNL     1      -0.504   1.064  -1.194  0.00  0.00    +0.000 A 
ATOM     17  C   UNL     1       0.849   0.730  -1.272  0.00  0.00    +0.000 A 
ENDBRANCH  10  15
ENDBRANCH   1  10
TORSDOF 4
