REMARK  Name = *****
REMARK  2 active torsions:
REMARK  status: ('A' for Active; 'I' for Inactive)
REMARK    1  A    between atoms: C_1  and  C_9
REMARK    2  A    between atoms: N_2  and  C_3
REMARK                            x       y       z     vdW  Elec       q    Type
REMARK                         _______ _______ _______ _____ _____    ______ ____
ROOT
ATOM      1  C   UNL     1       2.277  -0.101   0.139  0.00  0.00    +0.000 C 
ATOM      2  N   UNL     1       2.735  -1.313   0.151  0.00  0.00    +0.000 NA
ENDROOT
BRANCH   2   3
ATOM      3  C   UNL     1       2.029  -2.223   0.951  0.00  0.00    +0.000 A 
ATOM      4  C   UNL     1       0.928  -2.913   0.438  0.00  0.00    +0.000 A 
ATOM      5  C   UNL     1       0.234  -3.828   1.232  0.00  0.00    +0.000 A 
ATOM      6  C   UNL     1       0.646  -4.064   2.543  0.00  0.00    +0.000 A 
ATOM      7  C   UNL     1       1.754  -3.392   3.057  0.00  0.00    +0.000 A 
ATOM      8  C   UNL     1       2.446  -2.477   2.260  0.00  0.00    +0.000 A 
ENDBRANCH   2   3
BRANCH   1   9
ATOM      9  C   UNL     1       2.912   0.968  -0.655  0.00  0.00    +0.000 A 
ATOM     10  C   UNL     1       4.052   0.709  -1.422  0.00  0.00    +0.000 A 
ATOM     11  C   UNL     1       4.635   1.737  -2.164  0.00  0.00    +0.000 A 
ATOM     12  C   UNL     1       4.081   3.017  -2.140  0.00  0.00    +0.000 A 
ATOM     13  C   UNL     1       2.942   3.274  -1.374  0.00  0.00    +0.000 A 
ATOM     14  C   UNL     1       2.355   2.249  -0.629  0.00  0.00    +0.000 A 
ENDBRANCH   1   9
TORSDOF 2
