REMARK  Name = *****
REMARK  3 active torsions:
REMARK  status: ('A' for Active; 'I' for Inactive)
REMARK    1  A    between atoms: C_5  and  C_6
REMARK    2  A    between atoms: C_6  and  S_8
REMARK    3  A    between atoms: S_8  and  C_9
REMARK                            x       y       z     vdW  Elec       q    Type
REMARK                         _______ _______ _______ _____ _____    ______ ____
ROOT
ATOM      1  C   UNL     1      -2.907  -1.598   0.875  0.00  0.00    +0.000 C 
ATOM      2  O   UNL     1      -2.366  -2.686   0.994  0.00  0.00    +0.000 OA
ENDROOT
BRANCH   1   7
ATOM      3  C   UNL     1       1.905   0.241  -0.023  0.00  0.00    +0.000 C 
ATOM      4  C   UNL     1       1.315  -1.131   0.304  0.00  0.00    +0.000 C 
ATOM      5  C   UNL     1      -0.027  -1.353  -0.396  0.00  0.00    +0.000 C 
ATOM      6  C   UNL     1      -0.988  -0.230  -0.079  0.00  0.00    +0.000 C 
ATOM      7  C   UNL     1      -2.221  -0.343   0.455  0.00  0.00    +0.000 C 
ATOM      8  C   UNL     1      -0.429   1.136  -0.423  0.00  0.00    +0.000 C 
ATOM      9  C   UNL     1       0.913   1.365   0.274  0.00  0.00    +0.000 C 
ENDBRANCH   1   7
BRANCH   1  10
ATOM     10  S   UNL     1      -4.605  -1.346   1.268  0.00  0.00    +0.000 S 
BRANCH  10  11
ATOM     11  C   UNL     1      -5.378  -2.504   0.156  0.00  0.00    +0.000 A 
ATOM     12  C   UNL     1      -5.201  -3.883   0.302  0.00  0.00    +0.000 A 
ATOM     13  C   UNL     1      -5.831  -4.773  -0.571  0.00  0.00    +0.000 A 
ATOM     14  C   UNL     1      -6.649  -4.289  -1.590  0.00  0.00    +0.000 A 
ATOM     15  C   UNL     1      -6.840  -2.916  -1.736  0.00  0.00    +0.000 A 
ATOM     16  C   UNL     1      -6.210  -2.026  -0.863  0.00  0.00    +0.000 A 
ENDBRANCH  10  11
ENDBRANCH   1  10
TORSDOF 3
