REMARK  Name = *****
REMARK  4 active torsions:
REMARK  status: ('A' for Active; 'I' for Inactive)
REMARK    1  A    between atoms: C_1  and  C_2
REMARK    2  A    between atoms: C_4  and  C_8
REMARK    3  A    between atoms: C_8  and  C_9
REMARK    4  A    between atoms: C_9  and  C_10
REMARK                            x       y       z     vdW  Elec       q    Type
REMARK                         _______ _______ _______ _____ _____    ______ ____
ROOT
ATOM      1  C   UNL     1      -1.572   2.355  -0.049  0.00  0.00    +0.000 C 
ENDROOT
BRANCH   1   5
ATOM      2  C   UNL     1       2.115  -1.109  -0.723  0.00  0.00    +0.000 C 
ATOM      3  C   UNL     1       0.662  -0.751  -0.613  0.00  0.00    +0.000 A 
ATOM      4  C   UNL     1       0.275   0.584  -0.411  0.00  0.00    +0.000 A 
ATOM      5  C   UNL     1      -1.074   0.938  -0.274  0.00  0.00    +0.000 A 
ATOM      6  C   UNL     1      -2.035  -0.086  -0.333  0.00  0.00    +0.000 A 
ATOM      7  C   UNL     1      -1.661  -1.417  -0.519  0.00  0.00    +0.000 A 
ATOM      8  C   UNL     1      -0.315  -1.749  -0.653  0.00  0.00    +0.000 A 
ENDBRANCH   1   5
BRANCH   1   9
ATOM      9  C   UNL     1      -0.609   3.565  -0.010  0.00  0.00    +0.000 C 
ATOM     10 CL   UNL     1       0.196   3.765  -1.611  0.00  0.00    +0.000 Cl
BRANCH   9  11
ATOM     11  C   UNL     1       0.386   3.681   1.139  0.00  0.00    +0.000 A 
ATOM     12  C   UNL     1       0.409   2.784   2.219  0.00  0.00    +0.000 A 
ATOM     13  C   UNL     1       1.313   2.943   3.274  0.00  0.00    +0.000 A 
ATOM     14  C   UNL     1       2.202   4.013   3.279  0.00  0.00    +0.000 A 
ATOM     15  C   UNL     1       2.183   4.930   2.234  0.00  0.00    +0.000 A 
ATOM     16  C   UNL     1       1.280   4.769   1.180  0.00  0.00    +0.000 A 
ENDBRANCH   9  11
ENDBRANCH   1   9
TORSDOF 3
