REMARK  Name = *****
REMARK  4 active torsions:
REMARK  status: ('A' for Active; 'I' for Inactive)
REMARK    1  A    between atoms: C_5  and  C_7
REMARK    2  A    between atoms: C_7  and  C_8
REMARK    3  A    between atoms: C_8  and  O_10
REMARK    4  A    between atoms: O_10  and  C_11
REMARK                            x       y       z     vdW  Elec       q    Type
REMARK                         _______ _______ _______ _____ _____    ______ ____
ROOT
ATOM      1  O   UNL     1       2.350  -3.681   1.543  0.00  0.00    +0.000 OA
ENDROOT
BRANCH   1   2
ATOM      2  C   UNL     1       3.615  -4.139   1.180  0.00  0.00    +0.000 A 
ATOM      3  C   UNL     1       4.746  -3.417   1.551  0.00  0.00    +0.000 A 
ATOM      4  C   UNL     1       6.008  -3.881   1.198  0.00  0.00    +0.000 A 
ATOM      5  C   UNL     1       6.137  -5.068   0.486  0.00  0.00    +0.000 A 
ATOM      6  C   UNL     1       5.007  -5.797   0.130  0.00  0.00    +0.000 A 
ATOM      7  C   UNL     1       3.744  -5.336   0.481  0.00  0.00    +0.000 A 
ATOM      8  F   UNL     1       2.653  -6.041   0.151  0.00  0.00    +0.000 F 
ATOM      9  F   UNL     1       5.137  -6.949  -0.542  0.00  0.00    +0.000 F 
ATOM     10  F   UNL     1       7.355  -5.519   0.154  0.00  0.00    +0.000 F 
ATOM     11  F   UNL     1       7.100  -3.190   1.554  0.00  0.00    +0.000 F 
ATOM     12  F   UNL     1       4.618  -2.280   2.249  0.00  0.00    +0.000 F 
ENDBRANCH   1   2
BRANCH   1  13
ATOM     13  C   UNL     1       1.826  -2.841   0.562  0.00  0.00    +0.000 C 
ATOM     14  O   UNL     1       2.360  -2.585  -0.510  0.00  0.00    +0.000 OA
BRANCH  13  15
ATOM     15  C   UNL     1       0.460  -2.366   1.011  0.00  0.00    +0.000 C 
BRANCH  15  20
ATOM     16  C   UNL     1      -1.294   0.274  -1.116  0.00  0.00    +0.000 A 
ATOM     17  C   UNL     1      -0.634   1.435  -0.708  0.00  0.00    +0.000 A 
ATOM     18  C   UNL     1       0.374   1.360   0.251  0.00  0.00    +0.000 A 
ATOM     19  C   UNL     1       0.711   0.125   0.796  0.00  0.00    +0.000 A 
ATOM     20  C   UNL     1       0.060  -1.048   0.403  0.00  0.00    +0.000 A 
ATOM     21  C   UNL     1      -0.949  -0.964  -0.565  0.00  0.00    +0.000 A 
ATOM     22  F   UNL     1       1.679   0.064   1.722  0.00  0.00    +0.000 F 
ENDBRANCH  15  20
ENDBRANCH  13  15
ENDBRANCH   1  13
TORSDOF 4
