REMARK  Name = *****
REMARK  2 active torsions:
REMARK  status: ('A' for Active; 'I' for Inactive)
REMARK    1  A    between atoms: N_6  and  C_9
REMARK    2  A    between atoms: C_10  and  C_11
REMARK                            x       y       z     vdW  Elec       q    Type
REMARK                         _______ _______ _______ _____ _____    ______ ____
ROOT
ATOM      1  C   UNL     1      -1.541   0.817   0.340  0.00  0.00    +0.000 C 
ATOM      2  C   UNL     1      -0.342   1.644  -0.118  0.00  0.00    +0.000 C 
ATOM      3  C   UNL     1       0.990   1.158   0.458  0.00  0.00    +0.000 C 
ATOM      4  C   UNL     1       1.624   0.063  -0.409  0.00  0.00    +0.000 C 
ATOM      5  S   UNL     1       3.128   0.409  -1.105  0.00  0.00    +0.000 S 
ATOM      6  N   UNL     1       0.879  -1.127  -0.576  0.00  0.00    +0.000 N 
ATOM      7  C   UNL     1      -0.267  -1.387   0.315  0.00  0.00    +0.000 C 
ATOM      8  C   UNL     1      -1.521  -0.637  -0.123  0.00  0.00    +0.000 C 
ENDROOT
BRANCH   6   9
ATOM      9  C   UNL     1       1.187  -2.050  -1.587  0.00  0.00    +0.000 C 
ATOM     10  C   UNL     1       0.494  -3.151  -1.921  0.00  0.00    +0.000 C 
BRANCH  10  11
ATOM     11  C   UNL     1       0.895  -4.054  -3.014  0.00  0.00    +0.000 A 
ATOM     12  C   UNL     1       2.231  -4.417  -3.233  0.00  0.00    +0.000 A 
ATOM     13  C   UNL     1       2.568  -5.302  -4.260  0.00  0.00    +0.000 A 
ATOM     14  C   UNL     1       1.573  -5.843  -5.070  0.00  0.00    +0.000 A 
ATOM     15  C   UNL     1       0.239  -5.504  -4.852  0.00  0.00    +0.000 A 
ATOM     16  C   UNL     1      -0.098  -4.619  -3.825  0.00  0.00    +0.000 A 
ENDBRANCH  10  11
ENDBRANCH   6   9
TORSDOF 2
