REMARK  Name = *****
REMARK  3 active torsions:
REMARK  status: ('A' for Active; 'I' for Inactive)
REMARK    1  A    between atoms: C_4  and  C_7
REMARK    2  A    between atoms: C_7  and  C_15
REMARK    3  A    between atoms: C_8  and  C_9
REMARK                            x       y       z     vdW  Elec       q    Type
REMARK                         _______ _______ _______ _____ _____    ______ ____
ROOT
ATOM      1  C   UNL     1      -2.887   0.326   0.079  0.00  0.00    +0.000 C 
ATOM      2  C   UNL     1      -3.446   1.464  -0.377  0.00  0.00    +0.000 C 
ENDROOT
BRANCH   1   6
ATOM      3  C   UNL     1       1.386  -0.021   0.090  0.00  0.00    +0.000 A 
ATOM      4  C   UNL     1       0.770   1.005   0.803  0.00  0.00    +0.000 A 
ATOM      5  C   UNL     1      -0.622   1.122   0.799  0.00  0.00    +0.000 A 
ATOM      6  C   UNL     1      -1.412   0.213   0.079  0.00  0.00    +0.000 A 
ATOM      7  C   UNL     1      -0.779  -0.818  -0.631  0.00  0.00    +0.000 A 
ATOM      8  C   UNL     1       0.613  -0.932  -0.627  0.00  0.00    +0.000 A 
ENDBRANCH   1   6
BRANCH   2   9
ATOM      9  C   UNL     1      -4.874   1.776  -0.496  0.00  0.00    +0.000 A 
ATOM     10  C   UNL     1      -5.785   1.590   0.539  0.00  0.00    +0.000 A 
ATOM     11  C   UNL     1      -7.113   1.958   0.338  0.00  0.00    +0.000 A 
ATOM     12  C   UNL     1      -7.489   2.513  -0.879  0.00  0.00    +0.000 A 
ATOM     13  C   UNL     1      -6.513   2.686  -1.844  0.00  0.00    +0.000 A 
ATOM     14  N   UNL     1      -5.217   2.342  -1.675  0.00  0.00    +0.000 NA
ENDBRANCH   2   9
BRANCH   1  15
ATOM     15  C   UNL     1      -3.660  -0.795   0.514  0.00  0.00    +0.000 C 
ATOM     16  N   UNL     1      -4.292  -1.698   0.880  0.00  0.00    +0.000 NA
ENDBRANCH   1  15
TORSDOF 3
