REMARK  Name = *****
REMARK  6 active torsions:
REMARK  status: ('A' for Active; 'I' for Inactive)
REMARK    1  A    between atoms: C_1  and  C_2
REMARK    2  A    between atoms: C_5  and  C_8
REMARK    3  A    between atoms: C_8  and  O_9
REMARK    4  A    between atoms: O_9  and  C_10
REMARK    5  A    between atoms: C_10  and  C_11
REMARK    6  A    between atoms: C_14  and  C_17
REMARK                            x       y       z     vdW  Elec       q    Type
REMARK                         _______ _______ _______ _____ _____    ______ ____
ROOT
ATOM      1  O   UNL     1      -4.003   0.918   0.525  0.00  0.00    +0.000 OA
ENDROOT
BRANCH   1   2
ATOM      2  C   UNL     1      -3.320  -0.174  -0.091  0.00  0.00    +0.000 C 
BRANCH   2   7
ATOM      3  C   UNL     1       2.535   0.045   0.153  0.00  0.00    +0.000 C 
ATOM      4  C   UNL     1       1.037   0.028   0.057  0.00  0.00    +0.000 C 
ATOM      5  C   UNL     1       0.318   1.154  -0.100  0.00  0.00    +0.000 C 
ATOM      6  C   UNL     1      -1.183   1.186  -0.160  0.00  0.00    +0.000 C 
ATOM      7  C   UNL     1      -1.840  -0.129   0.299  0.00  0.00    +0.000 C 
ATOM      8  C   UNL     1      -1.086  -1.332  -0.276  0.00  0.00    +0.000 C 
ATOM      9  C   UNL     1       0.384  -1.328   0.153  0.00  0.00    +0.000 C 
ENDBRANCH   2   7
ENDBRANCH   1   2
BRANCH   1  10
ATOM     10  C   UNL     1      -5.390   0.935   0.190  0.00  0.00    +0.000 C 
BRANCH  10  11
ATOM     11  C   UNL     1      -6.061   2.127   0.881  0.00  0.00    +0.000 C 
ATOM     12  C   UNL     1      -7.534   2.235   0.475  0.00  0.00    +0.000 C 
ATOM     13  C   UNL     1      -8.201   3.456   1.114  0.00  0.00    +0.000 C 
ATOM     14  C   UNL     1      -7.853   3.641   2.569  0.00  0.00    +0.000 C 
ATOM     15  C   UNL     1      -6.835   2.978   3.146  0.00  0.00    +0.000 C 
ATOM     16  C   UNL     1      -5.931   2.028   2.411  0.00  0.00    +0.000 C 
ATOM     17  C   UNL     1      -8.705   4.613   3.332  0.00  0.00    +0.000 C 
ENDBRANCH  10  11
ENDBRANCH   1  10
TORSDOF 4
