REMARK  Name = *****
REMARK  2 active torsions:
REMARK  status: ('A' for Active; 'I' for Inactive)
REMARK    1  A    between atoms: C_4  and  C_7
REMARK    2  A    between atoms: C_8  and  C_9
REMARK                            x       y       z     vdW  Elec       q    Type
REMARK                         _______ _______ _______ _____ _____    ______ ____
ROOT
ATOM      1  C   UNL     1      -5.176  -0.223  -0.417  0.00  0.00    +0.000 A 
ATOM      2  C   UNL     1      -5.972  -1.166  -1.086  0.00  0.00    +0.000 A 
ATOM      3  C   UNL     1      -7.342  -0.977  -1.226  0.00  0.00    +0.000 A 
ATOM      4  C   UNL     1      -7.940   0.154  -0.689  0.00  0.00    +0.000 A 
ATOM      5  C   UNL     1      -7.180   1.097  -0.005  0.00  0.00    +0.000 A 
ATOM      6  C   UNL     1      -5.801   0.907   0.136  0.00  0.00    +0.000 A 
ATOM      7  F   UNL     1      -9.260   0.345  -0.817  0.00  0.00    +0.000 F 
ATOM      8  F   UNL     1      -8.084  -1.885  -1.876  0.00  0.00    +0.000 F 
ATOM      9  F   UNL     1      -5.410  -2.270  -1.605  0.00  0.00    +0.000 F 
ENDROOT
BRANCH   1  11
ATOM     10  C   UNL     1      -2.793   0.482  -0.235  0.00  0.00    +0.000 C 
ATOM     11  C   UNL     1      -3.734  -0.476  -0.265  0.00  0.00    +0.000 C 
BRANCH  10  15
ATOM     12  C   UNL     1       1.412  -0.198   0.177  0.00  0.00    +0.000 A 
ATOM     13  C   UNL     1       0.644  -1.087  -0.573  0.00  0.00    +0.000 A 
ATOM     14  C   UNL     1      -0.731  -0.881  -0.710  0.00  0.00    +0.000 A 
ATOM     15  C   UNL     1      -1.355   0.210  -0.090  0.00  0.00    +0.000 A 
ATOM     16  C   UNL     1      -0.568   1.105   0.647  0.00  0.00    +0.000 A 
ATOM     17  C   UNL     1       0.807   0.899   0.784  0.00  0.00    +0.000 A 
ENDBRANCH  10  15
ENDBRANCH   1  11
TORSDOF 2
