REMARK  Name = *****
REMARK  5 active torsions:
REMARK  status: ('A' for Active; 'I' for Inactive)
REMARK    1  A    between atoms: C_1  and  C_2
REMARK    2  A    between atoms: C_3  and  C_17
REMARK    3  A    between atoms: C_5  and  O_8
REMARK    4  A    between atoms: O_8  and  C_9
REMARK    5  A    between atoms: C_9  and  C_11
REMARK                            x       y       z     vdW  Elec       q    Type
REMARK                         _______ _______ _______ _____ _____    ______ ____
ROOT
ATOM      1  O   UNL     1      -3.088  -1.355   0.122  0.00  0.00    +0.000 OA
ENDROOT
BRANCH   1   6
ATOM      2  C   UNL     1       1.853   1.484   0.121  0.00  0.00    +0.000 C 
ATOM      3  C   UNL     1       0.555   0.723   0.107  0.00  0.00    +0.000 A 
ATOM      4  C   UNL     1       0.524  -0.673  -0.100  0.00  0.00    +0.000 A 
ATOM      5  C   UNL     1      -0.712  -1.338  -0.108  0.00  0.00    +0.000 A 
ATOM      6  C   UNL     1      -1.893  -0.623   0.077  0.00  0.00    +0.000 A 
ATOM      7  C   UNL     1      -1.872   0.748   0.310  0.00  0.00    +0.000 A 
ATOM      8  C   UNL     1      -0.649   1.418   0.316  0.00  0.00    +0.000 A 
ATOM      9  C   UNL     1       1.785  -1.462  -0.317  0.00  0.00    +0.000 C 
ENDBRANCH   1   6
BRANCH   1  10
ATOM     10  C   UNL     1      -4.071  -0.985  -0.778  0.00  0.00    +0.000 C 
ATOM     11  O   UNL     1      -4.009  -0.105  -1.623  0.00  0.00    +0.000 OA
BRANCH  10  12
ATOM     12  C   UNL     1      -5.276  -1.840  -0.583  0.00  0.00    +0.000 A 
ATOM     13  C   UNL     1      -6.388  -1.608  -1.404  0.00  0.00    +0.000 A 
ATOM     14  C   UNL     1      -7.544  -2.379  -1.264  0.00  0.00    +0.000 A 
ATOM     15  C   UNL     1      -7.596  -3.387  -0.303  0.00  0.00    +0.000 A 
ATOM     16  C   UNL     1      -6.496  -3.626   0.519  0.00  0.00    +0.000 A 
ATOM     17  C   UNL     1      -5.337  -2.856   0.382  0.00  0.00    +0.000 A 
ENDBRANCH  10  12
ENDBRANCH   1  10
TORSDOF 3
