REMARK  Name = *****
REMARK  1 active torsions:
REMARK  status: ('A' for Active; 'I' for Inactive)
REMARK    1  A    between atoms: C_4  and  C_7
REMARK                            x       y       z     vdW  Elec       q    Type
REMARK                         _______ _______ _______ _____ _____    ______ ____
ROOT
ATOM      1  C   UNL     1      -3.098  -1.015  -0.473  0.00  0.00    +0.000 A 
ATOM      2  C   UNL     1      -3.894  -2.018   0.083  0.00  0.00    +0.000 A 
ATOM      3  C   UNL     1      -5.221  -2.203  -0.380  0.00  0.00    +0.000 A 
ATOM      4  C   UNL     1      -6.120  -3.192   0.103  0.00  0.00    +0.000 A 
ATOM      5  C   UNL     1      -7.414  -3.310  -0.405  0.00  0.00    +0.000 A 
ATOM      6  C   UNL     1      -7.838  -2.445  -1.402  0.00  0.00    +0.000 A 
ATOM      7  C   UNL     1      -6.965  -1.469  -1.882  0.00  0.00    +0.000 A 
ATOM      8  C   UNL     1      -5.671  -1.336  -1.389  0.00  0.00    +0.000 A 
ATOM      9  N   UNL     1      -4.881  -0.377  -1.886  0.00  0.00    +0.000 NA
ATOM     10  N   UNL     1      -3.597  -0.209  -1.434  0.00  0.00    +0.000 NA
ATOM     11 CL   UNL     1      -3.279  -3.014   1.373  0.00  0.00    +0.000 Cl
ENDROOT
BRANCH   1  15
ATOM     12  C   UNL     1       0.956  -0.110   0.601  0.00  0.00    +0.000 A 
ATOM     13  C   UNL     1       0.635  -1.373   0.108  0.00  0.00    +0.000 A 
ATOM     14  C   UNL     1      -0.684  -1.673  -0.244  0.00  0.00    +0.000 A 
ATOM     15  C   UNL     1      -1.707  -0.719  -0.099  0.00  0.00    +0.000 A 
ATOM     16  C   UNL     1      -1.357   0.553   0.386  0.00  0.00    +0.000 A 
ATOM     17  C   UNL     1      -0.039   0.855   0.737  0.00  0.00    +0.000 A 
ENDBRANCH   1  15
TORSDOF 1
