REMARK  Name = *****
REMARK  3 active torsions:
REMARK  status: ('A' for Active; 'I' for Inactive)
REMARK    1  A    between atoms: C_1  and  C_2
REMARK    2  A    between atoms: C_5  and  C_8
REMARK    3  A    between atoms: C_9  and  C_10
REMARK                            x       y       z     vdW  Elec       q    Type
REMARK                         _______ _______ _______ _____ _____    ______ ____
ROOT
ATOM      1  C   UNL     1       2.494  -0.031  -0.024  0.00  0.00    +0.000 C 
ATOM      2  C   UNL     1       0.994   0.008  -0.038  0.00  0.00    +0.000 A 
ATOM      3  C   UNL     1       0.312   1.212   0.165  0.00  0.00    +0.000 A 
ATOM      4  C   UNL     1      -1.086   1.241   0.183  0.00  0.00    +0.000 A 
ATOM      5  C   UNL     1      -1.826   0.066  -0.000  0.00  0.00    +0.000 A 
ATOM      6  C   UNL     1      -1.140  -1.142  -0.171  0.00  0.00    +0.000 A 
ATOM      7  C   UNL     1       0.258  -1.171  -0.191  0.00  0.00    +0.000 A 
ENDROOT
BRANCH   5   8
ATOM      8  C   UNL     1      -3.294   0.052   0.045  0.00  0.00    +0.000 C 
ATOM      9  C   UNL     1      -4.065   0.973  -0.559  0.00  0.00    +0.000 C 
BRANCH   9  10
ATOM     10  C   UNL     1      -5.491   1.005  -0.555  0.00  0.00    +0.000 A 
ATOM     11  C   UNL     1      -6.352   0.144   0.089  0.00  0.00    +0.000 A 
ATOM     12  O   UNL     1      -7.644   0.498  -0.142  0.00  0.00    +0.000 OA
ATOM     13  C   UNL     1      -7.614   1.596  -0.941  0.00  0.00    +0.000 A 
ATOM     14  C   UNL     1      -6.314   1.949  -1.223  0.00  0.00    +0.000 A 
ENDBRANCH   9  10
ENDBRANCH   5   8
TORSDOF 2
