REMARK  Name = *****
REMARK  4 active torsions:
REMARK  status: ('A' for Active; 'I' for Inactive)
REMARK    1  A    between atoms: C_4  and  C_7
REMARK    2  A    between atoms: C_7  and  O_9
REMARK    3  A    between atoms: O_9  and  C_10
REMARK    4  A    between atoms: C_14  and  C_16
REMARK                            x       y       z     vdW  Elec       q    Type
REMARK                         _______ _______ _______ _____ _____    ______ ____
ROOT
ATOM      1  C   UNL     1      -5.425   0.350  -0.780  0.00  0.00    +0.000 A 
ATOM      2  C   UNL     1      -6.119   0.926  -1.842  0.00  0.00    +0.000 A 
ATOM      3  C   UNL     1      -7.390   0.452  -2.160  0.00  0.00    +0.000 A 
ATOM      4  C   UNL     1      -7.962  -0.577  -1.406  0.00  0.00    +0.000 A 
ATOM      5  C   UNL     1      -7.273  -1.138  -0.316  0.00  0.00    +0.000 A 
ATOM      6  C   UNL     1      -5.990  -0.663  -0.007  0.00  0.00    +0.000 A 
ENDROOT
BRANCH   5   7
ATOM      7  C   UNL     1      -7.883  -2.257   0.489  0.00  0.00    +0.000 C 
ATOM      8  F   UNL     1      -9.244  -2.284   0.428  0.00  0.00    +0.000 F 
ATOM      9  F   UNL     1      -7.466  -3.485   0.075  0.00  0.00    +0.000 F 
ATOM     10  F   UNL     1      -7.575  -2.185   1.814  0.00  0.00    +0.000 F 
ENDBRANCH   5   7
BRANCH   1  11
ATOM     11  O   UNL     1      -4.171   0.846  -0.422  0.00  0.00    +0.000 OA
BRANCH  11  12
ATOM     12  C   UNL     1      -3.142   0.336  -1.193  0.00  0.00    +0.000 C 
ATOM     13  O   UNL     1      -3.233  -0.479  -2.099  0.00  0.00    +0.000 OA
BRANCH  12  17
ATOM     14  C   UNL     1       0.644   2.001  -0.049  0.00  0.00    +0.000 A 
ATOM     15  C   UNL     1      -0.503   2.378   0.650  0.00  0.00    +0.000 A 
ATOM     16  C   UNL     1      -1.746   1.848   0.295  0.00  0.00    +0.000 A 
ATOM     17  C   UNL     1      -1.847   0.935  -0.765  0.00  0.00    +0.000 A 
ATOM     18  C   UNL     1      -0.688   0.562  -1.461  0.00  0.00    +0.000 A 
ATOM     19  C   UNL     1       0.552   1.094  -1.104  0.00  0.00    +0.000 A 
ENDBRANCH  12  17
ENDBRANCH  11  12
ENDBRANCH   1  11
TORSDOF 4
