REMARK  Name = *****
REMARK  0 active torsions:
REMARK  status: ('A' for Active; 'I' for Inactive)
REMARK                            x       y       z     vdW  Elec       q    Type
REMARK                         _______ _______ _______ _____ _____    ______ ____
ROOT
ATOM      1  C   UNL     1       0.740   1.217  -0.249  0.00  0.00    +0.000 C 
ATOM      2  C   UNL     1       1.443  -0.038   0.268  0.00  0.00    +0.000 C 
ATOM      3  C   UNL     1       0.686  -1.311  -0.110  0.00  0.00    +0.000 C 
ATOM      4  C   UNL     1      -0.760  -1.228   0.310  0.00  0.00    +0.000 C 
ATOM      5  C   UNL     1      -1.343  -2.157   1.016  0.00  0.00    +0.000 C 
ATOM      6  C   UNL     1      -1.927  -3.086   1.721  0.00  0.00    +0.000 C 
ATOM      7  C   UNL     1      -1.221  -4.349   2.148  0.00  0.00    +0.000 C 
ATOM      8  C   UNL     1      -2.040  -5.587   1.781  0.00  0.00    +0.000 C 
ATOM      9  C   UNL     1      -3.474  -5.496   2.303  0.00  0.00    +0.000 C 
ATOM     10  C   UNL     1      -4.160  -4.215   1.830  0.00  0.00    +0.000 C 
ATOM     11  C   UNL     1      -3.353  -2.969   2.198  0.00  0.00    +0.000 C 
ATOM     12  C   UNL     1      -1.483   0.008  -0.163  0.00  0.00    +0.000 C 
ATOM     13  C   UNL     1      -0.715   1.274   0.216  0.00  0.00    +0.000 C 
ENDROOT
TORSDOF 0
