REMARK  Name = *****
REMARK  2 active torsions:
REMARK  status: ('A' for Active; 'I' for Inactive)
REMARK    1  A    between atoms: C_4  and  C_8
REMARK    2  A    between atoms: C_9  and  C_10
REMARK                            x       y       z     vdW  Elec       q    Type
REMARK                         _______ _______ _______ _____ _____    ______ ____
ROOT
ATOM      1  C   UNL     1      -1.574   2.162   0.553  0.00  0.00    +0.000 C 
ATOM      2  C   UNL     1      -2.293   3.121   0.463  0.00  0.00    +0.000 C 
ENDROOT
BRANCH   1   6
ATOM      3  C   UNL     1       1.330  -1.239   0.289  0.00  0.00    +0.000 C 
ATOM      4  C   UNL     1       1.637   0.193  -0.137  0.00  0.00    +0.000 C 
ATOM      5  C   UNL     1       0.432   1.100  -0.381  0.00  0.00    +0.000 C 
ATOM      6  C   UNL     1      -0.687   0.982   0.666  0.00  0.00    +0.000 C 
ATOM      7  C   UNL     1      -1.543  -0.258   0.519  0.00  0.00    +0.000 C 
ATOM      8  C   UNL     1      -1.195  -1.445  -0.004  0.00  0.00    +0.000 C 
ATOM      9  C   UNL     1       0.167  -1.890  -0.455  0.00  0.00    +0.000 C 
ENDBRANCH   1   6
BRANCH   2  10
ATOM     10  C   UNL     1      -3.154   4.258   0.353  0.00  0.00    +0.000 A 
ATOM     11  C   UNL     1      -3.547   4.717  -0.905  0.00  0.00    +0.000 A 
ATOM     12  C   UNL     1      -4.390   5.826  -1.013  0.00  0.00    +0.000 A 
ATOM     13  C   UNL     1      -4.839   6.475   0.137  0.00  0.00    +0.000 A 
ATOM     14  C   UNL     1      -4.446   6.017   1.395  0.00  0.00    +0.000 A 
ATOM     15  C   UNL     1      -3.604   4.909   1.504  0.00  0.00    +0.000 A 
ENDBRANCH   2  10
TORSDOF 2
