REMARK  Name = *****
REMARK  1 active torsions:
REMARK  status: ('A' for Active; 'I' for Inactive)
REMARK    1  A    between atoms: C_2  and  C_11
REMARK                            x       y       z     vdW  Elec       q    Type
REMARK                         _______ _______ _______ _____ _____    ______ ____
ROOT
ATOM      1  C   UNL     1      -2.448   0.043  -0.528  0.00  0.00    +0.000 C 
ATOM      2  C   UNL     1      -2.044   1.390  -0.001  0.00  0.00    +0.000 C 
ATOM      3  C   UNL     1      -0.784   1.763   0.284  0.00  0.00    +0.000 C 
ATOM      4  C   UNL     1       0.356   0.853   0.112  0.00  0.00    +0.000 A 
ATOM      5  C   UNL     1       1.651   1.391   0.078  0.00  0.00    +0.000 A 
ATOM      6  C   UNL     1       2.765   0.558  -0.049  0.00  0.00    +0.000 A 
ATOM      7  C   UNL     1       2.596  -0.821  -0.132  0.00  0.00    +0.000 A 
ATOM      8  C   UNL     1       1.314  -1.369  -0.088  0.00  0.00    +0.000 A 
ATOM      9  C   UNL     1       0.190  -0.540   0.027  0.00  0.00    +0.000 A 
ATOM     10  S   UNL     1      -1.420  -1.312   0.114  0.00  0.00    +0.000 S 
ENDROOT
BRANCH   2  11
ATOM     11  C   UNL     1      -3.127   2.364   0.189  0.00  0.00    +0.000 A 
ATOM     12  C   UNL     1      -3.484   3.236  -0.846  0.00  0.00    +0.000 A 
ATOM     13  C   UNL     1      -4.511   4.163  -0.660  0.00  0.00    +0.000 A 
ATOM     14  C   UNL     1      -5.183   4.225   0.561  0.00  0.00    +0.000 A 
ATOM     15  C   UNL     1      -4.829   3.362   1.597  0.00  0.00    +0.000 A 
ATOM     16  C   UNL     1      -3.802   2.434   1.414  0.00  0.00    +0.000 A 
ENDBRANCH   2  11
TORSDOF 1
