REMARK  Name = *****
REMARK  3 active torsions:
REMARK  status: ('A' for Active; 'I' for Inactive)
REMARK    1  A    between atoms: C_4  and  C_7
REMARK    2  A    between atoms: C_7  and  S_9
REMARK    3  A    between atoms: S_9  and  C_10
REMARK                            x       y       z     vdW  Elec       q    Type
REMARK                         _______ _______ _______ _____ _____    ______ ____
ROOT
ATOM      1  C   UNL     1      -2.835   0.106   0.125  0.00  0.00    +0.000 C 
ATOM      2  O   UNL     1      -3.312   0.922   0.906  0.00  0.00    +0.000 OA
ENDROOT
BRANCH   1   6
ATOM      3  C   UNL     1       1.447  -0.246  -0.112  0.00  0.00    +0.000 A 
ATOM      4  C   UNL     1       0.656  -1.132  -0.841  0.00  0.00    +0.000 A 
ATOM      5  C   UNL     1      -0.739  -1.039  -0.787  0.00  0.00    +0.000 A 
ATOM      6  C   UNL     1      -1.354  -0.055   0.001  0.00  0.00    +0.000 A 
ATOM      7  C   UNL     1      -0.544   0.829   0.732  0.00  0.00    +0.000 A 
ATOM      8  C   UNL     1       0.849   0.735   0.674  0.00  0.00    +0.000 A 
ENDBRANCH   1   6
BRANCH   1   9
ATOM      9  S   UNL     1      -3.882  -0.865  -0.905  0.00  0.00    +0.000 S 
BRANCH   9  10
ATOM     10  C   UNL     1      -4.963  -1.568   0.336  0.00  0.00    +0.000 A 
ATOM     11  C   UNL     1      -6.073  -0.811   0.741  0.00  0.00    +0.000 A 
ATOM     12  C   UNL     1      -6.964  -1.302   1.698  0.00  0.00    +0.000 A 
ATOM     13  C   UNL     1      -6.760  -2.559   2.259  0.00  0.00    +0.000 A 
ATOM     14  C   UNL     1      -5.665  -3.326   1.864  0.00  0.00    +0.000 A 
ATOM     15  C   UNL     1      -4.768  -2.836   0.907  0.00  0.00    +0.000 A 
ATOM     16 BR   UNL     1      -3.307  -3.962   0.441  0.00  0.00    +0.000 Br
ENDBRANCH   9  10
ENDBRANCH   1   9
TORSDOF 3
