REMARK  Name = *****
REMARK  5 active torsions:
REMARK  status: ('A' for Active; 'I' for Inactive)
REMARK    1  A    between atoms: C_1  and  C_2
REMARK    2  A    between atoms: C_5  and  N_8
REMARK    3  A    between atoms: N_8  and  C_9
REMARK    4  A    between atoms: C_10  and  O_12
REMARK    5  A    between atoms: O_12  and  C_13
REMARK                            x       y       z     vdW  Elec       q    Type
REMARK                         _______ _______ _______ _____ _____    ______ ____
ROOT
ATOM      1  N   UNL     1      -3.173  -0.061  -0.282  0.00  0.00    +0.000 N 
ATOM      2  C   UNL     1      -3.874  -1.322  -0.043  0.00  0.00    +0.000 C 
ATOM      3  C   UNL     1      -3.892   1.050  -0.764  0.00  0.00    +0.000 C 
ATOM      4  O   UNL     1      -3.414   2.134  -1.083  0.00  0.00    +0.000 OA
ENDROOT
BRANCH   1   9
ATOM      5  C   UNL     1       2.575  -0.056   0.424  0.00  0.00    +0.000 C 
ATOM      6  C   UNL     1       1.084  -0.057   0.271  0.00  0.00    +0.000 A 
ATOM      7  C   UNL     1       0.374   1.143   0.218  0.00  0.00    +0.000 A 
ATOM      8  C   UNL     1      -1.017   1.146   0.039  0.00  0.00    +0.000 A 
ATOM      9  C   UNL     1      -1.741  -0.045  -0.107  0.00  0.00    +0.000 A 
ATOM     10  C   UNL     1      -1.008  -1.244  -0.058  0.00  0.00    +0.000 A 
ATOM     11  C   UNL     1       0.382  -1.252   0.119  0.00  0.00    +0.000 A 
ENDBRANCH   1   9
BRANCH   3  12
ATOM     12  O   UNL     1      -5.263   0.777  -0.880  0.00  0.00    +0.000 OA
BRANCH  12  13
ATOM     13  C   UNL     1      -6.093   1.773  -1.416  0.00  0.00    +0.000 A 
ATOM     14  C   UNL     1      -5.902   2.258  -2.709  0.00  0.00    +0.000 A 
ATOM     15  C   UNL     1      -6.791   3.201  -3.222  0.00  0.00    +0.000 A 
ATOM     16  C   UNL     1      -7.870   3.637  -2.450  0.00  0.00    +0.000 A 
ATOM     17  C   UNL     1      -8.065   3.128  -1.164  0.00  0.00    +0.000 A 
ATOM     18  C   UNL     1      -7.178   2.186  -0.645  0.00  0.00    +0.000 A 
ENDBRANCH  12  13
ENDBRANCH   3  12
TORSDOF 3
