REMARK  Name = *****
REMARK  3 active torsions:
REMARK  status: ('A' for Active; 'I' for Inactive)
REMARK    1  A    between atoms: C_4  and  N_7
REMARK    2  A    between atoms: N_7  and  N_8
REMARK    3  A    between atoms: N_8  and  C_10
REMARK                            x       y       z     vdW  Elec       q    Type
REMARK                         _______ _______ _______ _____ _____    ______ ____
ROOT
ATOM      1  N   UNL     1      -3.786  -0.750  -0.312  0.00  0.00    +0.000 N 
ATOM      2  O   UNL     1      -3.555  -1.942  -0.282  0.00  0.00    +0.000 OA
ENDROOT
BRANCH   1   3
ATOM      3  C   UNL     1      -5.165  -0.331  -0.463  0.00  0.00    +0.000 A 
ATOM      4  C   UNL     1      -5.640   0.787   0.231  0.00  0.00    +0.000 A 
ATOM      5  C   UNL     1      -6.969   1.173   0.064  0.00  0.00    +0.000 A 
ATOM      6  C   UNL     1      -7.820   0.455  -0.778  0.00  0.00    +0.000 A 
ATOM      7  C   UNL     1      -7.343  -0.667  -1.458  0.00  0.00    +0.000 A 
ATOM      8  C   UNL     1      -6.015  -1.064  -1.301  0.00  0.00    +0.000 A 
ATOM      9 CL   UNL     1      -7.566   2.549   0.907  0.00  0.00    +0.000 Cl
ENDBRANCH   1   3
BRANCH   1  10
ATOM     10  N   UNL     1      -2.758   0.227  -0.250  0.00  0.00    +0.000 N 
ATOM     11  H   UNL     1      -3.071   1.159  -0.301  0.00  0.00    +0.000 HD
BRANCH  10  15
ATOM     12  C   UNL     1       1.439  -0.074   0.153  0.00  0.00    +0.000 A 
ATOM     13  C   UNL     1       0.664  -1.229   0.186  0.00  0.00    +0.000 A 
ATOM     14  C   UNL     1      -0.727  -1.148   0.051  0.00  0.00    +0.000 A 
ATOM     15  C   UNL     1      -1.366   0.082  -0.127  0.00  0.00    +0.000 A 
ATOM     16  C   UNL     1      -0.566   1.237  -0.148  0.00  0.00    +0.000 A 
ATOM     17  C   UNL     1       0.824   1.162  -0.012  0.00  0.00    +0.000 A 
ENDBRANCH  10  15
ENDBRANCH   1  10
TORSDOF 3
