REMARK  Name = *****
REMARK  4 active torsions:
REMARK  status: ('A' for Active; 'I' for Inactive)
REMARK    1  A    between atoms: C_4  and  N_7
REMARK    2  A    between atoms: N_7  and  C_8
REMARK    3  A    between atoms: C_8  and  C_9
REMARK    4  A    between atoms: C_9  and  C_10
REMARK                            x       y       z     vdW  Elec       q    Type
REMARK                         _______ _______ _______ _____ _____    ______ ____
ROOT
ATOM      1  C   UNL     1       4.902  -1.699  -0.428  0.00  0.00    +0.000 C 
ATOM      2 CL   UNL     1       5.562  -0.391  -1.454  0.00  0.00    +0.000 Cl
ATOM      3 CL   UNL     1       5.909  -1.796   1.071  0.00  0.00    +0.000 Cl
ENDROOT
BRANCH   1   4
ATOM      4  C   UNL     1       4.920  -3.012  -1.208  0.00  0.00    +0.000 A 
ATOM      5  C   UNL     1       3.785  -3.445  -1.924  0.00  0.00    +0.000 A 
ATOM      6  C   UNL     1       3.802  -4.632  -2.662  0.00  0.00    +0.000 A 
ATOM      7  C   UNL     1       4.957  -5.403  -2.719  0.00  0.00    +0.000 A 
ATOM      8  C   UNL     1       6.102  -4.982  -2.050  0.00  0.00    +0.000 A 
ATOM      9  C   UNL     1       6.087  -3.796  -1.312  0.00  0.00    +0.000 A 
ENDBRANCH   1   4
BRANCH   1  10
ATOM     10  C   UNL     1       3.512  -1.325   0.091  0.00  0.00    +0.000 C 
BRANCH  10  11
ATOM     11  N   UNL     1       2.717  -0.480  -0.485  0.00  0.00    +0.000 NA
BRANCH  11  15
ATOM     12  C   UNL     1      -1.452   0.357  -0.102  0.00  0.00    +0.000 C 
ATOM     13  C   UNL     1      -0.988  -1.071   0.166  0.00  0.00    +0.000 C 
ATOM     14  C   UNL     1       0.419  -1.317  -0.372  0.00  0.00    +0.000 C 
ATOM     15  C   UNL     1       1.420  -0.295   0.179  0.00  0.00    +0.000 C 
ATOM     16  C   UNL     1       0.949   1.136  -0.102  0.00  0.00    +0.000 C 
ATOM     17  C   UNL     1      -0.458   1.382   0.437  0.00  0.00    +0.000 C 
ENDBRANCH  11  15
ENDBRANCH  10  11
ENDBRANCH   1  10
TORSDOF 4
