REMARK  Name = *****
REMARK  3 active torsions:
REMARK  status: ('A' for Active; 'I' for Inactive)
REMARK    1  A    between atoms: C_2  and  C_12
REMARK    2  A    between atoms: C_3  and  C_4
REMARK    3  A    between atoms: C_7  and  C_10
REMARK                            x       y       z     vdW  Elec       q    Type
REMARK                         _______ _______ _______ _____ _____    ______ ____
ROOT
ATOM      1  C   UNL     1       0.055   0.644   0.069  0.00  0.00    +0.000 C 
ATOM      2  C   UNL     1       0.828  -0.634   0.273  0.00  0.00    +0.000 C 
ATOM      3  C   UNL     1      -0.639  -0.678  -0.133  0.00  0.00    +0.000 C 
ENDROOT
BRANCH   3   4
ATOM      4  C   UNL     1      -1.676  -1.152   0.858  0.00  0.00    +0.000 A 
ATOM      5  C   UNL     1      -2.795  -0.363   1.176  0.00  0.00    +0.000 A 
ATOM      6  C   UNL     1      -3.765  -0.802   2.081  0.00  0.00    +0.000 A 
ATOM      7  C   UNL     1      -3.632  -2.054   2.682  0.00  0.00    +0.000 A 
ATOM      8  C   UNL     1      -2.539  -2.865   2.380  0.00  0.00    +0.000 A 
ATOM      9  C   UNL     1      -1.575  -2.413   1.472  0.00  0.00    +0.000 A 
BRANCH   7  10
ATOM     10  C   UNL     1      -4.648  -2.532   3.641  0.00  0.00    +0.000 C 
ATOM     11  O   UNL     1      -5.628  -1.862   3.942  0.00  0.00    +0.000 OA
ENDBRANCH   7  10
ENDBRANCH   3   4
BRANCH   2  12
ATOM     12  C   UNL     1       1.894  -1.043  -0.715  0.00  0.00    +0.000 A 
ATOM     13  C   UNL     1       2.974  -0.196  -1.015  0.00  0.00    +0.000 A 
ATOM     14  C   UNL     1       3.972  -0.577  -1.916  0.00  0.00    +0.000 A 
ATOM     15  C   UNL     1       3.913  -1.822  -2.534  0.00  0.00    +0.000 A 
ATOM     16  C   UNL     1       2.859  -2.685  -2.248  0.00  0.00    +0.000 A 
ATOM     17  C   UNL     1       1.864  -2.298  -1.345  0.00  0.00    +0.000 A 
ENDBRANCH   2  12
TORSDOF 3
