REMARK  Name = *****
REMARK  4 active torsions:
REMARK  status: ('A' for Active; 'I' for Inactive)
REMARK    1  A    between atoms: C_1  and  C_2
REMARK    2  A    between atoms: C_5  and  S_8
REMARK    3  A    between atoms: S_8  and  C_9
REMARK    4  A    between atoms: C_9  and  C_11
REMARK                            x       y       z     vdW  Elec       q    Type
REMARK                         _______ _______ _______ _____ _____    ______ ____
ROOT
ATOM      1  C   UNL     1      -3.946   1.825  -0.035  0.00  0.00    +0.000 C 
ATOM      2  O   UNL     1      -3.092   2.675  -0.259  0.00  0.00    +0.000 OA
ENDROOT
BRANCH   1   3
ATOM      3  C   UNL     1      -5.383   2.138  -0.305  0.00  0.00    +0.000 A 
ATOM      4  C   UNL     1      -6.399   1.172  -0.338  0.00  0.00    +0.000 A 
ATOM      5  C   UNL     1      -7.714   1.555  -0.612  0.00  0.00    +0.000 A 
ATOM      6  C   UNL     1      -8.036   2.889  -0.856  0.00  0.00    +0.000 A 
ATOM      7  C   UNL     1      -7.034   3.855  -0.829  0.00  0.00    +0.000 A 
ATOM      8  C   UNL     1      -5.716   3.481  -0.558  0.00  0.00    +0.000 A 
ATOM      9 CL   UNL     1      -8.955   0.362  -0.656  0.00  0.00    +0.000 Cl
ENDBRANCH   1   3
BRANCH   1  10
ATOM     10  S   UNL     1      -3.559   0.252   0.658  0.00  0.00    +0.000 S 
BRANCH  10  15
ATOM     11  C   UNL     1       2.467  -0.432  -0.020  0.00  0.00    +0.000 C 
ATOM     12  C   UNL     1       0.986  -0.239   0.118  0.00  0.00    +0.000 A 
ATOM     13  C   UNL     1       0.478   0.893   0.763  0.00  0.00    +0.000 A 
ATOM     14  C   UNL     1      -0.901   1.059   0.924  0.00  0.00    +0.000 A 
ATOM     15  C   UNL     1      -1.796   0.104   0.434  0.00  0.00    +0.000 A 
ATOM     16  C   UNL     1      -1.286  -1.042  -0.185  0.00  0.00    +0.000 A 
ATOM     17  C   UNL     1       0.094  -1.215  -0.339  0.00  0.00    +0.000 A 
ENDBRANCH  10  15
ENDBRANCH   1  10
TORSDOF 3
