REMARK  Name = *****
REMARK  3 active torsions:
REMARK  status: ('A' for Active; 'I' for Inactive)
REMARK    1  A    between atoms: C_4  and  S_7
REMARK    2  A    between atoms: S_7  and  N_8
REMARK    3  A    between atoms: N_8  and  C_9
REMARK                            x       y       z     vdW  Elec       q    Type
REMARK                         _______ _______ _______ _____ _____    ______ ____
ROOT
ATOM      1  N   UNL     1      -0.642  -3.587  -0.146  0.00  0.00    +0.000 N 
ATOM      2  H   UNL     1      -0.906  -3.352   0.773  0.00  0.00    +0.000 HD
ENDROOT
BRANCH   1   3
ATOM      3  C   UNL     1      -1.407  -4.554  -0.838  0.00  0.00    +0.000 A 
ATOM      4  C   UNL     1      -1.412  -4.690  -2.234  0.00  0.00    +0.000 A 
ATOM      5  C   UNL     1      -2.243  -5.620  -2.868  0.00  0.00    +0.000 A 
ATOM      6  C   UNL     1      -3.103  -6.416  -2.117  0.00  0.00    +0.000 A 
ATOM      7  C   UNL     1      -3.140  -6.274  -0.733  0.00  0.00    +0.000 A 
ATOM      8  C   UNL     1      -2.308  -5.343  -0.104  0.00  0.00    +0.000 A 
ENDBRANCH   1   3
BRANCH   1   9
ATOM      9  S   UNL     1       0.679  -2.826  -0.808  0.00  0.00    +0.000 S 
BRANCH   9  13
ATOM     10  C   UNL     1      -0.325   1.410   0.737  0.00  0.00    +0.000 C 
ATOM     11  C   UNL     1      -1.047   0.923  -0.514  0.00  0.00    +0.000 C 
ATOM     12  C   UNL     1      -1.020  -0.606  -0.602  0.00  0.00    +0.000 C 
ATOM     13  C   UNL     1       0.341  -1.193  -0.300  0.00  0.00    +0.000 C 
ATOM     14  C   UNL     1       1.310  -0.473   0.292  0.00  0.00    +0.000 C 
ATOM     15  C   UNL     1       1.131   0.946   0.749  0.00  0.00    +0.000 C 
ENDBRANCH   9  13
ENDBRANCH   1   9
TORSDOF 3
