REMARK  Name = *****
REMARK  2 active torsions:
REMARK  status: ('A' for Active; 'I' for Inactive)
REMARK    1  A    between atoms: C_4  and  C_7
REMARK    2  A    between atoms: C_8  and  C_9
REMARK                            x       y       z     vdW  Elec       q    Type
REMARK                         _______ _______ _______ _____ _____    ______ ____
ROOT
ATOM      1  C   UNL     1      -2.811   0.476  -0.359  0.00  0.00    +0.000 C 
ATOM      2  C   UNL     1      -3.757  -0.477  -0.313  0.00  0.00    +0.000 C 
ENDROOT
BRANCH   1   6
ATOM      3  C   UNL     1       1.371  -0.203   0.230  0.00  0.00    +0.000 A 
ATOM      4  C   UNL     1       0.625  -1.120  -0.508  0.00  0.00    +0.000 A 
ATOM      5  C   UNL     1      -0.744  -0.914  -0.702  0.00  0.00    +0.000 A 
ATOM      6  C   UNL     1      -1.381   0.206  -0.150  0.00  0.00    +0.000 A 
ATOM      7  C   UNL     1      -0.616   1.129   0.575  0.00  0.00    +0.000 A 
ATOM      8  C   UNL     1       0.752   0.922   0.769  0.00  0.00    +0.000 A 
ENDBRANCH   1   6
BRANCH   2   9
ATOM      9  C   UNL     1      -5.142  -0.196  -0.513  0.00  0.00    +0.000 A 
ATOM     10  C   UNL     1      -5.809   0.994  -0.773  0.00  0.00    +0.000 A 
ATOM     11  C   UNL     1      -7.222   0.833  -0.909  0.00  0.00    +0.000 A 
ATOM     12  C   UNL     1      -7.585  -0.477  -0.749  0.00  0.00    +0.000 A 
ATOM     13  S   UNL     1      -6.277  -1.501  -0.441  0.00  0.00    +0.000 S 
ATOM     14 BR   UNL     1      -9.355  -1.080  -0.859  0.00  0.00    +0.000 Br
ENDBRANCH   2   9
TORSDOF 2
