REMARK  Name = *****
REMARK  5 active torsions:
REMARK  status: ('A' for Active; 'I' for Inactive)
REMARK    1  A    between atoms: C_1  and  C_2
REMARK    2  A    between atoms: C_4  and  C_17
REMARK    3  A    between atoms: C_6  and  C_8
REMARK    4  A    between atoms: C_8  and  S_10
REMARK    5  A    between atoms: S_10  and  C_11
REMARK                            x       y       z     vdW  Elec       q    Type
REMARK                         _______ _______ _______ _____ _____    ______ ____
ROOT
ATOM      1  C   UNL     1      -2.708   0.579  -0.271  0.00  0.00    +0.000 C 
ATOM      2  O   UNL     1      -2.883   1.756   0.021  0.00  0.00    +0.000 OA
ENDROOT
BRANCH   1   8
ATOM      3  C   UNL     1       2.194   1.277   0.323  0.00  0.00    +0.000 C 
ATOM      4  C   UNL     1       1.048   0.330   0.117  0.00  0.00    +0.000 A 
ATOM      5  C   UNL     1       1.257  -1.052   0.054  0.00  0.00    +0.000 A 
ATOM      6  C   UNL     1       0.184  -1.931  -0.136  0.00  0.00    +0.000 A 
ATOM      7  C   UNL     1      -1.117  -1.417  -0.238  0.00  0.00    +0.000 A 
ATOM      8  C   UNL     1      -1.348  -0.035  -0.179  0.00  0.00    +0.000 A 
ATOM      9  C   UNL     1      -0.257   0.829   0.004  0.00  0.00    +0.000 A 
ATOM     10  C   UNL     1       0.413  -3.415  -0.164  0.00  0.00    +0.000 C 
ENDBRANCH   1   8
BRANCH   1  11
ATOM     11  S   UNL     1      -4.035  -0.419  -0.859  0.00  0.00    +0.000 S 
BRANCH  11  12
ATOM     12  C   UNL     1      -5.307  -0.054   0.334  0.00  0.00    +0.000 A 
ATOM     13  C   UNL     1      -6.566   0.361  -0.114  0.00  0.00    +0.000 A 
ATOM     14  C   UNL     1      -7.593   0.615   0.797  0.00  0.00    +0.000 A 
ATOM     15  C   UNL     1      -7.370   0.450   2.163  0.00  0.00    +0.000 A 
ATOM     16  C   UNL     1      -6.121   0.029   2.618  0.00  0.00    +0.000 A 
ATOM     17  C   UNL     1      -5.094  -0.227   1.706  0.00  0.00    +0.000 A 
ENDBRANCH  11  12
ENDBRANCH   1  11
TORSDOF 3
