REMARK  Name = *****
REMARK  5 active torsions:
REMARK  status: ('A' for Active; 'I' for Inactive)
REMARK    1  A    between atoms: C_1  and  C_2
REMARK    2  A    between atoms: C_7  and  O_10
REMARK    3  A    between atoms: C_8  and  C_9
REMARK    4  A    between atoms: O_10  and  C_11
REMARK    5  A    between atoms: C_11  and  C_12
REMARK                            x       y       z     vdW  Elec       q    Type
REMARK                         _______ _______ _______ _____ _____    ______ ____
ROOT
ATOM      1  C   UNL     1       0.931   0.112   0.113  0.00  0.00    +0.000 C 
ATOM      2  C   UNL     1       2.455  -0.043   0.010  0.00  0.00    +0.000 C 
ATOM      3  C   UNL     1       3.090   1.112  -0.778  0.00  0.00    +0.000 C 
ATOM      4  S   UNL     1       2.670   1.091  -2.539  0.00  0.00    +0.000 S 
ATOM      5  C   UNL     1       3.232  -0.542  -2.888  0.00  0.00    +0.000 C 
ATOM      6  O   UNL     1       4.031  -0.736  -3.794  0.00  0.00    +0.000 OA
ATOM      7  C   UNL     1       2.573  -1.641  -2.033  0.00  0.00    +0.000 C 
ATOM      8  C   UNL     1       2.913  -1.422  -0.539  0.00  0.00    +0.000 C 
ATOM      9  C   UNL     1       2.377  -2.573   0.327  0.00  0.00    +0.000 C 
ENDROOT
BRANCH   7  10
ATOM     10  O   UNL     1       3.027  -2.951  -2.383  0.00  0.00    +0.000 OA
BRANCH  10  11
ATOM     11  C   UNL     1       2.450  -3.444  -3.590  0.00  0.00    +0.000 C 
BRANCH  11  12
ATOM     12  C   UNL     1       3.033  -4.805  -3.863  0.00  0.00    +0.000 A 
ATOM     13  C   UNL     1       2.297  -5.969  -3.604  0.00  0.00    +0.000 A 
ATOM     14  C   UNL     1       2.851  -7.226  -3.853  0.00  0.00    +0.000 A 
ATOM     15  C   UNL     1       4.147  -7.331  -4.357  0.00  0.00    +0.000 A 
ATOM     16  C   UNL     1       4.892  -6.180  -4.607  0.00  0.00    +0.000 A 
ATOM     17  C   UNL     1       4.339  -4.923  -4.358  0.00  0.00    +0.000 A 
ENDBRANCH  11  12
ENDBRANCH  10  11
ENDBRANCH   7  10
TORSDOF 3
