REMARK  Name = *****
REMARK  3 active torsions:
REMARK  status: ('A' for Active; 'I' for Inactive)
REMARK    1  A    between atoms: C_6  and  C_7
REMARK    2  A    between atoms: C_7  and  C_8
REMARK    3  A    between atoms: C_8  and  C_9
REMARK                            x       y       z     vdW  Elec       q    Type
REMARK                         _______ _______ _______ _____ _____    ______ ____
ROOT
ATOM      1  C   UNL     1      -3.427   0.027  -0.004  0.00  0.00    +0.000 C 
ENDROOT
BRANCH   1   7
ATOM      2  C   UNL     1      -1.182   0.074  -1.166  0.00  0.00    +0.000 A 
ATOM      3  C   UNL     1       0.213   0.111  -1.132  0.00  0.00    +0.000 A 
ATOM      4  C   UNL     1       0.869   0.123   0.092  0.00  0.00    +0.000 A 
ATOM      5  C   UNL     1       0.158   0.102   1.286  0.00  0.00    +0.000 A 
ATOM      6  C   UNL     1      -1.236   0.066   1.255  0.00  0.00    +0.000 A 
ATOM      7  C   UNL     1      -1.918   0.046   0.028  0.00  0.00    +0.000 A 
ATOM      8  F   UNL     1       2.208   0.159   0.123  0.00  0.00    +0.000 F 
ENDBRANCH   1   7
BRANCH   1   9
ATOM      9  C   UNL     1      -4.010   1.443   0.001  0.00  0.00    +0.000 C 
BRANCH   9  10
ATOM     10  C   UNL     1      -5.519   1.423   0.037  0.00  0.00    +0.000 A 
ATOM     11  C   UNL     1      -6.197   1.400   1.265  0.00  0.00    +0.000 A 
ATOM     12  C   UNL     1      -7.592   1.362   1.302  0.00  0.00    +0.000 A 
ATOM     13  C   UNL     1      -8.315   1.343   0.111  0.00  0.00    +0.000 A 
ATOM     14  C   UNL     1      -7.655   1.361  -1.115  0.00  0.00    +0.000 A 
ATOM     15  C   UNL     1      -6.260   1.398  -1.153  0.00  0.00    +0.000 A 
ATOM     16 CL   UNL     1     -10.035   1.295   0.157  0.00  0.00    +0.000 Cl
ENDBRANCH   9  10
ENDBRANCH   1   9
TORSDOF 3
