REMARK  Name = *****
REMARK  3 active torsions:
REMARK  status: ('A' for Active; 'I' for Inactive)
REMARK    1  A    between atoms: C_1  and  C_16
REMARK    2  A    between atoms: C_2  and  C_10
REMARK    3  A    between atoms: N_3  and  C_4
REMARK                            x       y       z     vdW  Elec       q    Type
REMARK                         _______ _______ _______ _____ _____    ______ ____
ROOT
ATOM      1  C   UNL     1       2.289  -0.269  -0.281  0.00  0.00    +0.000 C 
ATOM      2  C   UNL     1       3.417   0.256  -1.168  0.00  0.00    +0.000 C 
ATOM      3  N   UNL     1       3.444  -1.094  -0.591  0.00  0.00    +0.000 N 
ATOM      4  C   UNL     1       2.089   0.179   1.125  0.00  0.00    +0.000 C 
ENDROOT
BRANCH   3   5
ATOM      5  C   UNL     1       3.291  -2.214  -1.443  0.00  0.00    +0.000 A 
ATOM      6  C   UNL     1       4.127  -2.389  -2.554  0.00  0.00    +0.000 A 
ATOM      7  C   UNL     1       3.998  -3.511  -3.377  0.00  0.00    +0.000 A 
ATOM      8  C   UNL     1       3.042  -4.482  -3.086  0.00  0.00    +0.000 A 
ATOM      9  C   UNL     1       2.224  -4.337  -1.967  0.00  0.00    +0.000 A 
ATOM     10  C   UNL     1       2.355  -3.215  -1.147  0.00  0.00    +0.000 A 
ENDBRANCH   3   5
BRANCH   2  11
ATOM     11  C   UNL     1       4.403   1.276  -0.660  0.00  0.00    +0.000 A 
ATOM     12  C   UNL     1       5.702   0.925  -0.255  0.00  0.00    +0.000 A 
ATOM     13  C   UNL     1       6.611   1.884   0.201  0.00  0.00    +0.000 A 
ATOM     14  C   UNL     1       6.238   3.224   0.255  0.00  0.00    +0.000 A 
ATOM     15  C   UNL     1       4.961   3.602  -0.146  0.00  0.00    +0.000 A 
ATOM     16  C   UNL     1       4.057   2.637  -0.599  0.00  0.00    +0.000 A 
ENDBRANCH   2  11
TORSDOF 2
