REMARK  Name = *****
REMARK  3 active torsions:
REMARK  status: ('A' for Active; 'I' for Inactive)
REMARK    1  A    between atoms: C_4  and  S_7
REMARK    2  A    between atoms: S_7  and  S_8
REMARK    3  A    between atoms: S_8  and  C_10
REMARK                            x       y       z     vdW  Elec       q    Type
REMARK                         _______ _______ _______ _____ _____    ______ ____
ROOT
ATOM      1  S   UNL     1      -4.104  -1.466  -0.103  0.00  0.00    +0.000 S 
ATOM      2  O   UNL     1      -4.118  -2.189   1.213  0.00  0.00    +0.000 OA
ENDROOT
BRANCH   1   3
ATOM      3  C   UNL     1      -5.819  -0.964  -0.403  0.00  0.00    +0.000 A 
ATOM      4  C   UNL     1      -6.144  -0.280  -1.582  0.00  0.00    +0.000 A 
ATOM      5  C   UNL     1      -7.465   0.103  -1.832  0.00  0.00    +0.000 A 
ATOM      6  C   UNL     1      -8.462  -0.201  -0.906  0.00  0.00    +0.000 A 
ATOM      7  C   UNL     1      -8.151  -0.886   0.267  0.00  0.00    +0.000 A 
ATOM      8  C   UNL     1      -6.831  -1.269   0.517  0.00  0.00    +0.000 A 
ATOM      9 CL   UNL     1     -10.087   0.271  -1.215  0.00  0.00    +0.000 Cl
ENDBRANCH   1   3
BRANCH   1  10
ATOM     10  S   UNL     1      -3.310   0.305   0.490  0.00  0.00    +0.000 S 
BRANCH  10  14
ATOM     11  C   UNL     1       1.139  -0.713   0.906  0.00  0.00    +0.000 A 
ATOM     12  C   UNL     1       0.699   0.101  -0.136  0.00  0.00    +0.000 A 
ATOM     13  C   UNL     1      -0.659   0.405  -0.260  0.00  0.00    +0.000 A 
ATOM     14  C   UNL     1      -1.584  -0.110   0.654  0.00  0.00    +0.000 A 
ATOM     15  C   UNL     1      -1.133  -0.917   1.703  0.00  0.00    +0.000 A 
ATOM     16  C   UNL     1       0.224  -1.222   1.826  0.00  0.00    +0.000 A 
ENDBRANCH  10  14
ENDBRANCH   1  10
TORSDOF 3
