REMARK  Name = *****
REMARK  3 active torsions:
REMARK  status: ('A' for Active; 'I' for Inactive)
REMARK    1  A    between atoms: C_8  and  C_9
REMARK    2  A    between atoms: C_9  and  S_11
REMARK    3  A    between atoms: S_11  and  C_12
REMARK                            x       y       z     vdW  Elec       q    Type
REMARK                         _______ _______ _______ _____ _____    ______ ____
ROOT
ATOM      1  C   UNL     1       0.677  -1.234  -0.676  0.00  0.00    +0.000 C 
ATOM      2  C   UNL     1      -0.864  -1.124  -0.744  0.00  0.00    +0.000 C 
ATOM      3  C   UNL     1      -1.340   0.124   0.039  0.00  0.00    +0.000 C 
ATOM      4  C   UNL     1      -0.781   0.005   1.443  0.00  0.00    +0.000 C 
ATOM      5  C   UNL     1       0.558  -0.084   1.500  0.00  0.00    +0.000 C 
ATOM      6  C   UNL     1       1.249  -0.064   0.153  0.00  0.00    +0.000 C 
ATOM      7  C   UNL     1       0.853   1.254  -0.552  0.00  0.00    +0.000 C 
ATOM      8  C   UNL     1      -0.701   1.373  -0.631  0.00  0.00    +0.000 C 
ENDROOT
BRANCH   8   9
ATOM      9  C   UNL     1      -1.216   2.672  -0.014  0.00  0.00    +0.000 C 
ATOM     10  O   UNL     1      -0.534   3.458   0.634  0.00  0.00    +0.000 OA
BRANCH   9  11
ATOM     11  S   UNL     1      -2.897   3.059  -0.413  0.00  0.00    +0.000 S 
BRANCH  11  12
ATOM     12  C   UNL     1      -3.578   2.926   1.202  0.00  0.00    +0.000 A 
ATOM     13  C   UNL     1      -3.174   3.594   2.340  0.00  0.00    +0.000 A 
ATOM     14  C   UNL     1      -3.959   3.250   3.480  0.00  0.00    +0.000 A 
ATOM     15  C   UNL     1      -4.946   2.342   3.169  0.00  0.00    +0.000 A 
ATOM     16  S   UNL     1      -4.924   1.913   1.514  0.00  0.00    +0.000 S 
ENDBRANCH  11  12
ENDBRANCH   9  11
ENDBRANCH   8   9
TORSDOF 3
