REMARK  Name = *****
REMARK  5 active torsions:
REMARK  status: ('A' for Active; 'I' for Inactive)
REMARK    1  A    between atoms: C_1  and  C_2
REMARK    2  A    between atoms: C_3  and  C_17
REMARK    3  A    between atoms: C_4  and  O_8
REMARK    4  A    between atoms: O_8  and  C_9
REMARK    5  A    between atoms: C_9  and  C_11
REMARK                            x       y       z     vdW  Elec       q    Type
REMARK                         _______ _______ _______ _____ _____    ______ ____
ROOT
ATOM      1  O   UNL     1      -0.297  -3.447   1.567  0.00  0.00    +0.000 OA
ENDROOT
BRANCH   1   5
ATOM      2  C   UNL     1       1.709   1.074   1.037  0.00  0.00    +0.000 C 
ATOM      3  C   UNL     1       0.762   0.099   1.682  0.00  0.00    +0.000 A 
ATOM      4  C   UNL     1       0.715  -1.257   1.291  0.00  0.00    +0.000 A 
ATOM      5  C   UNL     1      -0.225  -2.094   1.917  0.00  0.00    +0.000 A 
ATOM      6  C   UNL     1      -1.048  -1.642   2.949  0.00  0.00    +0.000 A 
ATOM      7  C   UNL     1      -0.973  -0.313   3.347  0.00  0.00    +0.000 A 
ATOM      8  C   UNL     1      -0.077   0.551   2.716  0.00  0.00    +0.000 A 
ATOM      9  C   UNL     1       1.593  -1.782   0.188  0.00  0.00    +0.000 C 
ENDBRANCH   1   5
BRANCH   1  10
ATOM     10  C   UNL     1      -1.313  -3.736   0.659  0.00  0.00    +0.000 C 
ATOM     11  O   UNL     1      -2.098  -2.938   0.165  0.00  0.00    +0.000 OA
BRANCH  10  12
ATOM     12  C   UNL     1      -1.287  -5.229   0.367  0.00  0.00    +0.000 C 
ATOM     13  C   UNL     1      -2.110  -5.557  -0.886  0.00  0.00    +0.000 C 
ATOM     14  C   UNL     1      -2.149  -7.059  -1.157  0.00  0.00    +0.000 C 
ATOM     15  C   UNL     1      -2.658  -7.833   0.055  0.00  0.00    +0.000 C 
ATOM     16  C   UNL     1      -1.848  -7.512   1.307  0.00  0.00    +0.000 C 
ATOM     17  C   UNL     1      -1.800  -6.011   1.581  0.00  0.00    +0.000 C 
ENDBRANCH  10  12
ENDBRANCH   1  10
TORSDOF 3
