REMARK  Name = *****
REMARK  5 active torsions:
REMARK  status: ('A' for Active; 'I' for Inactive)
REMARK    1  A    between atoms: C_1  and  C_2
REMARK    2  A    between atoms: C_5  and  S_8
REMARK    3  A    between atoms: S_8  and  O_10
REMARK    4  A    between atoms: O_10  and  C_11
REMARK    5  A    between atoms: C_11  and  C_13
REMARK                            x       y       z     vdW  Elec       q    Type
REMARK                         _______ _______ _______ _____ _____    ______ ____
ROOT
ATOM      1  S   UNL     1      -3.730   0.218  -1.000  0.00  0.00    +0.000 S 
ATOM      2  O   UNL     1      -4.005  -1.250  -0.839  0.00  0.00    +0.000 OA
ENDROOT
BRANCH   1   7
ATOM      3  C   UNL     1       1.991   1.120   0.989  0.00  0.00    +0.000 C 
ATOM      4  C   UNL     1       0.578   0.903   0.533  0.00  0.00    +0.000 A 
ATOM      5  C   UNL     1      -0.014  -0.361   0.640  0.00  0.00    +0.000 A 
ATOM      6  C   UNL     1      -1.318  -0.574   0.186  0.00  0.00    +0.000 A 
ATOM      7  C   UNL     1      -2.044   0.473  -0.389  0.00  0.00    +0.000 A 
ATOM      8  C   UNL     1      -1.447   1.732  -0.517  0.00  0.00    +0.000 A 
ATOM      9  C   UNL     1      -0.144   1.945  -0.061  0.00  0.00    +0.000 A 
ENDBRANCH   1   7
BRANCH   1  10
ATOM     10  O   UNL     1      -4.385   0.970   0.271  0.00  0.00    +0.000 OA
BRANCH  10  11
ATOM     11  C   UNL     1      -5.475   1.757  -0.057  0.00  0.00    +0.000 C 
ATOM     12  C   UNL     1      -6.711   1.243  -0.147  0.00  0.00    +0.000 C 
BRANCH  11  13
ATOM     13  C   UNL     1      -5.200   3.202  -0.171  0.00  0.00    +0.000 A 
ATOM     14  C   UNL     1      -4.347   3.831   0.747  0.00  0.00    +0.000 A 
ATOM     15  C   UNL     1      -4.058   5.193   0.635  0.00  0.00    +0.000 A 
ATOM     16  C   UNL     1      -4.616   5.941  -0.399  0.00  0.00    +0.000 A 
ATOM     17  C   UNL     1      -5.461   5.329  -1.322  0.00  0.00    +0.000 A 
ATOM     18  C   UNL     1      -5.751   3.967  -1.210  0.00  0.00    +0.000 A 
ENDBRANCH  11  13
ENDBRANCH  10  11
ENDBRANCH   1  10
TORSDOF 4
