REMARK  Name = *****
REMARK  7 active torsions:
REMARK  status: ('A' for Active; 'I' for Inactive)
REMARK    1  A    between atoms: C_1  and  C_2
REMARK    2  A    between atoms: C_4  and  O_8
REMARK    3  A    between atoms: O_8  and  P_9
REMARK    4  A    between atoms: P_9  and  N_10
REMARK    5  A    between atoms: P_9  and  O_11
REMARK    6  A    between atoms: O_11  and  C_12
REMARK    7  A    between atoms: C_16  and  C_18
REMARK                            x       y       z     vdW  Elec       q    Type
REMARK                         _______ _______ _______ _____ _____    ______ ____
ROOT
ATOM      1  P   UNL     1      -0.525   4.030  -0.095  0.00  0.00    +0.000 P 
ATOM      2  H   UNL     1       0.473   4.236   0.836  0.00  0.00    +0.000 HD
ENDROOT
BRANCH   1   3
ATOM      3  N   UNL     1       0.156   3.819  -1.645  0.00  0.00    +0.000 NA
ATOM      4  H   UNL     1      -0.588   3.667  -2.326  0.00  0.00    +0.000 HD
ENDBRANCH   1   3
BRANCH   1   5
ATOM      5  O   UNL     1      -1.478   2.756   0.184  0.00  0.00    +0.000 OA
BRANCH   5   9
ATOM      6  C   UNL     1       2.187  -0.485   0.898  0.00  0.00    +0.000 C 
ATOM      7  C   UNL     1       0.748  -0.081   1.013  0.00  0.00    +0.000 A 
ATOM      8  C   UNL     1       0.334   1.176   0.546  0.00  0.00    +0.000 A 
ATOM      9  C   UNL     1      -1.008   1.544   0.608  0.00  0.00    +0.000 A 
ATOM     10  C   UNL     1      -1.951   0.652   1.115  0.00  0.00    +0.000 A 
ATOM     11  C   UNL     1      -1.554  -0.605   1.571  0.00  0.00    +0.000 A 
ATOM     12  C   UNL     1      -0.208  -0.972   1.517  0.00  0.00    +0.000 A 
ENDBRANCH   5   9
ENDBRANCH   1   5
BRANCH   1  13
ATOM     13  O   UNL     1      -1.617   5.215  -0.213  0.00  0.00    +0.000 OA
BRANCH  13  14
ATOM     14  C   UNL     1      -1.288   6.543  -0.203  0.00  0.00    +0.000 A 
ATOM     15  C   UNL     1       0.006   7.015  -0.390  0.00  0.00    +0.000 A 
ATOM     16  C   UNL     1       0.257   8.388  -0.367  0.00  0.00    +0.000 A 
ATOM     17  C   UNL     1      -0.789   9.289  -0.153  0.00  0.00    +0.000 A 
ATOM     18  C   UNL     1      -2.095   8.822   0.044  0.00  0.00    +0.000 A 
ATOM     19  C   UNL     1      -2.336   7.442   0.001  0.00  0.00    +0.000 A 
ATOM     20  C   UNL     1      -3.230   9.782   0.228  0.00  0.00    +0.000 C 
ENDBRANCH  13  14
ENDBRANCH   1  13
TORSDOF 5
