REMARK  Name = *****
REMARK  4 active torsions:
REMARK  status: ('A' for Active; 'I' for Inactive)
REMARK    1  A    between atoms: C_1  and  C_2
REMARK    2  A    between atoms: C_5  and  C_8
REMARK    3  A    between atoms: N_9  and  C_10
REMARK    4  A    between atoms: C_13  and  C_16
REMARK                            x       y       z     vdW  Elec       q    Type
REMARK                         _______ _______ _______ _____ _____    ______ ____
ROOT
ATOM      1  C   UNL     1      -5.377   1.149   0.151  0.00  0.00    +0.000 A 
ATOM      2  C   UNL     1      -6.151   0.459   1.087  0.00  0.00    +0.000 A 
ATOM      3  C   UNL     1      -7.542   0.407   0.957  0.00  0.00    +0.000 A 
ATOM      4  C   UNL     1      -8.181   1.052  -0.114  0.00  0.00    +0.000 A 
ATOM      5  C   UNL     1      -7.400   1.765  -1.037  0.00  0.00    +0.000 A 
ATOM      6  C   UNL     1      -6.010   1.812  -0.902  0.00  0.00    +0.000 A 
ENDROOT
BRANCH   4   7
ATOM      7  C   UNL     1      -9.684   1.017  -0.240  0.00  0.00    +0.000 C 
ATOM      8  F   UNL     1     -10.226  -0.162   0.179  0.00  0.00    +0.000 F 
ATOM      9  F   UNL     1     -10.290   1.989   0.496  0.00  0.00    +0.000 F 
ATOM     10  F   UNL     1     -10.121   1.190  -1.519  0.00  0.00    +0.000 F 
ENDBRANCH   4   7
BRANCH   1  12
ATOM     11  C   UNL     1      -3.316   0.229  -0.216  0.00  0.00    +0.000 C 
ATOM     12  N   UNL     1      -3.985   1.217   0.289  0.00  0.00    +0.000 NA
BRANCH  11  17
ATOM     13  C   UNL     1       2.445  -0.102   0.047  0.00  0.00    +0.000 C 
ATOM     14  C   UNL     1       0.951   0.002  -0.045  0.00  0.00    +0.000 A 
ATOM     15  C   UNL     1       0.284   1.099   0.517  0.00  0.00    +0.000 A 
ATOM     16  C   UNL     1      -1.109   1.183   0.462  0.00  0.00    +0.000 A 
ATOM     17  C   UNL     1      -1.844   0.164  -0.146  0.00  0.00    +0.000 A 
ATOM     18  C   UNL     1      -1.191  -0.942  -0.696  0.00  0.00    +0.000 A 
ATOM     19  C   UNL     1       0.203  -1.023  -0.639  0.00  0.00    +0.000 A 
ENDBRANCH  11  17
ENDBRANCH   1  12
TORSDOF 3
