REMARK  Name = *****
REMARK  2 active torsions:
REMARK  status: ('A' for Active; 'I' for Inactive)
REMARK    1  A    between atoms: C_6  and  C_7
REMARK    2  A    between atoms: C_8  and  C_9
REMARK                            x       y       z     vdW  Elec       q    Type
REMARK                         _______ _______ _______ _____ _____    ______ ____
ROOT
ATOM      1  C   UNL     1      -3.420   0.051  -0.050  0.00  0.00    +0.000 C 
ATOM      2  C   UNL     1      -4.186   1.146   0.084  0.00  0.00    +0.000 C 
ENDROOT
BRANCH   1   8
ATOM      3  C   UNL     1      -1.203   1.088  -0.630  0.00  0.00    +0.000 A 
ATOM      4  C   UNL     1       0.193   1.057  -0.598  0.00  0.00    +0.000 A 
ATOM      5  C   UNL     1       0.842   0.007   0.039  0.00  0.00    +0.000 A 
ATOM      6  C   UNL     1       0.122  -1.017   0.640  0.00  0.00    +0.000 A 
ATOM      7  C   UNL     1      -1.275  -0.988   0.608  0.00  0.00    +0.000 A 
ATOM      8  C   UNL     1      -1.951   0.072  -0.014  0.00  0.00    +0.000 A 
ATOM      9  F   UNL     1       2.181  -0.022   0.067  0.00  0.00    +0.000 F 
ENDBRANCH   1   8
BRANCH   2  10
ATOM     10  C   UNL     1      -5.656   1.127   0.052  0.00  0.00    +0.000 A 
ATOM     11  C   UNL     1      -6.404   0.102   0.650  0.00  0.00    +0.000 A 
ATOM     12  C   UNL     1      -7.801   0.137   0.625  0.00  0.00    +0.000 A 
ATOM     13  C   UNL     1      -8.449   1.201   0.011  0.00  0.00    +0.000 A 
ATOM     14  C   UNL     1      -7.728   2.235  -0.573  0.00  0.00    +0.000 A 
ATOM     15  C   UNL     1      -6.332   2.200  -0.548  0.00  0.00    +0.000 A 
ATOM     16  F   UNL     1      -9.788   1.235  -0.011  0.00  0.00    +0.000 F 
ENDBRANCH   2  10
TORSDOF 2
