REMARK  Name = *****
REMARK  2 active torsions:
REMARK  status: ('A' for Active; 'I' for Inactive)
REMARK    1  A    between atoms: C_4  and  C_7
REMARK    2  A    between atoms: C_8  and  C_9
REMARK                            x       y       z     vdW  Elec       q    Type
REMARK                         _______ _______ _______ _____ _____    ______ ____
ROOT
ATOM      1  C   UNL     1       2.924   0.190  -0.318  0.00  0.00    +0.000 C 
ATOM      2  C   UNL     1       4.115   0.267  -0.455  0.00  0.00    +0.000 C 
ENDROOT
BRANCH   2   3
ATOM      3  C   UNL     1       5.532   0.361  -0.622  0.00  0.00    +0.000 A 
ATOM      4  C   UNL     1       6.144   1.614  -0.709  0.00  0.00    +0.000 A 
ATOM      5  C   UNL     1       7.526   1.695  -0.873  0.00  0.00    +0.000 A 
ATOM      6  C   UNL     1       8.301   0.538  -0.952  0.00  0.00    +0.000 A 
ATOM      7  C   UNL     1       7.689  -0.713  -0.865  0.00  0.00    +0.000 A 
ATOM      8  C   UNL     1       6.305  -0.801  -0.700  0.00  0.00    +0.000 A 
ATOM      9 CL   UNL     1       8.283   3.237  -0.981  0.00  0.00    +0.000 Cl
ENDBRANCH   2   3
BRANCH   1  13
ATOM     10  C   UNL     1      -1.265  -0.075   0.151  0.00  0.00    +0.000 A 
ATOM     11  C   UNL     1      -0.650   1.174   0.072  0.00  0.00    +0.000 A 
ATOM     12  C   UNL     1       0.735   1.263  -0.082  0.00  0.00    +0.000 A 
ATOM     13  C   UNL     1       1.506   0.100  -0.158  0.00  0.00    +0.000 A 
ATOM     14  C   UNL     1       0.888  -1.150  -0.078  0.00  0.00    +0.000 A 
ATOM     15  C   UNL     1      -0.497  -1.237   0.076  0.00  0.00    +0.000 A 
ENDBRANCH   1  13
TORSDOF 2
