REMARK  Name = *****
REMARK  3 active torsions:
REMARK  status: ('A' for Active; 'I' for Inactive)
REMARK    1  A    between atoms: C_5  and  C_7
REMARK    2  A    between atoms: C_7  and  C_15
REMARK    3  A    between atoms: C_8  and  C_9
REMARK                            x       y       z     vdW  Elec       q    Type
REMARK                         _______ _______ _______ _____ _____    ______ ____
ROOT
ATOM      1  C   UNL     1      -0.562  -2.494  -0.046  0.00  0.00    +0.000 C 
ATOM      2  C   UNL     1       0.112  -3.660  -0.055  0.00  0.00    +0.000 C 
ENDROOT
BRANCH   1   7
ATOM      3  C   UNL     1       1.300   0.456   1.381  0.00  0.00    +0.000 A 
ATOM      4  C   UNL     1       1.693   1.138   0.231  0.00  0.00    +0.000 A 
ATOM      5  C   UNL     1       1.353   0.639  -1.026  0.00  0.00    +0.000 A 
ATOM      6  C   UNL     1       0.618  -0.545  -1.136  0.00  0.00    +0.000 A 
ATOM      7  C   UNL     1       0.213  -1.240   0.017  0.00  0.00    +0.000 A 
ATOM      8  C   UNL     1       0.565  -0.727   1.277  0.00  0.00    +0.000 A 
ATOM      9 CL   UNL     1       0.239  -1.116  -2.724  0.00  0.00    +0.000 Cl
ENDBRANCH   1   7
BRANCH   2  10
ATOM     10  C   UNL     1      -0.516  -4.981  -0.134  0.00  0.00    +0.000 A 
ATOM     11  C   UNL     1      -0.843  -5.532  -1.373  0.00  0.00    +0.000 A 
ATOM     12  C   UNL     1      -1.435  -6.784  -1.395  0.00  0.00    +0.000 A 
ATOM     13  N   UNL     1      -1.711  -7.503  -0.287  0.00  0.00    +0.000 NA
ATOM     14  C   UNL     1      -1.393  -6.942   0.899  0.00  0.00    +0.000 A 
ATOM     15  C   UNL     1      -0.799  -5.697   1.027  0.00  0.00    +0.000 A 
ENDBRANCH   2  10
BRANCH   1  16
ATOM     16  C   UNL     1      -1.988  -2.413  -0.096  0.00  0.00    +0.000 C 
ATOM     17  N   UNL     1      -3.145  -2.332  -0.122  0.00  0.00    +0.000 NA
ENDBRANCH   1  16
TORSDOF 3
