REMARK  Name = *****
REMARK  5 active torsions:
REMARK  status: ('A' for Active; 'I' for Inactive)
REMARK    1  A    between atoms: C_1  and  C_2
REMARK    2  A    between atoms: C_3  and  C_16
REMARK    3  A    between atoms: C_4  and  O_8
REMARK    4  A    between atoms: O_8  and  C_9
REMARK    5  A    between atoms: C_9  and  C_11
REMARK                            x       y       z     vdW  Elec       q    Type
REMARK                         _______ _______ _______ _____ _____    ______ ____
ROOT
ATOM      1  C   UNL     1       1.779   1.345   0.330  0.00  0.00    +0.000 C 
ATOM      2  C   UNL     1       0.494   0.597   0.093  0.00  0.00    +0.000 A 
ATOM      3  C   UNL     1       0.449  -0.814   0.071  0.00  0.00    +0.000 A 
ATOM      4  C   UNL     1      -0.788  -1.437  -0.171  0.00  0.00    +0.000 A 
ATOM      5  C   UNL     1      -1.954  -0.700  -0.386  0.00  0.00    +0.000 A 
ATOM      6  C   UNL     1      -1.906   0.688  -0.330  0.00  0.00    +0.000 A 
ATOM      7  C   UNL     1      -0.691   1.331  -0.091  0.00  0.00    +0.000 A 
ATOM      8  C   UNL     1       1.698  -1.637   0.235  0.00  0.00    +0.000 C 
ENDROOT
BRANCH   4   9
ATOM      9  O   UNL     1      -0.829  -2.836  -0.305  0.00  0.00    +0.000 OA
BRANCH   9  10
ATOM     10  C   UNL     1      -1.610  -3.515   0.631  0.00  0.00    +0.000 C 
ATOM     11  O   UNL     1      -2.232  -3.014   1.557  0.00  0.00    +0.000 OA
BRANCH  10  12
ATOM     12  C   UNL     1      -1.598  -4.993   0.280  0.00  0.00    +0.000 C 
ATOM     13  C   UNL     1      -2.514  -5.832   1.179  0.00  0.00    +0.000 C 
ATOM     14  C   UNL     1      -1.807  -7.173   1.288  0.00  0.00    +0.000 C 
ATOM     15  C   UNL     1      -0.348  -6.773   1.403  0.00  0.00    +0.000 C 
ATOM     16  C   UNL     1      -0.200  -5.615   0.423  0.00  0.00    +0.000 C 
ENDBRANCH  10  12
ENDBRANCH   9  10
ENDBRANCH   4   9
TORSDOF 3
