REMARK  Name = *****
REMARK  6 active torsions:
REMARK  status: ('A' for Active; 'I' for Inactive)
REMARK    1  A    between atoms: C_1  and  C_2
REMARK    2  A    between atoms: C_4  and  C_9
REMARK    3  A    between atoms: C_5  and  C_8
REMARK    4  A    between atoms: C_9  and  C_10
REMARK    5  A    between atoms: C_10  and  C_11
REMARK    6  A    between atoms: C_11  and  C_13
REMARK                            x       y       z     vdW  Elec       q    Type
REMARK                         _______ _______ _______ _____ _____    ______ ____
ROOT
ATOM      1  C   UNL     1      -0.423   3.653  -0.080  0.00  0.00    +0.000 C 
ENDROOT
BRANCH   1   2
ATOM      2  C   UNL     1      -1.129   4.994  -0.154  0.00  0.00    +0.000 C 
ATOM      3  O   UNL     1      -2.357   5.082  -0.176  0.00  0.00    +0.000 OA
BRANCH   2   4
ATOM      4  C   UNL     1      -0.323   6.248  -0.204  0.00  0.00    +0.000 A 
ATOM      5  C   UNL     1      -1.000   7.465  -0.386  0.00  0.00    +0.000 A 
ATOM      6  C   UNL     1      -0.296   8.672  -0.443  0.00  0.00    +0.000 A 
ATOM      7  C   UNL     1       1.091   8.676  -0.317  0.00  0.00    +0.000 A 
ATOM      8  C   UNL     1       1.773   7.475  -0.133  0.00  0.00    +0.000 A 
ATOM      9  C   UNL     1       1.067   6.272  -0.076  0.00  0.00    +0.000 A 
ATOM     10  F   UNL     1       1.776   5.150   0.110  0.00  0.00    +0.000 F 
ENDBRANCH   2   4
ENDBRANCH   1   2
BRANCH   1  11
ATOM     11  C   UNL     1      -1.414   2.489  -0.159  0.00  0.00    +0.000 C 
BRANCH  11  15
ATOM     12  C   UNL     1       0.536  -1.241   2.584  0.00  0.00    +0.000 C 
ATOM     13  C   UNL     1       0.266  -0.635   1.239  0.00  0.00    +0.000 A 
ATOM     14  C   UNL     1      -0.410   0.585   1.131  0.00  0.00    +0.000 A 
ATOM     15  C   UNL     1      -0.704   1.152  -0.123  0.00  0.00    +0.000 A 
ATOM     16  C   UNL     1      -0.307   0.476  -1.294  0.00  0.00    +0.000 A 
ATOM     17  C   UNL     1       0.351  -0.758  -1.178  0.00  0.00    +0.000 A 
ATOM     18  C   UNL     1       0.632  -1.309   0.073  0.00  0.00    +0.000 A 
ATOM     19  C   UNL     1      -0.599   1.018  -2.667  0.00  0.00    +0.000 C 
ENDBRANCH  11  15
ENDBRANCH   1  11
TORSDOF 4
