REMARK  Name = *****
REMARK  3 active torsions:
REMARK  status: ('A' for Active; 'I' for Inactive)
REMARK    1  A    between atoms: C_4  and  C_6
REMARK    2  A    between atoms: C_6  and  O_8
REMARK    3  A    between atoms: O_8  and  C_9
REMARK                            x       y       z     vdW  Elec       q    Type
REMARK                         _______ _______ _______ _____ _____    ______ ____
ROOT
ATOM      1  O   UNL     1      -1.726   2.676   0.941  0.00  0.00    +0.000 OA
ENDROOT
BRANCH   1   2
ATOM      2  C   UNL     1      -2.280   3.441   1.970  0.00  0.00    +0.000 A 
ATOM      3  C   UNL     1      -3.665   3.613   2.064  0.00  0.00    +0.000 A 
ATOM      4  C   UNL     1      -4.190   4.410   3.082  0.00  0.00    +0.000 A 
ATOM      5  C   UNL     1      -3.331   5.037   3.990  0.00  0.00    +0.000 A 
ATOM      6  C   UNL     1      -1.949   4.870   3.872  0.00  0.00    +0.000 A 
ATOM      7  C   UNL     1      -1.413   4.079   2.859  0.00  0.00    +0.000 A 
ATOM      8 CL   UNL     1      -0.899   5.657   4.985  0.00  0.00    +0.000 Cl
ATOM      9 CL   UNL     1      -4.742   2.873   0.939  0.00  0.00    +0.000 Cl
ENDBRANCH   1   2
BRANCH   1  10
ATOM     10  C   UNL     1      -1.586   1.334   1.294  0.00  0.00    +0.000 C 
ATOM     11  O   UNL     1      -1.852   0.849   2.386  0.00  0.00    +0.000 OA
BRANCH  10  15
ATOM     12  C   UNL     1       1.231  -0.252   0.227  0.00  0.00    +0.000 C 
ATOM     13  C   UNL     1       0.334  -1.419  -0.137  0.00  0.00    +0.000 C 
ATOM     14  C   UNL     1      -1.051  -0.950   0.287  0.00  0.00    +0.000 C 
ATOM     15  C   UNL     1      -1.048   0.575   0.092  0.00  0.00    +0.000 C 
ATOM     16  C   UNL     1       0.410   0.959  -0.194  0.00  0.00    +0.000 C 
ENDBRANCH  10  15
ENDBRANCH   1  10
TORSDOF 3
