REMARK  Name = *****
REMARK  3 active torsions:
REMARK  status: ('A' for Active; 'I' for Inactive)
REMARK    1  A    between atoms: C_5  and  S_7
REMARK    2  A    between atoms: S_7  and  S_8
REMARK    3  A    between atoms: S_8  and  C_9
REMARK                            x       y       z     vdW  Elec       q    Type
REMARK                         _______ _______ _______ _____ _____    ______ ____
ROOT
ATOM      1  S   UNL     1      -2.166  -2.616   2.153  0.00  0.00    +0.000 S 
ENDROOT
BRANCH   1   6
ATOM      2  C   UNL     1      -1.544   0.862   0.117  0.00  0.00    +0.000 A 
ATOM      3  C   UNL     1      -0.960   0.416  -1.067  0.00  0.00    +0.000 A 
ATOM      4  C   UNL     1      -0.761  -0.947  -1.261  0.00  0.00    +0.000 A 
ATOM      5  C   UNL     1      -1.134  -1.875  -0.295  0.00  0.00    +0.000 A 
ATOM      6  C   UNL     1      -1.723  -1.435   0.892  0.00  0.00    +0.000 A 
ATOM      7  C   UNL     1      -1.921  -0.062   1.096  0.00  0.00    +0.000 A 
ATOM      8  F   UNL     1      -0.192  -1.372  -2.397  0.00  0.00    +0.000 F 
ENDBRANCH   1   6
BRANCH   1   9
ATOM      9  S   UNL     1      -4.221  -2.500   2.160  0.00  0.00    +0.000 S 
BRANCH   9  10
ATOM     10  C   UNL     1      -4.671  -3.669   0.891  0.00  0.00    +0.000 A 
ATOM     11  C   UNL     1      -4.473  -5.044   1.081  0.00  0.00    +0.000 A 
ATOM     12  C   UNL     1      -4.856  -5.959   0.096  0.00  0.00    +0.000 A 
ATOM     13  C   UNL     1      -5.447  -5.502  -1.080  0.00  0.00    +0.000 A 
ATOM     14  C   UNL     1      -5.648  -4.138  -1.260  0.00  0.00    +0.000 A 
ATOM     15  C   UNL     1      -5.268  -3.218  -0.288  0.00  0.00    +0.000 A 
ATOM     16  F   UNL     1      -6.223  -3.702  -2.388  0.00  0.00    +0.000 F 
ENDBRANCH   9  10
ENDBRANCH   1   9
TORSDOF 3
