REMARK  Name = *****
REMARK  2 active torsions:
REMARK  status: ('A' for Active; 'I' for Inactive)
REMARK    1  A    between atoms: C_4  and  C_7
REMARK    2  A    between atoms: N_8  and  C_9
REMARK                            x       y       z     vdW  Elec       q    Type
REMARK                         _______ _______ _______ _____ _____    ______ ____
ROOT
ATOM      1  C   UNL     1       2.734  -1.050  -0.368  0.00  0.00    +0.000 C 
ATOM      2  N   UNL     1       3.484  -0.373  -1.161  0.00  0.00    +0.000 NA
ATOM      3 CL   UNL     1       3.381  -2.574   0.124  0.00  0.00    +0.000 Cl
ENDROOT
BRANCH   1   7
ATOM      4  C   UNL     1      -0.943  -0.996   2.000  0.00  0.00    +0.000 C 
ATOM      5  C   UNL     1       0.134   0.048   2.287  0.00  0.00    +0.000 C 
ATOM      6  C   UNL     1       1.486  -0.358   1.703  0.00  0.00    +0.000 C 
ATOM      7  C   UNL     1       1.377  -0.661   0.203  0.00  0.00    +0.000 C 
ATOM      8  C   UNL     1       0.303  -1.723  -0.073  0.00  0.00    +0.000 C 
ATOM      9  C   UNL     1      -1.047  -1.306   0.508  0.00  0.00    +0.000 C 
ENDBRANCH   1   7
BRANCH   2  10
ATOM     10  C   UNL     1       3.103   0.951  -1.642  0.00  0.00    +0.000 C 
ATOM     11  C   UNL     1       2.232   0.811  -2.896  0.00  0.00    +0.000 C 
ATOM     12  C   UNL     1       1.933   2.170  -3.525  0.00  0.00    +0.000 C 
ATOM     13  C   UNL     1       3.213   2.940  -3.835  0.00  0.00    +0.000 C 
ATOM     14  C   UNL     1       4.103   3.071  -2.602  0.00  0.00    +0.000 C 
ATOM     15  C   UNL     1       4.396   1.711  -1.973  0.00  0.00    +0.000 C 
ENDBRANCH   2  10
TORSDOF 2
