REMARK  Name = *****
REMARK  4 active torsions:
REMARK  status: ('A' for Active; 'I' for Inactive)
REMARK    1  A    between atoms: C_2  and  C_3
REMARK    2  A    between atoms: C_3  and  C_4
REMARK    3  A    between atoms: C_3  and  S_9
REMARK    4  A    between atoms: S_9  and  C_10
REMARK                            x       y       z     vdW  Elec       q    Type
REMARK                         _______ _______ _______ _____ _____    ______ ____
ROOT
ATOM      1  C   UNL     1       3.053   0.693   0.771  0.00  0.00    +0.000 C 
ENDROOT
BRANCH   1   2
ATOM      2  C   UNL     1       2.775   0.501   2.247  0.00  0.00    +0.000 A 
ATOM      3  C   UNL     1       2.902  -0.640   3.023  0.00  0.00    +0.000 A 
ATOM      4  C   UNL     1       2.535  -0.423   4.382  0.00  0.00    +0.000 A 
ATOM      5  C   UNL     1       2.137   0.875   4.606  0.00  0.00    +0.000 A 
ATOM      6  S   UNL     1       2.205   1.823   3.187  0.00  0.00    +0.000 S 
ENDBRANCH   1   2
BRANCH   1   8
ATOM      7  C   UNL     1       1.403   0.169  -1.075  0.00  0.00    +0.000 C 
ATOM      8  C   UNL     1       2.256  -0.235  -0.122  0.00  0.00    +0.000 C 
ENDBRANCH   1   8
BRANCH   1   9
ATOM      9  S   UNL     1       4.851   0.412   0.448  0.00  0.00    +0.000 S 
BRANCH   9  10
ATOM     10  C   UNL     1       5.021   1.261  -1.110  0.00  0.00    +0.000 A 
ATOM     11  C   UNL     1       4.988   2.658  -1.171  0.00  0.00    +0.000 A 
ATOM     12  C   UNL     1       5.130   3.311  -2.397  0.00  0.00    +0.000 A 
ATOM     13  C   UNL     1       5.313   2.572  -3.565  0.00  0.00    +0.000 A 
ATOM     14  C   UNL     1       5.360   1.180  -3.508  0.00  0.00    +0.000 A 
ATOM     15  C   UNL     1       5.219   0.526  -2.282  0.00  0.00    +0.000 A 
ENDBRANCH   9  10
ENDBRANCH   1   9
TORSDOF 4
