REMARK  Name = *****
REMARK  2 active torsions:
REMARK  status: ('A' for Active; 'I' for Inactive)
REMARK    1  A    between atoms: C_1  and  C_2
REMARK    2  A    between atoms: C_4  and  C_8
REMARK                            x       y       z     vdW  Elec       q    Type
REMARK                         _______ _______ _______ _____ _____    ______ ____
ROOT
ATOM      1  C   UNL     1      -1.902   2.479   0.130  0.00  0.00    +0.000 A 
ATOM      2  N   UNL     1      -3.213   2.641   0.195  0.00  0.00    +0.000 NA
ATOM      3  C   UNL     1      -3.372   4.002   0.248  0.00  0.00    +0.000 A 
ATOM      4  C   UNL     1      -4.525   4.794   0.330  0.00  0.00    +0.000 A 
ATOM      5  C   UNL     1      -4.368   6.188   0.370  0.00  0.00    +0.000 A 
ATOM      6  C   UNL     1      -3.097   6.775   0.328  0.00  0.00    +0.000 A 
ATOM      7  C   UNL     1      -1.936   5.997   0.245  0.00  0.00    +0.000 A 
ATOM      8  C   UNL     1      -2.135   4.622   0.209  0.00  0.00    +0.000 A 
ATOM      9  O   UNL     1      -1.183   3.650   0.133  0.00  0.00    +0.000 OA
ENDROOT
BRANCH   1  13
ATOM     10  C   UNL     1       2.489   0.025  -0.066  0.00  0.00    +0.000 C 
ATOM     11  C   UNL     1       0.989   0.027  -0.036  0.00  0.00    +0.000 A 
ATOM     12  C   UNL     1       0.270   1.230   0.026  0.00  0.00    +0.000 A 
ATOM     13  C   UNL     1      -1.134   1.237   0.061  0.00  0.00    +0.000 A 
ATOM     14  C   UNL     1      -1.810   0.008   0.033  0.00  0.00    +0.000 A 
ATOM     15  C   UNL     1      -1.104  -1.195  -0.028  0.00  0.00    +0.000 A 
ATOM     16  C   UNL     1       0.289  -1.185  -0.061  0.00  0.00    +0.000 A 
ENDBRANCH   1  13
TORSDOF 1
