REMARK  Name = *****
REMARK  4 active torsions:
REMARK  status: ('A' for Active; 'I' for Inactive)
REMARK    1  A    between atoms: C_1  and  C_2
REMARK    2  A    between atoms: C_2  and  O_8
REMARK    3  A    between atoms: O_8  and  C_9
REMARK    4  A    between atoms: C_9  and  C_11
REMARK                            x       y       z     vdW  Elec       q    Type
REMARK                         _______ _______ _______ _____ _____    ______ ____
ROOT
ATOM      1  O   UNL     1       2.909   0.004   1.407  0.00  0.00    +0.000 OA
ENDROOT
BRANCH   1   3
ATOM      2  C   UNL     1       0.711  -0.112   0.301  0.00  0.00    +0.000 C 
ATOM      3  C   UNL     1       2.230   0.025   0.128  0.00  0.00    +0.000 C 
ATOM      4  C   UNL     1       2.586   1.286  -0.695  0.00  0.00    +0.000 C 
ATOM      5  C   UNL     1       4.033   1.251  -1.187  0.00  0.00    +0.000 C 
ATOM      6  C   UNL     1       4.278   0.040  -2.089  0.00  0.00    +0.000 C 
ATOM      7  C   UNL     1       3.646  -1.214  -1.563  0.00  0.00    +0.000 C 
ATOM      8  C   UNL     1       2.749  -1.223  -0.565  0.00  0.00    +0.000 C 
ENDBRANCH   1   3
BRANCH   1   9
ATOM      9  C   UNL     1       2.648   0.943   2.343  0.00  0.00    +0.000 C 
ATOM     10  O   UNL     1       1.851   1.862   2.253  0.00  0.00    +0.000 OA
BRANCH   9  11
ATOM     11  C   UNL     1       3.485   0.707   3.552  0.00  0.00    +0.000 A 
ATOM     12  C   UNL     1       3.326   1.569   4.646  0.00  0.00    +0.000 A 
ATOM     13  C   UNL     1       4.087   1.390   5.802  0.00  0.00    +0.000 A 
ATOM     14  C   UNL     1       5.012   0.349   5.873  0.00  0.00    +0.000 A 
ATOM     15  C   UNL     1       5.179  -0.513   4.790  0.00  0.00    +0.000 A 
ATOM     16  C   UNL     1       4.419  -0.336   3.631  0.00  0.00    +0.000 A 
ENDBRANCH   9  11
ENDBRANCH   1   9
TORSDOF 3
