REMARK  Name = *****
REMARK  3 active torsions:
REMARK  status: ('A' for Active; 'I' for Inactive)
REMARK    1  A    between atoms: C_1  and  C_2
REMARK    2  A    between atoms: C_5  and  C_7
REMARK    3  A    between atoms: C_8  and  C_9
REMARK                            x       y       z     vdW  Elec       q    Type
REMARK                         _______ _______ _______ _____ _____    ______ ____
ROOT
ATOM      1  C   UNL     1      -2.918   0.681  -0.065  0.00  0.00    +0.000 C 
ATOM      2  C   UNL     1      -4.069   0.024   0.145  0.00  0.00    +0.000 C 
ENDROOT
BRANCH   2   3
ATOM      3  C   UNL     1      -5.380   0.689   0.059  0.00  0.00    +0.000 A 
ATOM      4  C   UNL     1      -5.749   1.316  -1.143  0.00  0.00    +0.000 A 
ATOM      5  C   UNL     1      -6.992   1.939  -1.274  0.00  0.00    +0.000 A 
ATOM      6  C   UNL     1      -7.887   1.940  -0.207  0.00  0.00    +0.000 A 
ATOM      7  C   UNL     1      -7.541   1.315   0.991  0.00  0.00    +0.000 A 
ATOM      8  C   UNL     1      -6.297   0.689   1.124  0.00  0.00    +0.000 A 
ATOM      9 BR   UNL     1      -5.907  -0.128   2.798  0.00  0.00    +0.000 Br
ENDBRANCH   2   3
BRANCH   1  14
ATOM     10  C   UNL     1       2.294  -0.145  -0.093  0.00  0.00    +0.000 C 
ATOM     11  C   UNL     1       0.820  -0.332   0.010  0.00  0.00    +0.000 A 
ATOM     12  C   UNL     1       0.120  -1.479   0.309  0.00  0.00    +0.000 A 
ATOM     13  C   UNL     1      -1.290  -1.262   0.319  0.00  0.00    +0.000 A 
ATOM     14  C   UNL     1      -1.644   0.045   0.028  0.00  0.00    +0.000 A 
ATOM     15  S   UNL     1      -0.227   0.990  -0.256  0.00  0.00    +0.000 S 
ENDBRANCH   1  14
TORSDOF 2
