REMARK  Name = *****
REMARK  4 active torsions:
REMARK  status: ('A' for Active; 'I' for Inactive)
REMARK    1  A    between atoms: C_1  and  O_2
REMARK    2  A    between atoms: O_2  and  C_3
REMARK    3  A    between atoms: C_6  and  C_9
REMARK    4  A    between atoms: C_10  and  C_11
REMARK                            x       y       z     vdW  Elec       q    Type
REMARK                         _______ _______ _______ _____ _____    ______ ____
ROOT
ATOM      1  C   UNL     1       5.239  -0.245   4.763  0.00  0.00    +0.000 C 
ATOM      2  C   UNL     1       4.963  -1.050   5.802  0.00  0.00    +0.000 C 
ENDROOT
BRANCH   2   3
ATOM      3  C   UNL     1       5.716  -1.065   7.067  0.00  0.00    +0.000 A 
ATOM      4  C   UNL     1       5.047  -1.366   8.261  0.00  0.00    +0.000 A 
ATOM      5  C   UNL     1       5.736  -1.414   9.470  0.00  0.00    +0.000 A 
ATOM      6  C   UNL     1       7.105  -1.178   9.517  0.00  0.00    +0.000 A 
ATOM      7  C   UNL     1       7.791  -0.897   8.337  0.00  0.00    +0.000 A 
ATOM      8  C   UNL     1       7.102  -0.846   7.119  0.00  0.00    +0.000 A 
ATOM      9  F   UNL     1       5.081  -1.694  10.606  0.00  0.00    +0.000 F 
ATOM     10  F   UNL     1       3.726  -1.606   8.252  0.00  0.00    +0.000 F 
ENDBRANCH   2   3
BRANCH   1  14
ATOM     11  C   UNL     1       3.059  -0.123   1.069  0.00  0.00    +0.000 A 
ATOM     12  C   UNL     1       2.379  -0.347   2.265  0.00  0.00    +0.000 A 
ATOM     13  C   UNL     1       3.081  -0.396   3.477  0.00  0.00    +0.000 A 
ATOM     14  C   UNL     1       4.472  -0.234   3.509  0.00  0.00    +0.000 A 
ATOM     15  C   UNL     1       5.144   0.007   2.307  0.00  0.00    +0.000 A 
ATOM     16  C   UNL     1       4.443   0.055   1.098  0.00  0.00    +0.000 A 
BRANCH  11  18
ATOM     17  C   UNL     1       1.090  -0.234  -0.257  0.00  0.00    +0.000 C 
ATOM     18  O   UNL     1       2.498  -0.051  -0.176  0.00  0.00    +0.000 OA
ENDBRANCH  11  18
ENDBRANCH   1  14
TORSDOF 3
