REMARK  Name = *****
REMARK  4 active torsions:
REMARK  status: ('A' for Active; 'I' for Inactive)
REMARK    1  A    between atoms: C_1  and  O_2
REMARK    2  A    between atoms: O_2  and  C_3
REMARK    3  A    between atoms: C_7  and  C_9
REMARK    4  A    between atoms: C_10  and  C_11
REMARK                            x       y       z     vdW  Elec       q    Type
REMARK                         _______ _______ _______ _____ _____    ______ ____
ROOT
ATOM      1  C   UNL     1       5.408  -3.661  -1.558  0.00  0.00    +0.000 C 
ATOM      2  C   UNL     1       6.137  -4.588  -1.331  0.00  0.00    +0.000 C 
ENDROOT
BRANCH   2   3
ATOM      3  C   UNL     1       7.007  -5.691  -1.059  0.00  0.00    +0.000 A 
ATOM      4  C   UNL     1       8.352  -5.459  -0.757  0.00  0.00    +0.000 A 
ATOM      5  C   UNL     1       9.205  -6.534  -0.491  0.00  0.00    +0.000 A 
ATOM      6  C   UNL     1       8.718  -7.842  -0.525  0.00  0.00    +0.000 A 
ATOM      7  C   UNL     1       7.377  -8.076  -0.826  0.00  0.00    +0.000 A 
ATOM      8  C   UNL     1       6.530  -7.002  -1.091  0.00  0.00    +0.000 A 
ATOM      9  F   UNL     1       5.244  -7.254  -1.379  0.00  0.00    +0.000 F 
ENDBRANCH   2   3
BRANCH   1  14
ATOM     10  C   UNL     1       3.019  -0.839  -1.036  0.00  0.00    +0.000 A 
ATOM     11  C   UNL     1       2.839  -0.403  -2.350  0.00  0.00    +0.000 A 
ATOM     12  C   UNL     1       3.506  -1.042  -3.399  0.00  0.00    +0.000 A 
ATOM     13  C   UNL     1       4.355  -2.119  -3.140  0.00  0.00    +0.000 A 
ATOM     14  C   UNL     1       4.539  -2.557  -1.829  0.00  0.00    +0.000 A 
ATOM     15  C   UNL     1       3.872  -1.917  -0.781  0.00  0.00    +0.000 A 
BRANCH  10  17
ATOM     16  C   UNL     1       1.523   0.773  -0.131  0.00  0.00    +0.000 C 
ATOM     17  O   UNL     1       2.428  -0.304   0.076  0.00  0.00    +0.000 OA
ENDBRANCH  10  17
ENDBRANCH   1  14
TORSDOF 3
