REMARK  Name = *****
REMARK  6 active torsions:
REMARK  status: ('A' for Active; 'I' for Inactive)
REMARK    1  A    between atoms: C_1  and  C_2
REMARK    2  A    between atoms: C_2  and  C_3
REMARK    3  A    between atoms: C_2  and  N_9
REMARK    4  A    between atoms: N_9  and  C_10
REMARK    5  A    between atoms: N_9  and  C_11
REMARK    6  A    between atoms: C_11  and  C_13
REMARK                            x       y       z     vdW  Elec       q    Type
REMARK                         _______ _______ _______ _____ _____    ______ ____
ROOT
ATOM      1  N   UNL     1       2.904  -1.059   0.995  0.00  0.00    +0.000 N 
ATOM      2  C   UNL     1       1.941  -1.139   2.102  0.00  0.00    +0.000 C 
ENDROOT
BRANCH   1   4
ATOM      3  C   UNL     1       1.516  -0.519  -0.991  0.00  0.00    +0.000 C 
ATOM      4  C   UNL     1       2.622  -0.028  -0.045  0.00  0.00    +0.000 C 
BRANCH   4   5
ATOM      5  C   UNL     1       2.404   1.353   0.571  0.00  0.00    +0.000 A 
ATOM      6  C   UNL     1       3.480   1.973   1.234  0.00  0.00    +0.000 A 
ATOM      7  C   UNL     1       3.338   3.233   1.817  0.00  0.00    +0.000 A 
ATOM      8  C   UNL     1       2.117   3.897   1.749  0.00  0.00    +0.000 A 
ATOM      9  C   UNL     1       1.039   3.299   1.100  0.00  0.00    +0.000 A 
ATOM     10  C   UNL     1       1.180   2.037   0.516  0.00  0.00    +0.000 A 
ENDBRANCH   4   5
ENDBRANCH   1   4
BRANCH   1  11
ATOM     11  C   UNL     1       4.098  -1.814   1.023  0.00  0.00    +0.000 C 
ATOM     12  S   UNL     1       4.606  -2.773   2.320  0.00  0.00    +0.000 S 
BRANCH  11  13
ATOM     13  C   UNL     1       4.963  -1.772  -0.185  0.00  0.00    +0.000 A 
ATOM     14  C   UNL     1       6.113  -0.974  -0.196  0.00  0.00    +0.000 A 
ATOM     15  C   UNL     1       6.910  -0.935  -1.340  0.00  0.00    +0.000 A 
ATOM     16  C   UNL     1       6.563  -1.693  -2.460  0.00  0.00    +0.000 A 
ATOM     17  C   UNL     1       5.420  -2.496  -2.441  0.00  0.00    +0.000 A 
ATOM     18  C   UNL     1       4.617  -2.540  -1.302  0.00  0.00    +0.000 A 
ENDBRANCH  11  13
ENDBRANCH   1  11
TORSDOF 4
