REMARK  Name = *****
REMARK  4 active torsions:
REMARK  status: ('A' for Active; 'I' for Inactive)
REMARK    1  A    between atoms: C_4  and  C_7
REMARK    2  A    between atoms: C_7  and  C_8
REMARK    3  A    between atoms: C_8  and  C_9
REMARK    4  A    between atoms: C_9  and  C_10
REMARK                            x       y       z     vdW  Elec       q    Type
REMARK                         _______ _______ _______ _____ _____    ______ ____
ROOT
ATOM      1  C   UNL     1      -3.572  -0.862  -0.320  0.00  0.00    +0.000 C 
ENDROOT
BRANCH   1   2
ATOM      2  C   UNL     1      -2.831   0.466  -0.159  0.00  0.00    +0.000 C 
BRANCH   2   6
ATOM      3  C   UNL     1       1.387  -0.169   0.470  0.00  0.00    +0.000 A 
ATOM      4  C   UNL     1       0.887  -0.038  -0.824  0.00  0.00    +0.000 A 
ATOM      5  C   UNL     1      -0.477   0.172  -1.029  0.00  0.00    +0.000 A 
ATOM      6  C   UNL     1      -1.354   0.258   0.061  0.00  0.00    +0.000 A 
ATOM      7  C   UNL     1      -0.841   0.118   1.358  0.00  0.00    +0.000 A 
ATOM      8  C   UNL     1       0.523  -0.092   1.560  0.00  0.00    +0.000 A 
ENDBRANCH   2   6
ENDBRANCH   1   2
BRANCH   1   9
ATOM      9  C   UNL     1      -5.070  -0.632  -0.531  0.00  0.00    +0.000 C 
BRANCH   9  10
ATOM     10  C   UNL     1      -5.816  -1.932  -0.702  0.00  0.00    +0.000 A 
ATOM     11  C   UNL     1      -6.321  -2.613   0.414  0.00  0.00    +0.000 A 
ATOM     12  C   UNL     1      -6.998  -3.825   0.257  0.00  0.00    +0.000 A 
ATOM     13  C   UNL     1      -7.167  -4.363  -1.016  0.00  0.00    +0.000 A 
ATOM     14  C   UNL     1      -6.664  -3.702  -2.134  0.00  0.00    +0.000 A 
ATOM     15  C   UNL     1      -5.987  -2.490  -1.977  0.00  0.00    +0.000 A 
ATOM     16 CL   UNL     1      -7.999  -5.857  -1.209  0.00  0.00    +0.000 Cl
ENDBRANCH   9  10
ENDBRANCH   1   9
TORSDOF 4
