REMARK  Name = *****
REMARK  3 active torsions:
REMARK  status: ('A' for Active; 'I' for Inactive)
REMARK    1  A    between atoms: C_2  and  C_3
REMARK    2  A    between atoms: C_8  and  C_9
REMARK    3  A    between atoms: C_10  and  C_11
REMARK                            x       y       z     vdW  Elec       q    Type
REMARK                         _______ _______ _______ _____ _____    ______ ____
ROOT
ATOM      1  C   UNL     1       3.658  -3.013   0.342  0.00  0.00    +0.000 A 
ATOM      2  C   UNL     1       3.423  -3.499  -0.957  0.00  0.00    +0.000 A 
ATOM      3  C   UNL     1       3.487  -2.651  -2.064  0.00  0.00    +0.000 A 
ATOM      4  C   UNL     1       3.780  -1.303  -1.890  0.00  0.00    +0.000 A 
ATOM      5  C   UNL     1       4.002  -0.800  -0.608  0.00  0.00    +0.000 A 
ATOM      6  C   UNL     1       3.932  -1.639   0.519  0.00  0.00    +0.000 A 
ENDROOT
BRANCH   1   8
ATOM      7  C   UNL     1       4.086  -5.152   1.533  0.00  0.00    +0.000 C 
ATOM      8  C   UNL     1       3.540  -3.930   1.491  0.00  0.00    +0.000 C 
ENDBRANCH   1   8
BRANCH   6   9
ATOM      9  C   UNL     1       4.211  -1.070   1.849  0.00  0.00    +0.000 C 
ATOM     10  C   UNL     1       3.555  -0.005   2.337  0.00  0.00    +0.000 C 
BRANCH  10  11
ATOM     11  C   UNL     1       3.802   0.562   3.669  0.00  0.00    +0.000 A 
ATOM     12  C   UNL     1       5.093   0.694   4.197  0.00  0.00    +0.000 A 
ATOM     13  C   UNL     1       5.291   1.267   5.456  0.00  0.00    +0.000 A 
ATOM     14  C   UNL     1       4.202   1.722   6.195  0.00  0.00    +0.000 A 
ATOM     15  C   UNL     1       2.914   1.611   5.674  0.00  0.00    +0.000 A 
ATOM     16  C   UNL     1       2.716   1.039   4.415  0.00  0.00    +0.000 A 
ENDBRANCH  10  11
ENDBRANCH   6   9
TORSDOF 3
