REMARK  Name = *****
REMARK  4 active torsions:
REMARK  status: ('A' for Active; 'I' for Inactive)
REMARK    1  A    between atoms: C_4  and  C_7
REMARK    2  A    between atoms: C_7  and  O_8
REMARK    3  A    between atoms: O_8  and  C_9
REMARK    4  A    between atoms: C_9  and  C_11
REMARK                            x       y       z     vdW  Elec       q    Type
REMARK                         _______ _______ _______ _____ _____    ______ ____
ROOT
ATOM      1  C   UNL     1       3.609  -2.912  -0.855  0.00  0.00    +0.000 C 
ATOM      2  O   UNL     1       3.614  -2.755  -2.066  0.00  0.00    +0.000 OA
ENDROOT
BRANCH   1   3
ATOM      3  C   UNL     1       4.048  -4.168  -0.215  0.00  0.00    +0.000 A 
ATOM      4  C   UNL     1       3.582  -4.579   1.037  0.00  0.00    +0.000 A 
ATOM      5  C   UNL     1       4.021  -5.778   1.601  0.00  0.00    +0.000 A 
ATOM      6  C   UNL     1       4.927  -6.579   0.908  0.00  0.00    +0.000 A 
ATOM      7  C   UNL     1       5.378  -6.176  -0.345  0.00  0.00    +0.000 A 
ATOM      8  C   UNL     1       4.946  -4.984  -0.916  0.00  0.00    +0.000 A 
ATOM      9  F   UNL     1       6.242  -6.950  -1.012  0.00  0.00    +0.000 F 
ATOM     10  F   UNL     1       2.683  -3.857   1.721  0.00  0.00    +0.000 F 
ENDBRANCH   1   3
BRANCH   1  11
ATOM     11  O   UNL     1       3.288  -1.988   0.078  0.00  0.00    +0.000 OA
BRANCH  11  12
ATOM     12  C   UNL     1       2.845  -0.707  -0.398  0.00  0.00    +0.000 C 
BRANCH  12  16
ATOM     13  C   UNL     1      -1.402   0.319  -0.172  0.00  0.00    +0.000 C 
ATOM     14  C   UNL     1      -0.989  -1.100   0.201  0.00  0.00    +0.000 C 
ATOM     15  C   UNL     1       0.413  -1.433  -0.306  0.00  0.00    +0.000 C 
ATOM     16  C   UNL     1       1.453  -0.405   0.174  0.00  0.00    +0.000 C 
ATOM     17  C   UNL     1       1.022   1.021  -0.197  0.00  0.00    +0.000 C 
ATOM     18  C   UNL     1      -0.380   1.343   0.311  0.00  0.00    +0.000 C 
ENDBRANCH  12  16
ENDBRANCH  11  12
ENDBRANCH   1  11
TORSDOF 4
