REMARK  Name = *****
REMARK  2 active torsions:
REMARK  status: ('A' for Active; 'I' for Inactive)
REMARK    1  A    between atoms: C_4  and  C_7
REMARK    2  A    between atoms: C_8  and  C_9
REMARK                            x       y       z     vdW  Elec       q    Type
REMARK                         _______ _______ _______ _____ _____    ______ ____
ROOT
ATOM      1  C   UNL     1      -2.804   0.469  -0.374  0.00  0.00    +0.000 C 
ATOM      2  C   UNL     1      -3.749  -0.484  -0.324  0.00  0.00    +0.000 C 
ENDROOT
BRANCH   1   6
ATOM      3  C   UNL     1       1.378  -0.202   0.233  0.00  0.00    +0.000 A 
ATOM      4  C   UNL     1       0.634  -1.125  -0.500  0.00  0.00    +0.000 A 
ATOM      5  C   UNL     1      -0.734  -0.921  -0.700  0.00  0.00    +0.000 A 
ATOM      6  C   UNL     1      -1.373   0.202  -0.159  0.00  0.00    +0.000 A 
ATOM      7  C   UNL     1      -0.612   1.131   0.562  0.00  0.00    +0.000 A 
ATOM      8  C   UNL     1       0.756   0.927   0.762  0.00  0.00    +0.000 A 
ENDBRANCH   1   6
BRANCH   2   9
ATOM      9  C   UNL     1      -5.133  -0.206  -0.531  0.00  0.00    +0.000 A 
ATOM     10  C   UNL     1      -5.801   0.982  -0.800  0.00  0.00    +0.000 A 
ATOM     11  C   UNL     1      -7.213   0.818  -0.940  0.00  0.00    +0.000 A 
ATOM     12  C   UNL     1      -7.572  -0.490  -0.774  0.00  0.00    +0.000 A 
ATOM     13  S   UNL     1      -6.268  -1.512  -0.456  0.00  0.00    +0.000 S 
ATOM     14 CL   UNL     1      -9.162  -1.134  -0.860  0.00  0.00    +0.000 Cl
ENDBRANCH   2   9
TORSDOF 2
