REMARK  Name = *****
REMARK  2 active torsions:
REMARK  status: ('A' for Active; 'I' for Inactive)
REMARK    1  A    between atoms: C_4  and  C_7
REMARK    2  A    between atoms: C_8  and  C_9
REMARK                            x       y       z     vdW  Elec       q    Type
REMARK                         _______ _______ _______ _____ _____    ______ ____
ROOT
ATOM      1  C   UNL     1      -5.152  -0.358  -0.569  0.00  0.00    +0.000 A 
ATOM      2  C   UNL     1      -5.718  -0.040  -1.813  0.00  0.00    +0.000 A 
ATOM      3  C   UNL     1      -7.110   0.179  -1.901  0.00  0.00    +0.000 A 
ATOM      4  C   UNL     1      -7.924   0.134  -0.774  0.00  0.00    +0.000 A 
ATOM      5  C   UNL     1      -7.350  -0.152   0.465  0.00  0.00    +0.000 A 
ATOM      6  C   UNL     1      -5.976  -0.398   0.567  0.00  0.00    +0.000 A 
ATOM      7  S   UNL     1      -7.701   0.514  -3.547  0.00  0.00    +0.000 S 
ATOM      8  S   UNL     1      -5.808   0.603  -4.328  0.00  0.00    +0.000 S 
ATOM      9  N   UNL     1      -4.977  -0.049  -3.028  0.00  0.00    +0.000 N 
ATOM     10  H   UNL     1      -4.062  -0.404  -3.098  0.00  0.00    +0.000 HD
ENDROOT
BRANCH   1  12
ATOM     11  C   UNL     1      -2.839   0.353  -0.206  0.00  0.00    +0.000 C 
ATOM     12  C   UNL     1      -3.721  -0.635  -0.419  0.00  0.00    +0.000 C 
BRANCH  11  16
ATOM     13  C   UNL     1       1.391  -0.125   0.233  0.00  0.00    +0.000 A 
ATOM     14  C   UNL     1       0.690  -0.977  -0.618  0.00  0.00    +0.000 A 
ATOM     15  C   UNL     1      -0.693  -0.838  -0.765  0.00  0.00    +0.000 A 
ATOM     16  C   UNL     1      -1.391   0.148  -0.055  0.00  0.00    +0.000 A 
ATOM     17  C   UNL     1      -0.671   1.009   0.785  0.00  0.00    +0.000 A 
ATOM     18  C   UNL     1       0.711   0.870   0.932  0.00  0.00    +0.000 A 
ENDBRANCH  11  16
ENDBRANCH   1  12
TORSDOF 2
