REMARK  Name = *****
REMARK  3 active torsions:
REMARK  status: ('A' for Active; 'I' for Inactive)
REMARK    1  A    between atoms: N_5  and  C_8
REMARK    2  A    between atoms: C_8  and  S_10
REMARK    3  A    between atoms: S_10  and  N_11
REMARK                            x       y       z     vdW  Elec       q    Type
REMARK                         _______ _______ _______ _____ _____    ______ ____
ROOT
ATOM      1  C   UNL     1       1.810  -1.645  -1.554  0.00  0.00    +0.000 C 
ATOM      2  S   UNL     1       1.056  -3.124  -1.871  0.00  0.00    +0.000 S 
ENDROOT
BRANCH   1   7
ATOM      3  C   UNL     1      -0.361   1.777  -0.331  0.00  0.00    +0.000 C 
ATOM      4  C   UNL     1      -1.282   0.796   0.392  0.00  0.00    +0.000 C 
ATOM      5  C   UNL     1      -0.980  -0.678   0.136  0.00  0.00    +0.000 C 
ATOM      6  C   UNL     1       0.450  -1.087   0.481  0.00  0.00    +0.000 C 
ATOM      7  N   UNL     1       1.401  -0.711  -0.575  0.00  0.00    +0.000 N 
ATOM      8  C   UNL     1       1.934   0.658  -0.534  0.00  0.00    +0.000 C 
ATOM      9  C   UNL     1       1.081   1.718   0.167  0.00  0.00    +0.000 C 
ENDBRANCH   1   7
BRANCH   1  10
ATOM     10  S   UNL     1       3.228  -1.220  -2.555  0.00  0.00    +0.000 S 
BRANCH  10  11
ATOM     11  N   UNL     1       4.468  -1.282  -1.425  0.00  0.00    +0.000 NA
ATOM     12  C   UNL     1       4.919  -2.578  -0.904  0.00  0.00    +0.000 C 
ATOM     13  C   UNL     1       4.756  -2.635   0.617  0.00  0.00    +0.000 C 
ATOM     14  C   UNL     1       5.809  -1.868   1.412  0.00  0.00    +0.000 C 
ATOM     15  C   UNL     1       5.995  -0.406   1.013  0.00  0.00    +0.000 C 
ATOM     16  C   UNL     1       6.579  -0.253  -0.389  0.00  0.00    +0.000 C 
ATOM     17  C   UNL     1       5.539  -0.281  -1.514  0.00  0.00    +0.000 C 
ENDBRANCH  10  11
ENDBRANCH   1  10
TORSDOF 3
