REMARK  Name = *****
REMARK  3 active torsions:
REMARK  status: ('A' for Active; 'I' for Inactive)
REMARK    1  A    between atoms: C_4  and  C_7
REMARK    2  A    between atoms: C_8  and  C_9
REMARK    3  A    between atoms: C_12  and  C_14
REMARK                            x       y       z     vdW  Elec       q    Type
REMARK                         _______ _______ _______ _____ _____    ______ ____
ROOT
ATOM      1  C   UNL     1       5.723  -0.033  -0.558  0.00  0.00    +0.000 A 
ATOM      2  N   UNL     1       6.502  -1.086  -0.622  0.00  0.00    +0.000 NA
ATOM      3  N   UNL     1       7.790  -0.604  -0.749  0.00  0.00    +0.000 NA
ATOM      4  C   UNL     1       7.705   0.716  -0.754  0.00  0.00    +0.000 A 
ATOM      5  O   UNL     1       6.398   1.149  -0.633  0.00  0.00    +0.000 OA
ENDROOT
BRANCH   4   6
ATOM      6  C   UNL     1       8.773   1.756  -0.865  0.00  0.00    +0.000 C 
ATOM      7 CL   UNL     1      10.398   1.019  -1.029  0.00  0.00    +0.000 Cl
ATOM      8 CL   UNL     1       8.479   2.788  -2.303  0.00  0.00    +0.000 Cl
ATOM      9 CL   UNL     1       8.774   2.794   0.599  0.00  0.00    +0.000 Cl
ENDBRANCH   4   6
BRANCH   1  11
ATOM     10  C   UNL     1       3.123   0.053  -0.315  0.00  0.00    +0.000 C 
ATOM     11  C   UNL     1       4.319   0.015  -0.427  0.00  0.00    +0.000 C 
BRANCH  10  15
ATOM     12  C   UNL     1      -1.081   0.160   0.072  0.00  0.00    +0.000 A 
ATOM     13  C   UNL     1      -0.357   1.351  -0.003  0.00  0.00    +0.000 A 
ATOM     14  C   UNL     1       1.033   1.317  -0.131  0.00  0.00    +0.000 A 
ATOM     15  C   UNL     1       1.700   0.090  -0.184  0.00  0.00    +0.000 A 
ATOM     16  C   UNL     1       0.973  -1.101  -0.109  0.00  0.00    +0.000 A 
ATOM     17  C   UNL     1      -0.417  -1.065   0.018  0.00  0.00    +0.000 A 
ENDBRANCH  10  15
ENDBRANCH   1  11
TORSDOF 3
