REMARK  Name = *****
REMARK  4 active torsions:
REMARK  status: ('A' for Active; 'I' for Inactive)
REMARK    1  A    between atoms: C_1  and  C_2
REMARK    2  A    between atoms: C_2  and  C_3
REMARK    3  A    between atoms: C_2  and  C_9
REMARK    4  A    between atoms: C_9  and  C_10
REMARK                            x       y       z     vdW  Elec       q    Type
REMARK                         _______ _______ _______ _____ _____    ______ ____
ROOT
ATOM      1  C   UNL     1       3.060   0.017   1.587  0.00  0.00    +0.000 C 
ATOM      2  F   UNL     1       2.869  -1.293   1.956  0.00  0.00    +0.000 F 
ATOM      3  F   UNL     1       4.425   0.147   1.548  0.00  0.00    +0.000 F 
ENDROOT
BRANCH   1   4
ATOM      4  C   UNL     1       2.444   0.965   2.600  0.00  0.00    +0.000 A 
ATOM      5  C   UNL     1       1.334   0.574   3.366  0.00  0.00    +0.000 A 
ATOM      6  C   UNL     1       0.764   1.450   4.292  0.00  0.00    +0.000 A 
ATOM      7  C   UNL     1       1.301   2.723   4.469  0.00  0.00    +0.000 A 
ATOM      8  C   UNL     1       2.410   3.121   3.725  0.00  0.00    +0.000 A 
ATOM      9  C   UNL     1       2.981   2.246   2.800  0.00  0.00    +0.000 A 
ENDBRANCH   1   4
BRANCH   1  11
ATOM     10  C   UNL     1       1.049  -0.246   0.014  0.00  0.00    +0.000 C 
ATOM     11  C   UNL     1       2.526   0.158   0.135  0.00  0.00    +0.000 C 
BRANCH  11  12
ATOM     12  C   UNL     1       2.848   1.502  -0.512  0.00  0.00    +0.000 A 
ATOM     13  C   UNL     1       1.939   2.571  -0.533  0.00  0.00    +0.000 A 
ATOM     14  C   UNL     1       2.286   3.791  -1.120  0.00  0.00    +0.000 A 
ATOM     15  C   UNL     1       3.545   3.962  -1.690  0.00  0.00    +0.000 A 
ATOM     16  C   UNL     1       4.461   2.915  -1.672  0.00  0.00    +0.000 A 
ATOM     17  C   UNL     1       4.116   1.695  -1.086  0.00  0.00    +0.000 A 
ENDBRANCH  11  12
ENDBRANCH   1  11
TORSDOF 3
