REMARK  Name = *****
REMARK  3 active torsions:
REMARK  status: ('A' for Active; 'I' for Inactive)
REMARK    1  A    between atoms: N_5  and  C_8
REMARK    2  A    between atoms: C_8  and  C_16
REMARK    3  A    between atoms: C_9  and  C_10
REMARK                            x       y       z     vdW  Elec       q    Type
REMARK                         _______ _______ _______ _____ _____    ______ ____
ROOT
ATOM      1  C   UNL     1       1.844  -1.658  -1.429  0.00  0.00    +0.000 C 
ATOM      2  C   UNL     1       1.284  -2.781  -1.942  0.00  0.00    +0.000 C 
ENDROOT
BRANCH   1   7
ATOM      3  C   UNL     1      -0.781   1.409  -0.377  0.00  0.00    +0.000 C 
ATOM      4  C   UNL     1      -1.748   0.324   0.099  0.00  0.00    +0.000 C 
ATOM      5  C   UNL     1      -1.284  -1.109  -0.151  0.00  0.00    +0.000 C 
ATOM      6  C   UNL     1       0.096  -1.426   0.422  0.00  0.00    +0.000 C 
ATOM      7  N   UNL     1       1.149  -0.869  -0.442  0.00  0.00    +0.000 N 
ATOM      8  C   UNL     1       1.607   0.495  -0.109  0.00  0.00    +0.000 C 
ATOM      9  C   UNL     1       0.521   1.434   0.422  0.00  0.00    +0.000 C 
ENDBRANCH   1   7
BRANCH   2  10
ATOM     10  C   UNL     1       1.831  -3.637  -2.998  0.00  0.00    +0.000 A 
ATOM     11  C   UNL     1       2.332  -4.903  -2.679  0.00  0.00    +0.000 A 
ATOM     12  C   UNL     1       2.841  -5.729  -3.682  0.00  0.00    +0.000 A 
ATOM     13  C   UNL     1       2.847  -5.295  -5.008  0.00  0.00    +0.000 A 
ATOM     14  C   UNL     1       2.343  -4.036  -5.332  0.00  0.00    +0.000 A 
ATOM     15  C   UNL     1       1.833  -3.208  -4.330  0.00  0.00    +0.000 A 
ENDBRANCH   2  10
BRANCH   1  16
ATOM     16  C   UNL     1       3.249  -1.195  -1.909  0.00  0.00    +0.000 C 
ATOM     17  F   UNL     1       3.976  -0.647  -0.893  0.00  0.00    +0.000 F 
ATOM     18  F   UNL     1       4.032  -2.180  -2.418  0.00  0.00    +0.000 F 
ATOM     19  F   UNL     1       3.148  -0.234  -2.869  0.00  0.00    +0.000 F 
ENDBRANCH   1  16
TORSDOF 3
