REMARK  Name = *****
REMARK  1 active torsions:
REMARK  status: ('A' for Active; 'I' for Inactive)
REMARK    1  A    between atoms: C_1  and  N_2
REMARK                            x       y       z     vdW  Elec       q    Type
REMARK                         _______ _______ _______ _____ _____    ______ ____
ROOT
ATOM      1  C   UNL     1       3.028   2.168   1.454  0.00  0.00    +0.000 C 
ATOM      2  N   UNL     1       3.718   1.313   2.408  0.00  0.00    +0.000 N 
ATOM      3  C   UNL     1       5.053   1.739   2.834  0.00  0.00    +0.000 A 
ATOM      4  C   UNL     1       5.736   2.780   2.185  0.00  0.00    +0.000 A 
ATOM      5  C   UNL     1       7.002   3.195   2.619  0.00  0.00    +0.000 A 
ATOM      6  C   UNL     1       7.605   2.593   3.721  0.00  0.00    +0.000 A 
ATOM      7  C   UNL     1       6.941   1.579   4.406  0.00  0.00    +0.000 A 
ATOM      8  C   UNL     1       5.679   1.164   3.975  0.00  0.00    +0.000 A 
ATOM      9  C   UNL     1       4.960   0.192   4.729  0.00  0.00    +0.000 C 
ATOM     10  C   UNL     1       4.019  -0.530   4.873  0.00  0.00    +0.000 C 
ATOM     11  C   UNL     1       2.820  -1.063   4.330  0.00  0.00    +0.000 A 
ATOM     12  C   UNL     1       2.563  -0.814   2.965  0.00  0.00    +0.000 A 
ATOM     13  C   UNL     1       3.535  -0.059   2.110  0.00  0.00    +0.000 C 
ATOM     14  O   UNL     1       3.971  -0.597   1.095  0.00  0.00    +0.000 OA
ATOM     15  C   UNL     1       1.425  -1.351   2.361  0.00  0.00    +0.000 A 
ATOM     16  C   UNL     1       0.539  -2.089   3.137  0.00  0.00    +0.000 A 
ATOM     17  C   UNL     1       0.773  -2.316   4.493  0.00  0.00    +0.000 A 
ATOM     18  C   UNL     1       1.924  -1.805   5.097  0.00  0.00    +0.000 A 
ATOM     19  F   UNL     1      -0.564  -2.596   2.570  0.00  0.00    +0.000 F 
ENDROOT
TORSDOF 0
