REMARK  Name = *****
REMARK  0 active torsions:
REMARK  status: ('A' for Active; 'I' for Inactive)
REMARK                            x       y       z     vdW  Elec       q    Type
REMARK                         _______ _______ _______ _____ _____    ______ ____
ROOT
ATOM      1  C   UNL     1      -0.718  -1.673   1.224  0.00  0.00    +0.000 C 
ATOM      2  C   UNL     1       0.699  -1.311   1.677  0.00  0.00    +0.000 C 
ATOM      3  C   UNL     1       1.531  -0.703   0.578  0.00  0.00    +0.000 A 
ATOM      4  C   UNL     1       2.269  -1.506  -0.301  0.00  0.00    +0.000 A 
ATOM      5  C   UNL     1       3.016  -0.925  -1.331  0.00  0.00    +0.000 A 
ATOM      6  C   UNL     1       3.033   0.461  -1.496  0.00  0.00    +0.000 A 
ATOM      7  C   UNL     1       2.298   1.273  -0.635  0.00  0.00    +0.000 A 
ATOM      8  C   UNL     1       1.542   0.689   0.386  0.00  0.00    +0.000 A 
ATOM      9  N   UNL     1       0.798   1.551   1.291  0.00  0.00    +0.000 N 
ATOM     10  O   UNL     1       1.452   2.399   1.884  0.00  0.00    +0.000 OA
ATOM     11  N   UNL     1      -0.667   1.352   1.518  0.00  0.00    +0.000 N 
ATOM     12  C   UNL     1      -1.482   0.700   0.541  0.00  0.00    +0.000 A 
ATOM     13  C   UNL     1      -2.307   1.493  -0.285  0.00  0.00    +0.000 A 
ATOM     14  C   UNL     1      -3.107   0.934  -1.281  0.00  0.00    +0.000 A 
ATOM     15  C   UNL     1      -3.106  -0.440  -1.467  0.00  0.00    +0.000 A 
ATOM     16  C   UNL     1      -2.309  -1.247  -0.654  0.00  0.00    +0.000 A 
ATOM     17  C   UNL     1      -1.481  -0.697   0.352  0.00  0.00    +0.000 A 
ATOM     18  O   UNL     1      -1.327   2.227   2.411  0.00  0.00    +0.000 OA
ENDROOT
TORSDOF 0
