REMARK  Name = *****
REMARK  5 active torsions:
REMARK  status: ('A' for Active; 'I' for Inactive)
REMARK    1  A    between atoms: C_1  and  N_2
REMARK    2  A    between atoms: N_2  and  C_3
REMARK    3  A    between atoms: N_2  and  C_4
REMARK    4  A    between atoms: C_7  and  C_10
REMARK    5  A    between atoms: C_11  and  C_12
REMARK                            x       y       z     vdW  Elec       q    Type
REMARK                         _______ _______ _______ _____ _____    ______ ____
ROOT
ATOM      1  C   UNL     1       4.371   2.543  -4.746  0.00  0.00    +0.000 C 
ATOM      2  C   UNL     1       4.740   3.016  -5.787  0.00  0.00    +0.000 C 
ENDROOT
BRANCH   2   3
ATOM      3  C   UNL     1       5.160   3.576  -7.038  0.00  0.00    +0.000 A 
ATOM      4  C   UNL     1       4.847   4.906  -7.330  0.00  0.00    +0.000 A 
ATOM      5  C   UNL     1       5.223   5.492  -8.538  0.00  0.00    +0.000 A 
ATOM      6  C   UNL     1       5.924   4.744  -9.481  0.00  0.00    +0.000 A 
ATOM      7  C   UNL     1       6.246   3.414  -9.206  0.00  0.00    +0.000 A 
ATOM      8  C   UNL     1       5.866   2.831  -7.989  0.00  0.00    +0.000 A 
ATOM      9 CL   UNL     1       6.300   1.177  -7.722  0.00  0.00    +0.000 Cl
ATOM     10  F   UNL     1       4.169   5.655  -6.446  0.00  0.00    +0.000 F 
ENDBRANCH   2   3
BRANCH   1  14
ATOM     11  C   UNL     1       2.944   0.805  -1.105  0.00  0.00    +0.000 A 
ATOM     12  C   UNL     1       2.419   2.008  -1.614  0.00  0.00    +0.000 A 
ATOM     13  C   UNL     1       2.886   2.584  -2.804  0.00  0.00    +0.000 A 
ATOM     14  C   UNL     1       3.909   1.972  -3.520  0.00  0.00    +0.000 A 
ATOM     15  C   UNL     1       4.470   0.797  -3.034  0.00  0.00    +0.000 A 
ATOM     16  C   UNL     1       3.997   0.231  -1.840  0.00  0.00    +0.000 A 
BRANCH  11  18
ATOM     17  C   UNL     1       1.045   0.444   0.393  0.00  0.00    +0.000 C 
ATOM     18  N   UNL     1       2.464   0.249   0.089  0.00  0.00    +0.000 N 
ATOM     19  C   UNL     1       3.037  -1.005   0.573  0.00  0.00    +0.000 C 
ENDBRANCH  11  18
ENDBRANCH   1  14
TORSDOF 3
