REMARK  Name = *****
REMARK  5 active torsions:
REMARK  status: ('A' for Active; 'I' for Inactive)
REMARK    1  A    between atoms: C_1  and  S_2
REMARK    2  A    between atoms: S_2  and  C_3
REMARK    3  A    between atoms: C_3  and  C_4
REMARK    4  A    between atoms: C_3  and  C_10
REMARK    5  A    between atoms: C_10  and  C_12
REMARK                            x       y       z     vdW  Elec       q    Type
REMARK                         _______ _______ _______ _____ _____    ______ ____
ROOT
ATOM      1  C   UNL     1       3.251  -0.960   1.079  0.00  0.00    +0.000 C 
ENDROOT
BRANCH   1   2
ATOM      2  C   UNL     1       2.891  -2.414   0.780  0.00  0.00    +0.000 A 
ATOM      3  C   UNL     1       3.347  -3.410   1.668  0.00  0.00    +0.000 A 
ATOM      4  C   UNL     1       3.049  -4.758   1.461  0.00  0.00    +0.000 A 
ATOM      5  C   UNL     1       2.278  -5.140   0.369  0.00  0.00    +0.000 A 
ATOM      6  C   UNL     1       1.801  -4.174  -0.511  0.00  0.00    +0.000 A 
ATOM      7  C   UNL     1       2.099  -2.823  -0.305  0.00  0.00    +0.000 A 
ENDBRANCH   1   2
BRANCH   1   9
ATOM      8  C   UNL     1       2.910   1.801   0.936  0.00  0.00    +0.000 C 
ATOM      9  S   UNL     1       2.564   0.319  -0.048  0.00  0.00    +0.000 S 
ENDBRANCH   1   9
BRANCH   1  10
ATOM     10  C   UNL     1       4.752  -0.721   1.279  0.00  0.00    +0.000 C 
ATOM     11  O   UNL     1       5.155  -0.127   2.286  0.00  0.00    +0.000 OA
BRANCH  10  12
ATOM     12  C   UNL     1       5.771  -1.187   0.282  0.00  0.00    +0.000 A 
ATOM     13  C   UNL     1       5.458  -1.549  -1.033  0.00  0.00    +0.000 A 
ATOM     14  C   UNL     1       6.463  -1.974  -1.907  0.00  0.00    +0.000 A 
ATOM     15  C   UNL     1       7.787  -2.035  -1.479  0.00  0.00    +0.000 A 
ATOM     16  C   UNL     1       8.113  -1.668  -0.177  0.00  0.00    +0.000 A 
ATOM     17  C   UNL     1       7.111  -1.244   0.698  0.00  0.00    +0.000 A 
ENDBRANCH  10  12
ENDBRANCH   1  10
TORSDOF 4
