REMARK  Name = *****
REMARK  2 active torsions:
REMARK  status: ('A' for Active; 'I' for Inactive)
REMARK    1  A    between atoms: C_6  and  C_7
REMARK    2  A    between atoms: N_8  and  C_9
REMARK                            x       y       z     vdW  Elec       q    Type
REMARK                         _______ _______ _______ _____ _____    ______ ____
ROOT
ATOM      1  C   UNL     1      -3.470   0.211  -0.145  0.00  0.00    +0.000 C 
ATOM      2  N   UNL     1      -4.137   1.200   0.361  0.00  0.00    +0.000 NA
ENDROOT
BRANCH   1   8
ATOM      3  C   UNL     1      -1.342  -0.953  -0.641  0.00  0.00    +0.000 A 
ATOM      4  C   UNL     1       0.051  -1.027  -0.590  0.00  0.00    +0.000 A 
ATOM      5  C   UNL     1       0.773  -0.002   0.016  0.00  0.00    +0.000 A 
ATOM      6  C   UNL     1       0.129   1.098   0.573  0.00  0.00    +0.000 A 
ATOM      7  C   UNL     1      -1.263   1.177   0.525  0.00  0.00    +0.000 A 
ATOM      8  C   UNL     1      -1.997   0.150  -0.082  0.00  0.00    +0.000 A 
ATOM      9  F   UNL     1       2.109  -0.077   0.062  0.00  0.00    +0.000 F 
ENDBRANCH   1   8
BRANCH   2  10
ATOM     10  C   UNL     1      -5.529   1.131   0.232  0.00  0.00    +0.000 A 
ATOM     11  C   UNL     1      -6.298   0.465   1.193  0.00  0.00    +0.000 A 
ATOM     12  C   UNL     1      -7.687   0.411   1.070  0.00  0.00    +0.000 A 
ATOM     13  C   UNL     1      -8.302   1.034  -0.010  0.00  0.00    +0.000 A 
ATOM     14  C   UNL     1      -7.555   1.714  -0.965  0.00  0.00    +0.000 A 
ATOM     15  C   UNL     1      -6.166   1.766  -0.840  0.00  0.00    +0.000 A 
ATOM     16  F   UNL     1      -9.635   0.983  -0.129  0.00  0.00    +0.000 F 
ENDBRANCH   2  10
TORSDOF 2
