REMARK  Name = *****
REMARK  1 active torsions:
REMARK  status: ('A' for Active; 'I' for Inactive)
REMARK    1  A    between atoms: C_5  and  C_8
REMARK                            x       y       z     vdW  Elec       q    Type
REMARK                         _______ _______ _______ _____ _____    ______ ____
ROOT
ATOM      1  C   UNL     1      -0.672   1.537   0.140  0.00  0.00    +0.000 C 
ATOM      2  C   UNL     1       0.537   0.648   0.002  0.00  0.00    +0.000 A 
ATOM      3  C   UNL     1       0.510  -0.742  -0.116  0.00  0.00    +0.000 A 
ATOM      4  C   UNL     1      -0.592  -1.657  -0.147  0.00  0.00    +0.000 C 
ATOM      5  C   UNL     1      -1.873  -1.288   0.065  0.00  0.00    +0.000 C 
ATOM      6  N   UNL     1      -2.299  -0.015   0.371  0.00  0.00    +0.000 NA
ATOM      7  N   UNL     1      -1.875   0.878  -0.395  0.00  0.00    +0.000 NA
ATOM      8  S   UNL     1       2.109  -1.377  -0.252  0.00  0.00    +0.000 S 
ATOM      9  C   UNL     1       2.822   0.165  -0.140  0.00  0.00    +0.000 A 
ATOM     10  C   UNL     1       1.880   1.156  -0.008  0.00  0.00    +0.000 A 
ENDROOT
BRANCH   5  11
ATOM     11  C   UNL     1      -2.900  -2.348   0.058  0.00  0.00    +0.000 A 
ATOM     12  C   UNL     1      -3.471  -2.783   1.261  0.00  0.00    +0.000 A 
ATOM     13  C   UNL     1      -4.435  -3.793   1.260  0.00  0.00    +0.000 A 
ATOM     14  C   UNL     1      -4.839  -4.370   0.056  0.00  0.00    +0.000 A 
ATOM     15  C   UNL     1      -4.281  -3.939  -1.147  0.00  0.00    +0.000 A 
ATOM     16  C   UNL     1      -3.315  -2.932  -1.147  0.00  0.00    +0.000 A 
ENDBRANCH   5  11
TORSDOF 1
