REMARK  Name = *****
REMARK  2 active torsions:
REMARK  status: ('A' for Active; 'I' for Inactive)
REMARK    1  A    between atoms: C_5  and  C_6
REMARK    2  A    between atoms: C_7  and  C_8
REMARK                            x       y       z     vdW  Elec       q    Type
REMARK                         _______ _______ _______ _____ _____    ______ ____
ROOT
ATOM      1  C   UNL     1       2.841  -1.413   0.290  0.00  0.00    +0.000 C 
ATOM      2  C   UNL     1       4.181  -1.443   0.357  0.00  0.00    +0.000 C 
ENDROOT
BRANCH   1   7
ATOM      3  C   UNL     1      -1.408   0.847   0.278  0.00  0.00    +0.000 C 
ATOM      4  C   UNL     1      -1.561  -0.583  -0.216  0.00  0.00    +0.000 C 
ATOM      5  C   UNL     1      -0.230  -1.238   0.136  0.00  0.00    +0.000 C 
ATOM      6  C   UNL     1       0.758  -0.102   0.052  0.00  0.00    +0.000 C 
ATOM      7  C   UNL     1       2.096  -0.186   0.122  0.00  0.00    +0.000 C 
ATOM      8  C   UNL     1       0.023   1.206  -0.099  0.00  0.00    +0.000 C 
ENDBRANCH   1   7
BRANCH   2   9
ATOM      9  C   UNL     1       4.966  -2.673   0.537  0.00  0.00    +0.000 A 
ATOM     10  C   UNL     1       4.636  -3.872  -0.108  0.00  0.00    +0.000 A 
ATOM     11  C   UNL     1       5.425  -5.013   0.064  0.00  0.00    +0.000 A 
ATOM     12  C   UNL     1       6.558  -4.963   0.873  0.00  0.00    +0.000 A 
ATOM     13  C   UNL     1       6.906  -3.772   1.506  0.00  0.00    +0.000 A 
ATOM     14  C   UNL     1       6.117  -2.631   1.334  0.00  0.00    +0.000 A 
ENDBRANCH   2   9
TORSDOF 2
