REMARK  Name = *****
REMARK  2 active torsions:
REMARK  status: ('A' for Active; 'I' for Inactive)
REMARK    1  A    between atoms: C_4  and  C_7
REMARK    2  A    between atoms: C_8  and  C_9
REMARK                            x       y       z     vdW  Elec       q    Type
REMARK                         _______ _______ _______ _____ _____    ______ ____
ROOT
ATOM      1  C   UNL     1       6.161  -0.106  -0.800  0.00  0.00    +0.000 C 
ATOM      2  C   UNL     1       7.049  -1.097  -0.622  0.00  0.00    +0.000 C 
ENDROOT
BRANCH   1   6
ATOM      3  C   UNL     1       2.035  -0.257   0.317  0.00  0.00    +0.000 A 
ATOM      4  C   UNL     1       2.643  -1.391  -0.218  0.00  0.00    +0.000 A 
ATOM      5  C   UNL     1       3.992  -1.357  -0.581  0.00  0.00    +0.000 A 
ATOM      6  C   UNL     1       4.749  -0.192  -0.401  0.00  0.00    +0.000 A 
ATOM      7  C   UNL     1       4.122   0.946   0.122  0.00  0.00    +0.000 A 
ATOM      8  C   UNL     1       2.773   0.912   0.486  0.00  0.00    +0.000 A 
ENDBRANCH   1   6
BRANCH   2   9
ATOM      9  C   UNL     1       8.462  -1.015  -1.019  0.00  0.00    +0.000 A 
ATOM     10  C   UNL     1       9.215   0.158  -0.874  0.00  0.00    +0.000 A 
ATOM     11  C   UNL     1      10.565   0.186  -1.235  0.00  0.00    +0.000 A 
ATOM     12  C   UNL     1      11.179  -0.961  -1.735  0.00  0.00    +0.000 A 
ATOM     13  C   UNL     1      10.445  -2.138  -1.869  0.00  0.00    +0.000 A 
ATOM     14  C   UNL     1       9.096  -2.166  -1.507  0.00  0.00    +0.000 A 
ENDBRANCH   2   9
TORSDOF 2
