REMARK  Name = *****
REMARK  6 active torsions:
REMARK  status: ('A' for Active; 'I' for Inactive)
REMARK    1  A    between atoms: C_1  and  O_2
REMARK    2  A    between atoms: O_2  and  C_3
REMARK    3  A    between atoms: C_5  and  C_11
REMARK    4  A    between atoms: C_6  and  O_9
REMARK    5  A    between atoms: O_9  and  C_10
REMARK    6  A    between atoms: C_12  and  C_13
REMARK                            x       y       z     vdW  Elec       q    Type
REMARK                         _______ _______ _______ _____ _____    ______ ____
ROOT
ATOM      1  C   UNL     1       3.173  -0.781   0.904  0.00  0.00    +0.000 A 
ATOM      2  C   UNL     1       2.761  -2.103   1.101  0.00  0.00    +0.000 A 
ATOM      3  C   UNL     1       3.438  -2.940   2.006  0.00  0.00    +0.000 A 
ATOM      4  C   UNL     1       4.532  -2.417   2.716  0.00  0.00    +0.000 A 
ATOM      5  C   UNL     1       4.932  -1.093   2.542  0.00  0.00    +0.000 A 
ATOM      6  C   UNL     1       4.259  -0.283   1.629  0.00  0.00    +0.000 A 
ENDROOT
BRANCH   1   8
ATOM      7  C   UNL     1       1.480  -0.326  -0.705  0.00  0.00    +0.000 C 
ATOM      8  O   UNL     1       2.599   0.122   0.051  0.00  0.00    +0.000 OA
ENDBRANCH   1   8
BRANCH   4   9
ATOM      9  O   UNL     1       5.195  -3.180   3.645  0.00  0.00    +0.000 OA
ATOM     10  C   UNL     1       6.344  -3.783   3.048  0.00  0.00    +0.000 C 
ENDBRANCH   4   9
BRANCH   3  11
ATOM     11  C   UNL     1       2.979  -4.317   2.253  0.00  0.00    +0.000 C 
ATOM     12  C   UNL     1       2.630  -5.172   1.278  0.00  0.00    +0.000 C 
BRANCH  12  13
ATOM     13  C   UNL     1       2.190  -6.554   1.518  0.00  0.00    +0.000 A 
ATOM     14  C   UNL     1       1.225  -7.114   0.669  0.00  0.00    +0.000 A 
ATOM     15  C   UNL     1       0.802  -8.434   0.844  0.00  0.00    +0.000 A 
ATOM     16  C   UNL     1       1.348  -9.213   1.862  0.00  0.00    +0.000 A 
ATOM     17  C   UNL     1       2.320  -8.674   2.702  0.00  0.00    +0.000 A 
ATOM     18  C   UNL     1       2.743  -7.353   2.528  0.00  0.00    +0.000 A 
ENDBRANCH  12  13
ENDBRANCH   3  11
TORSDOF 4
