REMARK  Name = *****
REMARK  4 active torsions:
REMARK  status: ('A' for Active; 'I' for Inactive)
REMARK    1  A    between atoms: C_1  and  C_2
REMARK    2  A    between atoms: N_6  and  O_7
REMARK    3  A    between atoms: O_7  and  C_8
REMARK    4  A    between atoms: C_8  and  C_9
REMARK                            x       y       z     vdW  Elec       q    Type
REMARK                         _______ _______ _______ _____ _____    ______ ____
ROOT
ATOM      1  C   UNL     1       8.958   0.722   1.681  0.00  0.00    +0.000 A 
ATOM      2  C   UNL     1       9.505   0.704   0.394  0.00  0.00    +0.000 A 
ATOM      3  C   UNL     1      10.646  -0.042   0.109  0.00  0.00    +0.000 A 
ATOM      4  C   UNL     1      11.254  -0.788   1.108  0.00  0.00    +0.000 A 
ATOM      5  C   UNL     1      10.722  -0.788   2.390  0.00  0.00    +0.000 A 
ATOM      6  C   UNL     1       9.581  -0.041   2.671  0.00  0.00    +0.000 A 
ATOM      7  F   UNL     1       9.076  -0.056   3.913  0.00  0.00    +0.000 F 
ATOM      8  F   UNL     1      11.305  -1.509   3.357  0.00  0.00    +0.000 F 
ATOM      9  F   UNL     1      12.351  -1.508   0.835  0.00  0.00    +0.000 F 
ATOM     10  F   UNL     1      11.154  -0.040  -1.131  0.00  0.00    +0.000 F 
ATOM     11  F   UNL     1       8.927   1.416  -0.583  0.00  0.00    +0.000 F 
ENDROOT
BRANCH   1  12
ATOM     12  C   UNL     1       7.700   1.482   1.965  0.00  0.00    +0.000 C 
BRANCH  12  13
ATOM     13  O   UNL     1       6.602   0.615   1.685  0.00  0.00    +0.000 OA
BRANCH  13  19
ATOM     14  C   UNL     1       0.945   0.132   0.055  0.00  0.00    +0.000 C 
ATOM     15  C   UNL     1       2.462   0.066   0.045  0.00  0.00    +0.000 C 
ATOM     16  C   UNL     1       3.010  -1.178   0.750  0.00  0.00    +0.000 C 
ATOM     17  C   UNL     1       4.485  -0.864   0.978  0.00  0.00    +0.000 C 
ATOM     18  C   UNL     1       4.458   0.635   1.129  0.00  0.00    +0.000 C 
ATOM     19  N   UNL     1       5.449   1.389   1.485  0.00  0.00    +0.000 NA
ATOM     20  C   UNL     1       3.116   1.227   0.794  0.00  0.00    +0.000 C 
ENDBRANCH  13  19
ENDBRANCH  12  13
ENDBRANCH   1  12
TORSDOF 3
