REMARK  Name = *****
REMARK  5 active torsions:
REMARK  status: ('A' for Active; 'I' for Inactive)
REMARK    1  A    between atoms: C_1  and  C_2
REMARK    2  A    between atoms: C_4  and  C_16
REMARK    3  A    between atoms: C_5  and  C_9
REMARK    4  A    between atoms: C_6  and  C_8
REMARK    5  A    between atoms: C_10  and  C_11
REMARK                            x       y       z     vdW  Elec       q    Type
REMARK                         _______ _______ _______ _____ _____    ______ ____
ROOT
ATOM      1  C   UNL     1       2.182   1.875   0.238  0.00  0.00    +0.000 C 
ATOM      2  C   UNL     1       1.058   0.892   0.091  0.00  0.00    +0.000 A 
ATOM      3  C   UNL     1       1.314  -0.482   0.084  0.00  0.00    +0.000 A 
ATOM      4  C   UNL     1       0.269  -1.415  -0.020  0.00  0.00    +0.000 A 
ATOM      5  C   UNL     1      -1.064  -0.956  -0.098  0.00  0.00    +0.000 A 
ATOM      6  C   UNL     1      -1.333   0.430  -0.084  0.00  0.00    +0.000 A 
ATOM      7  C   UNL     1      -0.266   1.337   0.021  0.00  0.00    +0.000 A 
ATOM      8  C   UNL     1      -2.739   0.966  -0.151  0.00  0.00    +0.000 C 
ATOM      9  C   UNL     1       0.603  -2.884  -0.018  0.00  0.00    +0.000 C 
ENDROOT
BRANCH   5  10
ATOM     10  C   UNL     1      -2.173  -1.920  -0.179  0.00  0.00    +0.000 C 
ATOM     11  C   UNL     1      -2.757  -2.406   0.926  0.00  0.00    +0.000 C 
BRANCH  11  12
ATOM     12  C   UNL     1      -3.843  -3.349   0.932  0.00  0.00    +0.000 C 
ATOM     13  C   UNL     1      -4.431  -3.840   2.024  0.00  0.00    +0.000 C 
ATOM     14  C   UNL     1      -5.508  -4.781   1.643  0.00  0.00    +0.000 C 
ATOM     15  O   UNL     1      -5.519  -4.814   0.207  0.00  0.00    +0.000 OA
ATOM     16  C   UNL     1      -4.490  -3.930  -0.277  0.00  0.00    +0.000 C 
ENDBRANCH  11  12
ENDBRANCH   5  10
TORSDOF 2
