REMARK  Name = *****
REMARK  3 active torsions:
REMARK  status: ('A' for Active; 'I' for Inactive)
REMARK    1  A    between atoms: C_6  and  C_7
REMARK    2  A    between atoms: N_8  and  C_9
REMARK    3  A    between atoms: C_12  and  C_15
REMARK                            x       y       z     vdW  Elec       q    Type
REMARK                         _______ _______ _______ _____ _____    ______ ____
ROOT
ATOM      1  C   UNL     1      -5.488   1.222   0.323  0.00  0.00    +0.000 A 
ATOM      2  C   UNL     1      -6.233   0.602   1.329  0.00  0.00    +0.000 A 
ATOM      3  C   UNL     1      -7.629   0.579   1.266  0.00  0.00    +0.000 A 
ATOM      4  C   UNL     1      -8.303   1.182   0.193  0.00  0.00    +0.000 A 
ATOM      5  C   UNL     1      -7.550   1.826  -0.802  0.00  0.00    +0.000 A 
ATOM      6  C   UNL     1      -6.154   1.845  -0.734  0.00  0.00    +0.000 A 
ENDROOT
BRANCH   4   7
ATOM      7  C   UNL     1      -9.811   1.180   0.138  0.00  0.00    +0.000 C 
ATOM      8  F   UNL     1     -10.360   0.046   0.657  0.00  0.00    +0.000 F 
ATOM      9  F   UNL     1     -10.358   2.213   0.835  0.00  0.00    +0.000 F 
ATOM     10  F   UNL     1     -10.302   1.281  -1.129  0.00  0.00    +0.000 F 
ENDBRANCH   4   7
BRANCH   1  12
ATOM     11  C   UNL     1      -3.469   0.248  -0.123  0.00  0.00    +0.000 C 
ATOM     12  N   UNL     1      -4.090   1.260   0.395  0.00  0.00    +0.000 NA
BRANCH  11  18
ATOM     13  C   UNL     1      -1.391  -0.974  -0.688  0.00  0.00    +0.000 A 
ATOM     14  C   UNL     1       0.002  -1.081  -0.692  0.00  0.00    +0.000 A 
ATOM     15  C   UNL     1       0.771  -0.066  -0.130  0.00  0.00    +0.000 A 
ATOM     16  C   UNL     1       0.177   1.056   0.437  0.00  0.00    +0.000 A 
ATOM     17  C   UNL     1      -1.214   1.168   0.445  0.00  0.00    +0.000 A 
ATOM     18  C   UNL     1      -1.996   0.152  -0.118  0.00  0.00    +0.000 A 
ATOM     19  F   UNL     1       2.106  -0.173  -0.137  0.00  0.00    +0.000 F 
ENDBRANCH  11  18
ENDBRANCH   1  12
TORSDOF 3
