REMARK  Name = *****
REMARK  4 active torsions:
REMARK  status: ('A' for Active; 'I' for Inactive)
REMARK    1  A    between atoms: C_5  and  O_7
REMARK    2  A    between atoms: O_7  and  C_8
REMARK    3  A    between atoms: C_8  and  C_10
REMARK    4  A    between atoms: C_10  and  C_11
REMARK                            x       y       z     vdW  Elec       q    Type
REMARK                         _______ _______ _______ _____ _____    ______ ____
ROOT
ATOM      1  O   UNL     1      -1.735  -2.094   1.094  0.00  0.00    +0.000 OA
ENDROOT
BRANCH   1   6
ATOM      2  C   UNL     1      -1.653   1.559   1.440  0.00  0.00    +0.000 A 
ATOM      3  C   UNL     1      -0.283   1.788   1.591  0.00  0.00    +0.000 A 
ATOM      4  C   UNL     1       0.616   0.717   1.576  0.00  0.00    +0.000 A 
ATOM      5  C   UNL     1       0.145  -0.584   1.402  0.00  0.00    +0.000 A 
ATOM      6  C   UNL     1      -1.224  -0.802   1.232  0.00  0.00    +0.000 A 
ATOM      7  C   UNL     1      -2.130   0.260   1.266  0.00  0.00    +0.000 A 
ATOM      8 CL   UNL     1       1.270  -1.892   1.419  0.00  0.00    +0.000 Cl
ENDBRANCH   1   6
BRANCH   1   9
ATOM      9  C   UNL     1      -1.748  -2.522  -0.230  0.00  0.00    +0.000 C 
ATOM     10  O   UNL     1      -1.408  -1.870  -1.211  0.00  0.00    +0.000 OA
BRANCH   9  11
ATOM     11  C   UNL     1      -2.287  -3.931  -0.293  0.00  0.00    +0.000 C 
BRANCH  11  12
ATOM     12  C   UNL     1      -3.762  -3.894  -0.537  0.00  0.00    +0.000 A 
ATOM     13  C   UNL     1      -4.425  -3.743  -1.740  0.00  0.00    +0.000 A 
ATOM     14  C   UNL     1      -5.841  -3.755  -1.583  0.00  0.00    +0.000 A 
ATOM     15  C   UNL     1      -6.211  -3.917  -0.267  0.00  0.00    +0.000 A 
ATOM     16  S   UNL     1      -4.859  -4.052   0.769  0.00  0.00    +0.000 S 
ENDBRANCH  11  12
ENDBRANCH   9  11
ENDBRANCH   1   9
TORSDOF 4
