REMARK  Name = *****
REMARK  4 active torsions:
REMARK  status: ('A' for Active; 'I' for Inactive)
REMARK    1  A    between atoms: C_4  and  C_7
REMARK    2  A    between atoms: C_7  and  C_8
REMARK    3  A    between atoms: C_7  and  C_15
REMARK    4  A    between atoms: C_8  and  C_9
REMARK                            x       y       z     vdW  Elec       q    Type
REMARK                         _______ _______ _______ _____ _____    ______ ____
ROOT
ATOM      1  C   UNL     1       2.813  -0.522  -0.239  0.00  0.00    +0.000 C 
ENDROOT
BRANCH   1   5
ATOM      2  C   UNL     1      -0.641   1.241   1.910  0.00  0.00    +0.000 C 
ATOM      3  C   UNL     1      -0.659   1.198   0.385  0.00  0.00    +0.000 C 
ATOM      4  C   UNL     1       0.740   0.983  -0.192  0.00  0.00    +0.000 C 
ATOM      5  C   UNL     1       1.411  -0.277   0.390  0.00  0.00    +0.000 C 
ATOM      6  C   UNL     1       1.427  -0.201   1.930  0.00  0.00    +0.000 C 
ATOM      7  C   UNL     1       0.022  -0.000   2.496  0.00  0.00    +0.000 C 
ENDBRANCH   1   5
BRANCH   1   8
ATOM      8  C   UNL     1       3.302  -1.943   0.022  0.00  0.00    +0.000 C 
ATOM      9  O   UNL     1       2.616  -2.841   0.502  0.00  0.00    +0.000 OA
ENDBRANCH   1   8
BRANCH   1  10
ATOM     10  C   UNL     1       3.886   0.485   0.223  0.00  0.00    +0.000 C 
BRANCH  10  11
ATOM     11  C   UNL     1       5.203   0.418  -0.524  0.00  0.00    +0.000 A 
ATOM     12  C   UNL     1       5.258   0.502  -1.922  0.00  0.00    +0.000 A 
ATOM     13  C   UNL     1       6.485   0.449  -2.588  0.00  0.00    +0.000 A 
ATOM     14  C   UNL     1       7.670   0.331  -1.864  0.00  0.00    +0.000 A 
ATOM     15  C   UNL     1       7.630   0.270  -0.473  0.00  0.00    +0.000 A 
ATOM     16  C   UNL     1       6.404   0.315   0.193  0.00  0.00    +0.000 A 
ENDBRANCH  10  11
ENDBRANCH   1  10
TORSDOF 4
