REMARK  Name = *****
REMARK  4 active torsions:
REMARK  status: ('A' for Active; 'I' for Inactive)
REMARK    1  A    between atoms: C_5  and  C_7
REMARK    2  A    between atoms: C_7  and  C_9
REMARK    3  A    between atoms: C_9  and  C_10
REMARK    4  A    between atoms: C_10  and  C_11
REMARK                            x       y       z     vdW  Elec       q    Type
REMARK                         _______ _______ _______ _____ _____    ______ ____
ROOT
ATOM      1  C   UNL     1       0.880  -2.468   0.035  0.00  0.00    +0.000 C 
ATOM      2  O   UNL     1       0.228  -3.512   0.058  0.00  0.00    +0.000 OA
ENDROOT
BRANCH   1   7
ATOM      3  C   UNL     1      -1.994  -0.010  -0.016  0.00  0.00    +0.000 A 
ATOM      4  C   UNL     1      -1.338   1.219  -0.027  0.00  0.00    +0.000 A 
ATOM      5  C   UNL     1       0.054   1.259  -0.018  0.00  0.00    +0.000 A 
ATOM      6  C   UNL     1       0.788   0.073   0.002  0.00  0.00    +0.000 A 
ATOM      7  C   UNL     1       0.148  -1.168   0.013  0.00  0.00    +0.000 A 
ATOM      8  C   UNL     1      -1.256  -1.197   0.004  0.00  0.00    +0.000 A 
ATOM      9  F   UNL     1       2.124   0.174   0.012  0.00  0.00    +0.000 F 
ENDBRANCH   1   7
BRANCH   1  10
ATOM     10  C   UNL     1       2.397  -2.474   0.028  0.00  0.00    +0.000 C 
BRANCH  10  11
ATOM     11  C   UNL     1       2.956  -3.898   0.037  0.00  0.00    +0.000 C 
BRANCH  11  12
ATOM     12  C   UNL     1       4.466  -3.898   0.024  0.00  0.00    +0.000 A 
ATOM     13  C   UNL     1       5.186  -3.873   1.228  0.00  0.00    +0.000 A 
ATOM     14  C   UNL     1       6.581  -3.850   1.214  0.00  0.00    +0.000 A 
ATOM     15  C   UNL     1       7.254  -3.848  -0.002  0.00  0.00    +0.000 A 
ATOM     16  C   UNL     1       6.559  -3.868  -1.205  0.00  0.00    +0.000 A 
ATOM     17  C   UNL     1       5.164  -3.891  -1.194  0.00  0.00    +0.000 A 
ATOM     18  F   UNL     1       8.594  -3.825  -0.014  0.00  0.00    +0.000 F 
ENDBRANCH  11  12
ENDBRANCH  10  11
ENDBRANCH   1  10
TORSDOF 4
