REMARK  Name = *****
REMARK  4 active torsions:
REMARK  status: ('A' for Active; 'I' for Inactive)
REMARK    1  A    between atoms: C_1  and  C_2
REMARK    2  A    between atoms: C_5  and  S_8
REMARK    3  A    between atoms: S_8  and  O_10
REMARK    4  A    between atoms: O_10  and  C_11
REMARK                            x       y       z     vdW  Elec       q    Type
REMARK                         _______ _______ _______ _____ _____    ______ ____
ROOT
ATOM      1  S   UNL     1      -5.152   2.853   1.950  0.00  0.00    +0.000 S 
ATOM      2  O   UNL     1      -3.735   2.367   1.876  0.00  0.00    +0.000 OA
ENDROOT
BRANCH   1   7
ATOM      3  C   UNL     1      -7.250   1.284   7.487  0.00  0.00    +0.000 C 
ATOM      4  C   UNL     1      -6.727   1.692   6.141  0.00  0.00    +0.000 A 
ATOM      5  C   UNL     1      -7.594   2.215   5.174  0.00  0.00    +0.000 A 
ATOM      6  C   UNL     1      -7.115   2.562   3.908  0.00  0.00    +0.000 A 
ATOM      7  C   UNL     1      -5.765   2.376   3.586  0.00  0.00    +0.000 A 
ATOM      8  C   UNL     1      -4.901   1.845   4.549  0.00  0.00    +0.000 A 
ATOM      9  C   UNL     1      -5.380   1.498   5.814  0.00  0.00    +0.000 A 
ENDBRANCH   1   7
BRANCH   1  10
ATOM     10  O   UNL     1      -6.082   1.775   1.194  0.00  0.00    +0.000 OA
BRANCH  10  11
ATOM     11  C   UNL     1      -5.725   1.491  -0.150  0.00  0.00    +0.000 C 
ATOM     12  C   UNL     1      -6.457   0.221  -0.629  0.00  0.00    +0.000 C 
ATOM     13  C   UNL     1      -7.218   0.707  -1.877  0.00  0.00    +0.000 C 
ATOM     14  C   UNL     1      -8.399   1.580  -1.423  0.00  0.00    +0.000 C 
ATOM     15  C   UNL     1      -7.711   2.864  -0.936  0.00  0.00    +0.000 C 
ATOM     16  C   UNL     1      -6.218   2.557  -1.157  0.00  0.00    +0.000 C 
ATOM     17  C   UNL     1      -6.258   1.748  -2.453  0.00  0.00    +0.000 C 
ENDBRANCH  10  11
ENDBRANCH   1  10
TORSDOF 3
