REMARK  Name = *****
REMARK  6 active torsions:
REMARK  status: ('A' for Active; 'I' for Inactive)
REMARK    1  A    between atoms: C_1  and  C_2
REMARK    2  A    between atoms: C_4  and  C_16
REMARK    3  A    between atoms: C_6  and  C_7
REMARK    4  A    between atoms: C_6  and  C_8
REMARK    5  A    between atoms: C_8  and  C_9
REMARK    6  A    between atoms: C_10  and  C_11
REMARK                            x       y       z     vdW  Elec       q    Type
REMARK                         _______ _______ _______ _____ _____    ______ ____
ROOT
ATOM      1  C   UNL     1       1.025   0.290  -0.060  0.00  0.00    +0.000 C 
ATOM      2  C   UNL     1       2.513   0.272  -0.014  0.00  0.00    +0.000 C 
ATOM      3  C   UNL     1       3.307   1.343  -0.063  0.00  0.00    +0.000 C 
ATOM      4  C   UNL     1       4.643   0.760   0.035  0.00  0.00    +0.000 C 
ATOM      5  N   UNL     1       4.725  -0.534   0.137  0.00  0.00    +0.000 NA
ATOM      6  C   UNL     1       3.309  -1.009   0.108  0.00  0.00    +0.000 C 
ATOM      7  C   UNL     1       3.025  -1.730   1.431  0.00  0.00    +0.000 C 
ATOM      8  C   UNL     1       5.860   1.629   0.013  0.00  0.00    +0.000 C 
ENDROOT
BRANCH   6   9
ATOM      9  C   UNL     1       3.115  -1.933  -1.124  0.00  0.00    +0.000 C 
BRANCH   9  10
ATOM     10  C   UNL     1       3.989  -3.164  -1.119  0.00  0.00    +0.000 C 
ATOM     11  C   UNL     1       3.522  -4.416  -1.244  0.00  0.00    +0.000 C 
BRANCH  11  12
ATOM     12  C   UNL     1       4.380  -5.555  -1.222  0.00  0.00    +0.000 A 
ATOM     13  C   UNL     1       5.704  -5.688  -0.832  0.00  0.00    +0.000 A 
ATOM     14  C   UNL     1       6.202  -7.017  -0.963  0.00  0.00    +0.000 A 
ATOM     15  C   UNL     1       5.245  -7.876  -1.449  0.00  0.00    +0.000 A 
ATOM     16  S   UNL     1       3.760  -7.084  -1.732  0.00  0.00    +0.000 S 
ENDBRANCH  11  12
ENDBRANCH   9  10
ENDBRANCH   6   9
TORSDOF 3
