REMARK  Name = *****
REMARK  4 active torsions:
REMARK  status: ('A' for Active; 'I' for Inactive)
REMARK    1  A    between atoms: C_4  and  C_7
REMARK    2  A    between atoms: C_7  and  O_9
REMARK    3  A    between atoms: O_9  and  C_10
REMARK    4  A    between atoms: C_10  and  C_11
REMARK                            x       y       z     vdW  Elec       q    Type
REMARK                         _______ _______ _______ _____ _____    ______ ____
ROOT
ATOM      1  O   UNL     1       3.849   0.084   0.042  0.00  0.00    +0.000 OA
ENDROOT
BRANCH   1   2
ATOM      2  C   UNL     1       2.854  -0.558  -0.632  0.00  0.00    +0.000 C 
ATOM      3  O   UNL     1       3.007  -1.240  -1.636  0.00  0.00    +0.000 OA
BRANCH   2   7
ATOM      4  C   UNL     1      -1.360   0.369  -0.101  0.00  0.00    +0.000 C 
ATOM      5  C   UNL     1      -0.885  -1.035   0.263  0.00  0.00    +0.000 C 
ATOM      6  C   UNL     1       0.480  -1.339  -0.349  0.00  0.00    +0.000 C 
ATOM      7  C   UNL     1       1.521  -0.283   0.041  0.00  0.00    +0.000 C 
ATOM      8  C   UNL     1       1.041   1.126  -0.322  0.00  0.00    +0.000 C 
ATOM      9  C   UNL     1      -0.329   1.427   0.279  0.00  0.00    +0.000 C 
ENDBRANCH   2   7
ENDBRANCH   1   2
BRANCH   1  10
ATOM     10  C   UNL     1       5.157  -0.026  -0.528  0.00  0.00    +0.000 C 
BRANCH  10  11
ATOM     11  C   UNL     1       5.434   1.191  -1.374  0.00  0.00    +0.000 A 
ATOM     12  C   UNL     1       5.877   2.383  -0.782  0.00  0.00    +0.000 A 
ATOM     13  C   UNL     1       6.108   3.517  -1.564  0.00  0.00    +0.000 A 
ATOM     14  C   UNL     1       5.889   3.467  -2.939  0.00  0.00    +0.000 A 
ATOM     15  C   UNL     1       5.436   2.294  -3.539  0.00  0.00    +0.000 A 
ATOM     16  C   UNL     1       5.206   1.160  -2.757  0.00  0.00    +0.000 A 
ATOM     17 CL   UNL     1       6.171   4.866  -3.900  0.00  0.00    +0.000 Cl
ENDBRANCH  10  11
ENDBRANCH   1  10
TORSDOF 4
