REMARK  Name = *****
REMARK  3 active torsions:
REMARK  status: ('A' for Active; 'I' for Inactive)
REMARK    1  A    between atoms: C_6  and  O_7
REMARK    2  A    between atoms: O_7  and  C_8
REMARK    3  A    between atoms: C_8  and  C_10
REMARK                            x       y       z     vdW  Elec       q    Type
REMARK                         _______ _______ _______ _____ _____    ______ ____
ROOT
ATOM      1  C   UNL     1       4.492   1.415   0.242  0.00  0.00    +0.000 C 
ATOM      2  O   UNL     1       3.968   2.444   0.633  0.00  0.00    +0.000 OA
ENDROOT
BRANCH   1   3
ATOM      3  C   UNL     1       5.966   1.258   0.157  0.00  0.00    +0.000 A 
ATOM      4  C   UNL     1       6.592   0.196  -0.501  0.00  0.00    +0.000 A 
ATOM      5  C   UNL     1       7.982   0.094  -0.541  0.00  0.00    +0.000 A 
ATOM      6  C   UNL     1       8.761   1.066   0.079  0.00  0.00    +0.000 A 
ATOM      7  C   UNL     1       8.160   2.140   0.732  0.00  0.00    +0.000 A 
ATOM      8  C   UNL     1       6.765   2.238   0.770  0.00  0.00    +0.000 A 
ATOM      9 CL   UNL     1      10.475   0.943   0.035  0.00  0.00    +0.000 Cl
ATOM     10  F   UNL     1       5.886  -0.755  -1.129  0.00  0.00    +0.000 F 
ENDBRANCH   1   3
BRANCH   1  11
ATOM     11  O   UNL     1       3.858   0.242  -0.114  0.00  0.00    +0.000 OA
BRANCH  11  17
ATOM     12  C   UNL     1       1.650   1.159  -0.663  0.00  0.00    +0.000 A 
ATOM     13  C   UNL     1       0.262   1.018  -0.617  0.00  0.00    +0.000 A 
ATOM     14  C   UNL     1      -0.303  -0.092   0.012  0.00  0.00    +0.000 A 
ATOM     15  C   UNL     1       0.507  -1.068   0.593  0.00  0.00    +0.000 A 
ATOM     16  C   UNL     1       1.895  -0.930   0.551  0.00  0.00    +0.000 A 
ATOM     17  C   UNL     1       2.455   0.193  -0.060  0.00  0.00    +0.000 A 
ATOM     18 CL   UNL     1      -2.015  -0.265   0.063  0.00  0.00    +0.000 Cl
ENDBRANCH  11  17
ENDBRANCH   1  11
TORSDOF 3
