REMARK  Name = *****
REMARK  4 active torsions:
REMARK  status: ('A' for Active; 'I' for Inactive)
REMARK    1  A    between atoms: C_4  and  C_7
REMARK    2  A    between atoms: C_7  and  C_8
REMARK    3  A    between atoms: C_8  and  C_9
REMARK    4  A    between atoms: C_8  and  C_11
REMARK                            x       y       z     vdW  Elec       q    Type
REMARK                         _______ _______ _______ _____ _____    ______ ____
ROOT
ATOM      1  C   UNL     1      -3.838  -0.943  -0.174  0.00  0.00    +0.000 C 
ENDROOT
BRANCH   1   2
ATOM      2  C   UNL     1      -5.291  -0.478  -0.233  0.00  0.00    +0.000 A 
ATOM      3  C   UNL     1      -5.741   0.675   0.429  0.00  0.00    +0.000 A 
ATOM      4  C   UNL     1      -7.083   1.059   0.360  0.00  0.00    +0.000 A 
ATOM      5  C   UNL     1      -7.993   0.296  -0.366  0.00  0.00    +0.000 A 
ATOM      6  C   UNL     1      -7.565  -0.855  -1.022  0.00  0.00    +0.000 A 
ATOM      7  C   UNL     1      -6.225  -1.241  -0.953  0.00  0.00    +0.000 A 
ENDBRANCH   1   2
BRANCH   1   8
ATOM      8  C   UNL     1      -2.835   0.224  -0.228  0.00  0.00    +0.000 C 
ATOM      9 CL   UNL     1      -1.168  -0.337  -0.540  0.00  0.00    +0.000 Cl
ENDBRANCH   1   8
BRANCH   1  10
ATOM     10  C   UNL     1      -3.595  -1.945   0.983  0.00  0.00    +0.000 C 
BRANCH  10  14
ATOM     11  C   UNL     1      -3.718  -0.320   4.983  0.00  0.00    +0.000 A 
ATOM     12  C   UNL     1      -4.891  -0.751   4.368  0.00  0.00    +0.000 A 
ATOM     13  C   UNL     1      -4.851  -1.281   3.078  0.00  0.00    +0.000 A 
ATOM     14  C   UNL     1      -3.637  -1.379   2.384  0.00  0.00    +0.000 A 
ATOM     15  C   UNL     1      -2.461  -0.952   3.018  0.00  0.00    +0.000 A 
ATOM     16  C   UNL     1      -2.503  -0.423   4.309  0.00  0.00    +0.000 A 
ENDBRANCH  10  14
ENDBRANCH   1  10
TORSDOF 4
