REMARK  Name = *****
REMARK  3 active torsions:
REMARK  status: ('A' for Active; 'I' for Inactive)
REMARK    1  A    between atoms: C_6  and  O_7
REMARK    2  A    between atoms: O_7  and  C_8
REMARK    3  A    between atoms: C_8  and  C_9
REMARK                            x       y       z     vdW  Elec       q    Type
REMARK                         _______ _______ _______ _____ _____    ______ ____
ROOT
ATOM      1  C   UNL     1      -4.055   1.260   0.004  0.00  0.00    +0.000 C 
ENDROOT
BRANCH   1   2
ATOM      2  C   UNL     1      -5.533   0.946  -0.007  0.00  0.00    +0.000 A 
ATOM      3  C   UNL     1      -6.090   0.208  -1.063  0.00  0.00    +0.000 A 
ATOM      4  C   UNL     1      -7.459  -0.082  -1.090  0.00  0.00    +0.000 A 
ATOM      5  C   UNL     1      -8.285   0.369  -0.057  0.00  0.00    +0.000 A 
ATOM      6  C   UNL     1      -7.738   1.105   0.998  0.00  0.00    +0.000 A 
ATOM      7  C   UNL     1      -6.371   1.393   1.023  0.00  0.00    +0.000 A 
ATOM      8 CL   UNL     1      -9.984   0.054  -0.021  0.00  0.00    +0.000 Cl
ATOM      9 CL   UNL     1      -8.061  -0.997  -2.427  0.00  0.00    +0.000 Cl
ENDBRANCH   1   2
BRANCH   1  10
ATOM     10  O   UNL     1      -3.335   0.029   0.007  0.00  0.00    +0.000 OA
BRANCH  10  16
ATOM     11  C   UNL     1      -1.210   1.276  -0.031  0.00  0.00    +0.000 A 
ATOM     12  C   UNL     1       0.187   1.203  -0.048  0.00  0.00    +0.000 A 
ATOM     13  C   UNL     1       0.814  -0.038  -0.047  0.00  0.00    +0.000 A 
ATOM     14  C   UNL     1       0.072  -1.210  -0.028  0.00  0.00    +0.000 A 
ATOM     15  C   UNL     1      -1.322  -1.137  -0.010  0.00  0.00    +0.000 A 
ATOM     16  C   UNL     1      -1.970   0.104  -0.012  0.00  0.00    +0.000 A 
ATOM     17  F   UNL     1       2.151  -0.101  -0.063  0.00  0.00    +0.000 F 
ENDBRANCH  10  16
ENDBRANCH   1  10
TORSDOF 3
