REMARK  Name = *****
REMARK  2 active torsions:
REMARK  status: ('A' for Active; 'I' for Inactive)
REMARK    1  A    between atoms: C_1  and  C_2
REMARK    2  A    between atoms: C_3  and  C_13
REMARK                            x       y       z     vdW  Elec       q    Type
REMARK                         _______ _______ _______ _____ _____    ______ ____
ROOT
ATOM      1  C   UNL     1       0.884   0.032   0.117  0.00  0.00    +0.000 C 
ATOM      2  C   UNL     1       2.381  -0.097  -0.083  0.00  0.00    +0.000 A 
ATOM      3  C   UNL     1       2.987  -1.296  -0.227  0.00  0.00    +0.000 A 
ATOM      4  S   UNL     1       4.688  -1.515  -0.453  0.00  0.00    +0.000 S 
ATOM      5  C   UNL     1       5.349  -0.045   0.211  0.00  0.00    +0.000 A 
ATOM      6  O   UNL     1       6.467  -0.030   0.712  0.00  0.00    +0.000 OA
ATOM      7  C   UNL     1       4.559   1.194   0.070  0.00  0.00    +0.000 A 
ATOM      8  C   UNL     1       5.268   2.410   0.117  0.00  0.00    +0.000 A 
ATOM      9  C   UNL     1       4.603   3.623  -0.033  0.00  0.00    +0.000 A 
ATOM     10  C   UNL     1       3.229   3.626  -0.228  0.00  0.00    +0.000 A 
ATOM     11  C   UNL     1       2.521   2.420  -0.262  0.00  0.00    +0.000 A 
ATOM     12  C   UNL     1       3.164   1.175  -0.105  0.00  0.00    +0.000 A 
ENDROOT
BRANCH   3  13
ATOM     13  C   UNL     1       2.245  -2.571  -0.242  0.00  0.00    +0.000 A 
ATOM     14  C   UNL     1       1.689  -3.054  -1.435  0.00  0.00    +0.000 A 
ATOM     15  C   UNL     1       0.971  -4.252  -1.444  0.00  0.00    +0.000 A 
ATOM     16  C   UNL     1       0.802  -4.973  -0.263  0.00  0.00    +0.000 A 
ATOM     17  C   UNL     1       1.350  -4.500   0.929  0.00  0.00    +0.000 A 
ATOM     18  C   UNL     1       2.069  -3.303   0.941  0.00  0.00    +0.000 A 
ENDBRANCH   3  13
TORSDOF 1
