REMARK  Name = *****
REMARK  4 active torsions:
REMARK  status: ('A' for Active; 'I' for Inactive)
REMARK    1  A    between atoms: C_3  and  C_16
REMARK    2  A    between atoms: C_5  and  O_7
REMARK    3  A    between atoms: O_7  and  C_8
REMARK    4  A    between atoms: C_8  and  C_9
REMARK                            x       y       z     vdW  Elec       q    Type
REMARK                         _______ _______ _______ _____ _____    ______ ____
ROOT
ATOM      1  C   UNL     1       1.316  -0.165  -0.267  0.00  0.00    +0.000 A 
ATOM      2  C   UNL     1       0.549  -1.312  -0.061  0.00  0.00    +0.000 A 
ATOM      3  C   UNL     1      -0.817  -1.199   0.230  0.00  0.00    +0.000 A 
ATOM      4  C   UNL     1      -1.404   0.078   0.311  0.00  0.00    +0.000 A 
ATOM      5  C   UNL     1      -0.636   1.225   0.106  0.00  0.00    +0.000 A 
ATOM      6  C   UNL     1       0.723   1.094  -0.183  0.00  0.00    +0.000 A 
ENDROOT
BRANCH   3   7
ATOM      7  C   UNL     1      -1.681  -2.404   0.458  0.00  0.00    +0.000 C 
ATOM      8  O   UNL     1      -2.872  -2.204   0.694  0.00  0.00    +0.000 OA
ATOM      9 CL   UNL     1      -0.985  -4.009   0.383  0.00  0.00    +0.000 Cl
ENDBRANCH   3   7
BRANCH   5  10
ATOM     10  O   UNL     1      -1.084   2.515   0.158  0.00  0.00    +0.000 OA
BRANCH  10  11
ATOM     11  C   UNL     1      -2.466   2.719   0.454  0.00  0.00    +0.000 C 
BRANCH  11  12
ATOM     12  C   UNL     1      -2.731   4.206   0.502  0.00  0.00    +0.000 A 
ATOM     13  C   UNL     1      -3.657   4.798  -0.371  0.00  0.00    +0.000 A 
ATOM     14  C   UNL     1      -3.905   6.171  -0.310  0.00  0.00    +0.000 A 
ATOM     15  C   UNL     1      -3.230   6.950   0.622  0.00  0.00    +0.000 A 
ATOM     16  C   UNL     1      -2.310   6.384   1.495  0.00  0.00    +0.000 A 
ATOM     17  C   UNL     1      -2.060   5.013   1.437  0.00  0.00    +0.000 A 
ATOM     18  F   UNL     1      -3.470   8.267   0.678  0.00  0.00    +0.000 F 
ENDBRANCH  11  12
ENDBRANCH  10  11
ENDBRANCH   5  10
TORSDOF 4
