REMARK  Name = *****
REMARK  4 active torsions:
REMARK  status: ('A' for Active; 'I' for Inactive)
REMARK    1  A    between atoms: C_1  and  O_2
REMARK    2  A    between atoms: O_2  and  C_3
REMARK    3  A    between atoms: C_3  and  C_10
REMARK    4  A    between atoms: C_11  and  C_12
REMARK                            x       y       z     vdW  Elec       q    Type
REMARK                         _______ _______ _______ _____ _____    ______ ____
ROOT
ATOM      1  C   UNL     1       2.810  -0.444   1.102  0.00  0.00    +0.000 C 
ATOM      2  C   UNL     1       2.446  -0.133   2.545  0.00  0.00    +0.000 C 
ATOM      3  C   UNL     1       1.914  -1.392   1.912  0.00  0.00    +0.000 C 
ATOM      4  C   UNL     1       2.351  -2.735   2.420  0.00  0.00    +0.000 C 
ATOM      5  C   UNL     1       2.853  -2.674   3.859  0.00  0.00    +0.000 C 
ATOM      6  C   UNL     1       3.928  -1.605   4.013  0.00  0.00    +0.000 C 
ATOM      7  C   UNL     1       3.373  -0.213   3.723  0.00  0.00    +0.000 C 
ENDROOT
BRANCH   1   9
ATOM      8  C   UNL     1       2.536   1.591  -0.167  0.00  0.00    +0.000 C 
ATOM      9  O   UNL     1       2.028   0.294   0.119  0.00  0.00    +0.000 OA
ENDBRANCH   1   9
BRANCH   1  10
ATOM     10  C   UNL     1       4.171  -0.893   0.745  0.00  0.00    +0.000 C 
ATOM     11  C   UNL     1       5.307  -0.192   0.904  0.00  0.00    +0.000 C 
BRANCH  11  12
ATOM     12  C   UNL     1       6.637  -0.675   0.514  0.00  0.00    +0.000 A 
ATOM     13  C   UNL     1       6.857  -1.368  -0.683  0.00  0.00    +0.000 A 
ATOM     14  C   UNL     1       8.144  -1.785  -1.036  0.00  0.00    +0.000 A 
ATOM     15  C   UNL     1       9.223  -1.504  -0.201  0.00  0.00    +0.000 A 
ATOM     16  C   UNL     1       9.018  -0.802   0.985  0.00  0.00    +0.000 A 
ATOM     17  C   UNL     1       7.732  -0.384   1.338  0.00  0.00    +0.000 A 
ENDBRANCH  11  12
ENDBRANCH   1  10
TORSDOF 3
