REMARK  Name = *****
REMARK  3 active torsions:
REMARK  status: ('A' for Active; 'I' for Inactive)
REMARK    1  A    between atoms: C_4  and  S_7
REMARK    2  A    between atoms: S_7  and  C_9
REMARK    3  A    between atoms: C_10  and  C_11
REMARK                            x       y       z     vdW  Elec       q    Type
REMARK                         _______ _______ _______ _____ _____    ______ ____
ROOT
ATOM      1  C   UNL     1      -3.623  -1.074  -0.741  0.00  0.00    +0.000 C 
ATOM      2  C   UNL     1      -4.962  -1.070  -0.646  0.00  0.00    +0.000 C 
ENDROOT
BRANCH   2   3
ATOM      3  C   UNL     1      -5.835   0.098  -0.510  0.00  0.00    +0.000 A 
ATOM      4  C   UNL     1      -5.975   1.023  -1.552  0.00  0.00    +0.000 A 
ATOM      5  C   UNL     1      -6.815   2.129  -1.403  0.00  0.00    +0.000 A 
ATOM      6  C   UNL     1      -7.524   2.306  -0.216  0.00  0.00    +0.000 A 
ATOM      7  C   UNL     1      -7.402   1.384   0.822  0.00  0.00    +0.000 A 
ATOM      8  C   UNL     1      -6.561   0.278   0.673  0.00  0.00    +0.000 A 
ATOM      9 CL   UNL     1      -8.556   3.669  -0.030  0.00  0.00    +0.000 Cl
ENDBRANCH   2   3
BRANCH   1  10
ATOM     10  S   UNL     1      -2.649   0.426  -0.704  0.00  0.00    +0.000 S 
ATOM     11  O   UNL     1      -1.304  -0.001  -1.216  0.00  0.00    +0.000 OA
BRANCH  10  15
ATOM     12  C   UNL     1      -2.151   0.861   3.856  0.00  0.00    +0.000 A 
ATOM     13  C   UNL     1      -1.323  -0.011   3.151  0.00  0.00    +0.000 A 
ATOM     14  C   UNL     1      -1.466  -0.147   1.769  0.00  0.00    +0.000 A 
ATOM     15  C   UNL     1      -2.442   0.588   1.087  0.00  0.00    +0.000 A 
ATOM     16  C   UNL     1      -3.263   1.471   1.798  0.00  0.00    +0.000 A 
ATOM     17  C   UNL     1      -3.119   1.604   3.180  0.00  0.00    +0.000 A 
ENDBRANCH  10  15
ENDBRANCH   1  10
TORSDOF 3
