REMARK  Name = *****
REMARK  3 active torsions:
REMARK  status: ('A' for Active; 'I' for Inactive)
REMARK    1  A    between atoms: C_1  and  C_2
REMARK    2  A    between atoms: C_7  and  C_9
REMARK    3  A    between atoms: C_10  and  C_11
REMARK                            x       y       z     vdW  Elec       q    Type
REMARK                         _______ _______ _______ _____ _____    ______ ____
ROOT
ATOM      1  C   UNL     1       5.003  -1.832   1.213  0.00  0.00    +0.000 C 
ATOM      2  C   UNL     1       5.758  -1.207   2.132  0.00  0.00    +0.000 C 
ENDROOT
BRANCH   1   9
ATOM      3  C   UNL     1       0.997  -0.280   0.603  0.00  0.00    +0.000 C 
ATOM      4  C   UNL     1       2.443  -0.145   0.241  0.00  0.00    +0.000 C 
ATOM      5  C   UNL     1       3.147   0.975   0.460  0.00  0.00    +0.000 C 
ATOM      6  C   UNL     1       4.549   1.115   0.028  0.00  0.00    +0.000 C 
ATOM      7  O   UNL     1       5.097   2.211   0.049  0.00  0.00    +0.000 OA
ATOM      8  O   UNL     1       5.185  -0.002  -0.402  0.00  0.00    +0.000 OA
ATOM      9  C   UNL     1       4.623  -1.305  -0.155  0.00  0.00    +0.000 C 
ATOM     10  C   UNL     1       3.109  -1.324  -0.406  0.00  0.00    +0.000 C 
ENDBRANCH   1   9
BRANCH   2  11
ATOM     11  C   UNL     1       6.066  -1.806   3.437  0.00  0.00    +0.000 A 
ATOM     12  C   UNL     1       5.105  -2.057   4.434  0.00  0.00    +0.000 A 
ATOM     13  C   UNL     1       5.480  -2.628   5.654  0.00  0.00    +0.000 A 
ATOM     14  C   UNL     1       6.816  -2.943   5.887  0.00  0.00    +0.000 A 
ATOM     15  C   UNL     1       7.782  -2.691   4.916  0.00  0.00    +0.000 A 
ATOM     16  C   UNL     1       7.408  -2.122   3.696  0.00  0.00    +0.000 A 
ATOM     17 CL   UNL     1       7.279  -3.645   7.388  0.00  0.00    +0.000 Cl
ATOM     18 CL   UNL     1       3.433  -1.657   4.221  0.00  0.00    +0.000 Cl
ENDBRANCH   2  11
TORSDOF 2
