REMARK  Name = *****
REMARK  5 active torsions:
REMARK  status: ('A' for Active; 'I' for Inactive)
REMARK    1  A    between atoms: C_1  and  O_2
REMARK    2  A    between atoms: O_2  and  C_3
REMARK    3  A    between atoms: C_8  and  S_9
REMARK    4  A    between atoms: S_9  and  C_10
REMARK    5  A    between atoms: C_10  and  C_12
REMARK                            x       y       z     vdW  Elec       q    Type
REMARK                         _______ _______ _______ _____ _____    ______ ____
ROOT
ATOM      1  S   UNL     1       4.844   0.095  -1.683  0.00  0.00    +0.000 S 
ENDROOT
BRANCH   1   7
ATOM      2  C   UNL     1       3.454   1.046   0.574  0.00  0.00    +0.000 A 
ATOM      3  C   UNL     1       3.090   2.061   1.466  0.00  0.00    +0.000 A 
ATOM      4  C   UNL     1       3.526   3.371   1.256  0.00  0.00    +0.000 A 
ATOM      5  C   UNL     1       4.340   3.668   0.166  0.00  0.00    +0.000 A 
ATOM      6  C   UNL     1       4.725   2.656  -0.714  0.00  0.00    +0.000 A 
ATOM      7  C   UNL     1       4.287   1.338  -0.521  0.00  0.00    +0.000 A 
BRANCH   2   9
ATOM      8  C   UNL     1       1.689  -0.412   1.067  0.00  0.00    +0.000 C 
ATOM      9  O   UNL     1       3.079  -0.260   0.781  0.00  0.00    +0.000 OA
ENDBRANCH   2   9
ENDBRANCH   1   7
BRANCH   1  10
ATOM     10  C   UNL     1       3.299  -0.580  -2.192  0.00  0.00    +0.000 C 
ATOM     11  O   UNL     1       2.394   0.147  -2.590  0.00  0.00    +0.000 OA
BRANCH  10  12
ATOM     12  C   UNL     1       3.131  -2.065  -2.178  0.00  0.00    +0.000 A 
ATOM     13  C   UNL     1       4.025  -2.943  -1.549  0.00  0.00    +0.000 A 
ATOM     14  C   UNL     1       3.795  -4.322  -1.571  0.00  0.00    +0.000 A 
ATOM     15  C   UNL     1       2.671  -4.836  -2.215  0.00  0.00    +0.000 A 
ATOM     16  C   UNL     1       1.770  -3.974  -2.836  0.00  0.00    +0.000 A 
ATOM     17  C   UNL     1       1.998  -2.596  -2.816  0.00  0.00    +0.000 A 
ENDBRANCH  10  12
ENDBRANCH   1  10
TORSDOF 4
