REMARK  Name = *****
REMARK  5 active torsions:
REMARK  status: ('A' for Active; 'I' for Inactive)
REMARK    1  A    between atoms: C_1  and  N_2
REMARK    2  A    between atoms: N_2  and  C_3
REMARK    3  A    between atoms: N_2  and  N_17
REMARK    4  A    between atoms: C_8  and  C_9
REMARK    5  A    between atoms: C_10  and  C_11
REMARK                            x       y       z     vdW  Elec       q    Type
REMARK                         _______ _______ _______ _____ _____    ______ ____
ROOT
ATOM      1  C   UNL     1       3.268  -1.032   0.436  0.00  0.00    +0.000 A 
ATOM      2  C   UNL     1       2.945  -2.372   0.126  0.00  0.00    +0.000 A 
ATOM      3  C   UNL     1       3.647  -3.446   0.683  0.00  0.00    +0.000 A 
ATOM      4  C   UNL     1       4.692  -3.210   1.567  0.00  0.00    +0.000 A 
ATOM      5  C   UNL     1       5.036  -1.901   1.895  0.00  0.00    +0.000 A 
ATOM      6  C   UNL     1       4.337  -0.816   1.342  0.00  0.00    +0.000 A 
ENDROOT
BRANCH   1   8
ATOM      7  C   UNL     1       2.148  -0.150  -1.537  0.00  0.00    +0.000 C 
ATOM      8  N   UNL     1       2.519   0.043  -0.130  0.00  0.00    +0.000 N 
BRANCH   8   9
ATOM      9  N   UNL     1       1.995   0.999   0.678  0.00  0.00    +0.000 NA
ATOM     10  O   UNL     1       1.262   1.800   0.087  0.00  0.00    +0.000 OA
ENDBRANCH   8   9
ENDBRANCH   1   8
BRANCH   6  11
ATOM     11  C   UNL     1       4.794   0.499   1.692  0.00  0.00    +0.000 C 
ATOM     12  C   UNL     1       5.173   1.602   1.984  0.00  0.00    +0.000 C 
BRANCH  12  13
ATOM     13  C   UNL     1       5.596   2.925   2.323  0.00  0.00    +0.000 A 
ATOM     14  C   UNL     1       6.779   3.122   3.039  0.00  0.00    +0.000 A 
ATOM     15  C   UNL     1       7.187   4.416   3.370  0.00  0.00    +0.000 A 
ATOM     16  C   UNL     1       6.413   5.512   2.985  0.00  0.00    +0.000 A 
ATOM     17  C   UNL     1       5.232   5.316   2.270  0.00  0.00    +0.000 A 
ATOM     18  C   UNL     1       4.823   4.023   1.939  0.00  0.00    +0.000 A 
ENDBRANCH  12  13
ENDBRANCH   6  11
TORSDOF 4
