REMARK  Name = *****
REMARK  4 active torsions:
REMARK  status: ('A' for Active; 'I' for Inactive)
REMARK    1  A    between atoms: C_1  and  O_2
REMARK    2  A    between atoms: O_2  and  C_3
REMARK    3  A    between atoms: C_6  and  C_8
REMARK    4  A    between atoms: C_9  and  C_10
REMARK                            x       y       z     vdW  Elec       q    Type
REMARK                         _______ _______ _______ _____ _____    ______ ____
ROOT
ATOM      1  C   UNL     1       3.130  -0.871   0.299  0.00  0.00    +0.000 A 
ATOM      2  C   UNL     1       3.060  -2.254   0.313  0.00  0.00    +0.000 A 
ATOM      3  C   UNL     1       4.119  -2.857   1.057  0.00  0.00    +0.000 A 
ATOM      4  C   UNL     1       4.971  -1.918   1.592  0.00  0.00    +0.000 A 
ATOM      5  S   UNL     1       4.490  -0.332   1.200  0.00  0.00    +0.000 S 
ENDROOT
BRANCH   1   7
ATOM      6  C   UNL     1       1.238  -0.434  -1.022  0.00  0.00    +0.000 C 
ATOM      7  O   UNL     1       2.345   0.050  -0.274  0.00  0.00    +0.000 OA
ENDBRANCH   1   7
BRANCH   4   8
ATOM      8  C   UNL     1       6.120  -2.216   2.380  0.00  0.00    +0.000 C 
ATOM      9  C   UNL     1       7.090  -2.467   3.043  0.00  0.00    +0.000 C 
BRANCH   9  10
ATOM     10  C   UNL     1       8.243  -2.760   3.827  0.00  0.00    +0.000 A 
ATOM     11  C   UNL     1       9.104  -1.818   4.347  0.00  0.00    +0.000 A 
ATOM     12  C   UNL     1      10.169  -2.410   5.088  0.00  0.00    +0.000 A 
ATOM     13  C   UNL     1      10.081  -3.785   5.105  0.00  0.00    +0.000 A 
ATOM     14  S   UNL     1       8.721  -4.350   4.233  0.00  0.00    +0.000 S 
ENDBRANCH   9  10
ENDBRANCH   4   8
TORSDOF 3
