REMARK  Name = *****
REMARK  5 active torsions:
REMARK  status: ('A' for Active; 'I' for Inactive)
REMARK    1  A    between atoms: C_1  and  C_2
REMARK    2  A    between atoms: C_5  and  C_8
REMARK    3  A    between atoms: C_8  and  C_10
REMARK    4  A    between atoms: C_10  and  C_11
REMARK    5  A    between atoms: C_11  and  C_12
REMARK                            x       y       z     vdW  Elec       q    Type
REMARK                         _______ _______ _______ _____ _____    ______ ____
ROOT
ATOM      1  C   UNL     1      -3.311  -0.017   0.111  0.00  0.00    +0.000 C 
ATOM      2  O   UNL     1      -3.887  -1.097   0.234  0.00  0.00    +0.000 OA
ENDROOT
BRANCH   1   7
ATOM      3  C   UNL     1       2.500  -0.040   0.078  0.00  0.00    +0.000 C 
ATOM      4  C   UNL     1       1.000  -0.026   0.054  0.00  0.00    +0.000 A 
ATOM      5  C   UNL     1       0.305   1.179  -0.099  0.00  0.00    +0.000 A 
ATOM      6  C   UNL     1      -1.094   1.201  -0.088  0.00  0.00    +0.000 A 
ATOM      7  C   UNL     1      -1.816   0.016   0.088  0.00  0.00    +0.000 A 
ATOM      8  C   UNL     1      -1.120  -1.188   0.256  0.00  0.00    +0.000 A 
ATOM      9  C   UNL     1       0.278  -1.208   0.245  0.00  0.00    +0.000 A 
ENDBRANCH   1   7
BRANCH   1  10
ATOM     10  C   UNL     1      -4.068   1.292  -0.018  0.00  0.00    +0.000 C 
BRANCH  10  11
ATOM     11  C   UNL     1      -5.579   1.082   0.066  0.00  0.00    +0.000 C 
BRANCH  11  12
ATOM     12  C   UNL     1      -6.320   2.393  -0.044  0.00  0.00    +0.000 A 
ATOM     13  C   UNL     1      -6.696   2.893  -1.297  0.00  0.00    +0.000 A 
ATOM     14  C   UNL     1      -7.360   4.117  -1.399  0.00  0.00    +0.000 A 
ATOM     15  C   UNL     1      -7.649   4.852  -0.252  0.00  0.00    +0.000 A 
ATOM     16  C   UNL     1      -7.275   4.365   1.000  0.00  0.00    +0.000 A 
ATOM     17  C   UNL     1      -6.611   3.142   1.104  0.00  0.00    +0.000 A 
ENDBRANCH  11  12
ENDBRANCH  10  11
ENDBRANCH   1  10
TORSDOF 4
