REMARK  Name = *****
REMARK  3 active torsions:
REMARK  status: ('A' for Active; 'I' for Inactive)
REMARK    1  A    between atoms: C_4  and  C_7
REMARK    2  A    between atoms: C_7  and  S_8
REMARK    3  A    between atoms: S_8  and  C_9
REMARK                            x       y       z     vdW  Elec       q    Type
REMARK                         _______ _______ _______ _____ _____    ______ ____
ROOT
ATOM      1  S   UNL     1      -3.773  -1.334  -0.116  0.00  0.00    +0.000 S 
ENDROOT
BRANCH   1   2
ATOM      2  C   UNL     1      -5.437  -0.823  -0.501  0.00  0.00    +0.000 A 
ATOM      3  C   UNL     1      -6.085  -1.401  -1.598  0.00  0.00    +0.000 A 
ATOM      4  C   UNL     1      -7.394  -1.031  -1.922  0.00  0.00    +0.000 A 
ATOM      5  C   UNL     1      -8.059  -0.089  -1.142  0.00  0.00    +0.000 A 
ATOM      6  C   UNL     1      -7.429   0.482  -0.038  0.00  0.00    +0.000 A 
ATOM      7  C   UNL     1      -6.120   0.111   0.285  0.00  0.00    +0.000 A 
ATOM      8 CL   UNL     1      -9.669   0.368  -1.538  0.00  0.00    +0.000 Cl
ENDBRANCH   1   2
BRANCH   1   9
ATOM      9  C   UNL     1      -2.928   0.282  -0.153  0.00  0.00    +0.000 C 
BRANCH   9  13
ATOM     10  C   UNL     1       1.349  -0.194   0.154  0.00  0.00    +0.000 A 
ATOM     11  C   UNL     1       0.743  -0.131  -1.099  0.00  0.00    +0.000 A 
ATOM     12  C   UNL     1      -0.641   0.024  -1.199  0.00  0.00    +0.000 A 
ATOM     13  C   UNL     1      -1.432   0.123  -0.045  0.00  0.00    +0.000 A 
ATOM     14  C   UNL     1      -0.811   0.049   1.210  0.00  0.00    +0.000 A 
ATOM     15  C   UNL     1       0.573  -0.106   1.308  0.00  0.00    +0.000 A 
ENDBRANCH   9  13
ENDBRANCH   1   9
TORSDOF 3
