REMARK  Name = *****
REMARK  2 active torsions:
REMARK  status: ('A' for Active; 'I' for Inactive)
REMARK    1  A    between atoms: C_4  and  C_8
REMARK    2  A    between atoms: C_9  and  C_10
REMARK                            x       y       z     vdW  Elec       q    Type
REMARK                         _______ _______ _______ _____ _____    ______ ____
ROOT
ATOM      1  C   UNL     1       2.534   1.247  -0.030  0.00  0.00    +0.000 C 
ATOM      2  C   UNL     1       3.375   1.997  -0.762  0.00  0.00    +0.000 C 
ENDROOT
BRANCH   1   6
ATOM      3  C   UNL     1      -0.069   0.070   1.346  0.00  0.00    +0.000 C 
ATOM      4  C   UNL     1      -0.121  -1.102   0.363  0.00  0.00    +0.000 C 
ATOM      5  C   UNL     1       1.182  -0.879  -0.438  0.00  0.00    +0.000 C 
ATOM      6  C   UNL     1       1.247   0.678  -0.574  0.00  0.00    +0.000 C 
ATOM      7  C   UNL     1      -0.005   1.126   0.234  0.00  0.00    +0.000 C 
ATOM      8  C   UNL     1      -1.224   0.693  -0.554  0.00  0.00    +0.000 C 
ATOM      9  C   UNL     1      -1.285  -0.645  -0.485  0.00  0.00    +0.000 C 
ENDBRANCH   1   6
BRANCH   2  10
ATOM     10  C   UNL     1       4.628   2.569  -0.251  0.00  0.00    +0.000 A 
ATOM     11  C   UNL     1       5.464   1.872   0.632  0.00  0.00    +0.000 A 
ATOM     12  C   UNL     1       6.665   2.438   1.070  0.00  0.00    +0.000 A 
ATOM     13  C   UNL     1       7.047   3.700   0.622  0.00  0.00    +0.000 A 
ATOM     14  C   UNL     1       6.232   4.396  -0.268  0.00  0.00    +0.000 A 
ATOM     15  C   UNL     1       5.032   3.830  -0.707  0.00  0.00    +0.000 A 
ENDBRANCH   2  10
TORSDOF 2
