REMARK  Name = *****
REMARK  2 active torsions:
REMARK  status: ('A' for Active; 'I' for Inactive)
REMARK    1  A    between atoms: C_4  and  S_7
REMARK    2  A    between atoms: S_7  and  C_8
REMARK                            x       y       z     vdW  Elec       q    Type
REMARK                         _______ _______ _______ _____ _____    ______ ____
ROOT
ATOM      1  C   UNL     1       3.149  -2.697  -0.429  0.00  0.00    +0.000 A 
ATOM      2  N   UNL     1       2.822  -2.975   0.819  0.00  0.00    +0.000 NA
ATOM      3  C   UNL     1       3.472  -4.154   1.075  0.00  0.00    +0.000 A 
ATOM      4  C   UNL     1       3.516  -4.954   2.225  0.00  0.00    +0.000 A 
ATOM      5  C   UNL     1       4.283  -6.128   2.183  0.00  0.00    +0.000 A 
ATOM      6  C   UNL     1       4.987  -6.494   1.028  0.00  0.00    +0.000 A 
ATOM      7  C   UNL     1       4.953  -5.704  -0.127  0.00  0.00    +0.000 A 
ATOM      8  C   UNL     1       4.182  -4.551  -0.044  0.00  0.00    +0.000 A 
ATOM      9  O   UNL     1       3.981  -3.617  -1.016  0.00  0.00    +0.000 OA
ENDROOT
BRANCH   1  10
ATOM     10  S   UNL     1       2.604  -1.288  -1.296  0.00  0.00    +0.000 S 
BRANCH  10  14
ATOM     11  C   UNL     1      -1.292   0.645   0.307  0.00  0.00    +0.000 C 
ATOM     12  C   UNL     1      -1.043  -0.821   0.647  0.00  0.00    +0.000 C 
ATOM     13  C   UNL     1       0.047  -1.429  -0.236  0.00  0.00    +0.000 C 
ATOM     14  C   UNL     1       1.346  -0.615  -0.154  0.00  0.00    +0.000 C 
ATOM     15  C   UNL     1       1.087   0.854  -0.519  0.00  0.00    +0.000 C 
ATOM     16  C   UNL     1      -0.004   1.460   0.364  0.00  0.00    +0.000 C 
ENDBRANCH  10  14
ENDBRANCH   1  10
TORSDOF 2
