REMARK  Name = *****
REMARK  3 active torsions:
REMARK  status: ('A' for Active; 'I' for Inactive)
REMARK    1  A    between atoms: C_4  and  N_7
REMARK    2  A    between atoms: N_7  and  C_8
REMARK    3  A    between atoms: C_8  and  C_10
REMARK                            x       y       z     vdW  Elec       q    Type
REMARK                         _______ _______ _______ _____ _____    ______ ____
ROOT
ATOM      1  C   UNL     1      -3.789  -0.835  -0.201  0.00  0.00    +0.000 C 
ATOM      2  S   UNL     1      -3.694  -2.100  -1.310  0.00  0.00    +0.000 S 
ENDROOT
BRANCH   1   3
ATOM      3  C   UNL     1      -5.122  -0.467   0.393  0.00  0.00    +0.000 A 
ATOM      4  C   UNL     1      -5.991  -1.457   0.879  0.00  0.00    +0.000 A 
ATOM      5  C   UNL     1      -7.228  -1.105   1.429  0.00  0.00    +0.000 A 
ATOM      6  C   UNL     1      -7.608   0.235   1.504  0.00  0.00    +0.000 A 
ATOM      7  C   UNL     1      -6.750   1.226   1.033  0.00  0.00    +0.000 A 
ATOM      8  C   UNL     1      -5.518   0.872   0.485  0.00  0.00    +0.000 A 
ATOM      9  F   UNL     1      -4.709   1.855   0.061  0.00  0.00    +0.000 F 
ENDBRANCH   1   3
BRANCH   1  10
ATOM     10  N   UNL     1      -2.755   0.001   0.212  0.00  0.00    +0.000 N 
ATOM     11  H   UNL     1      -3.061   0.793   0.712  0.00  0.00    +0.000 HD
BRANCH  10  15
ATOM     12  C   UNL     1       1.459   0.010  -0.142  0.00  0.00    +0.000 A 
ATOM     13  C   UNL     1       0.765  -1.168  -0.402  0.00  0.00    +0.000 A 
ATOM     14  C   UNL     1      -0.631  -1.207  -0.298  0.00  0.00    +0.000 A 
ATOM     15  C   UNL     1      -1.350  -0.065   0.054  0.00  0.00    +0.000 A 
ATOM     16  C   UNL     1      -0.636   1.110   0.335  0.00  0.00    +0.000 A 
ATOM     17  C   UNL     1       0.757   1.151   0.231  0.00  0.00    +0.000 A 
ENDBRANCH  10  15
ENDBRANCH   1  10
TORSDOF 3
