REMARK  Name = *****
REMARK  2 active torsions:
REMARK  status: ('A' for Active; 'I' for Inactive)
REMARK    1  A    between atoms: C_4  and  C_7
REMARK    2  A    between atoms: C_8  and  C_9
REMARK                            x       y       z     vdW  Elec       q    Type
REMARK                         _______ _______ _______ _____ _____    ______ ____
ROOT
ATOM      1  C   UNL     1       2.961   0.155  -0.305  0.00  0.00    +0.000 C 
ATOM      2  C   UNL     1       4.156   0.215  -0.415  0.00  0.00    +0.000 C 
ENDROOT
BRANCH   2   3
ATOM      3  C   UNL     1       5.568   0.290  -0.547  0.00  0.00    +0.000 A 
ATOM      4  C   UNL     1       6.323  -0.813  -0.614  0.00  0.00    +0.000 A 
ATOM      5  C   UNL     1       7.743  -0.674  -0.749  0.00  0.00    +0.000 A 
ATOM      6  C   UNL     1       8.313   0.531  -0.808  0.00  0.00    +0.000 A 
ATOM      7  C   UNL     1       7.483   1.742  -0.733  0.00  0.00    +0.000 A 
ATOM      8  O   UNL     1       8.011   2.848  -0.787  0.00  0.00    +0.000 OA
ATOM      9  O   UNL     1       6.133   1.582  -0.605  0.00  0.00    +0.000 OA
ATOM     10 CL   UNL     1       8.698  -2.105  -0.834  0.00  0.00    +0.000 Cl
ENDBRANCH   2   3
BRANCH   1  14
ATOM     11  C   UNL     1      -1.240  -0.044   0.073  0.00  0.00    +0.000 A 
ATOM     12  C   UNL     1      -0.604   1.196   0.008  0.00  0.00    +0.000 A 
ATOM     13  C   UNL     1       0.785   1.262  -0.117  0.00  0.00    +0.000 A 
ATOM     14  C   UNL     1       1.539   0.087  -0.176  0.00  0.00    +0.000 A 
ATOM     15  C   UNL     1       0.900  -1.153  -0.110  0.00  0.00    +0.000 A 
ATOM     16  C   UNL     1      -0.490  -1.218   0.014  0.00  0.00    +0.000 A 
ENDBRANCH   1  14
TORSDOF 2
