REMARK  Name = *****
REMARK  3 active torsions:
REMARK  status: ('A' for Active; 'I' for Inactive)
REMARK    1  A    between atoms: C_6  and  O_7
REMARK    2  A    between atoms: O_7  and  C_8
REMARK    3  A    between atoms: C_8  and  C_10
REMARK                            x       y       z     vdW  Elec       q    Type
REMARK                         _______ _______ _______ _____ _____    ______ ____
ROOT
ATOM      1  O   UNL     1      -1.361   2.456  -0.224  0.00  0.00    +0.000 OA
ENDROOT
BRANCH   1   7
ATOM      2  C   UNL     1       0.715   1.267  -0.189  0.00  0.00    +0.000 C 
ATOM      3  C   UNL     1       1.443  -0.016   0.201  0.00  0.00    +0.000 C 
ATOM      4  C   UNL     1       0.694  -1.250  -0.303  0.00  0.00    +0.000 C 
ATOM      5  C   UNL     1      -0.758  -1.262   0.177  0.00  0.00    +0.000 C 
ATOM      6  C   UNL     1      -1.479   0.026  -0.213  0.00  0.00    +0.000 C 
ATOM      7  C   UNL     1      -0.738   1.267   0.296  0.00  0.00    +0.000 C 
ATOM      8 CL   UNL     1       1.528  -2.731   0.244  0.00  0.00    +0.000 Cl
ENDBRANCH   1   7
BRANCH   1   9
ATOM      9  C   UNL     1      -2.447   2.903   0.455  0.00  0.00    +0.000 C 
ATOM     10  O   UNL     1      -2.933   2.385   1.448  0.00  0.00    +0.000 OA
BRANCH   9  11
ATOM     11  C   UNL     1      -2.991   4.134  -0.181  0.00  0.00    +0.000 A 
ATOM     12  C   UNL     1      -4.138   4.715   0.378  0.00  0.00    +0.000 A 
ATOM     13  C   UNL     1      -4.686   5.872  -0.181  0.00  0.00    +0.000 A 
ATOM     14  C   UNL     1      -4.092   6.454  -1.300  0.00  0.00    +0.000 A 
ATOM     15  C   UNL     1      -2.951   5.883  -1.862  0.00  0.00    +0.000 A 
ATOM     16  C   UNL     1      -2.399   4.726  -1.306  0.00  0.00    +0.000 A 
ENDBRANCH   9  11
ENDBRANCH   1   9
TORSDOF 3
