REMARK  Name = *****
REMARK  4 active torsions:
REMARK  status: ('A' for Active; 'I' for Inactive)
REMARK    1  A    between atoms: C_3  and  C_9
REMARK    2  A    between atoms: C_6  and  C_7
REMARK    3  A    between atoms: C_9  and  S_11
REMARK    4  A    between atoms: S_11  and  C_12
REMARK                            x       y       z     vdW  Elec       q    Type
REMARK                         _______ _______ _______ _____ _____    ______ ____
ROOT
ATOM      1  C   UNL     1       4.037  -0.079  -0.083  0.00  0.00    +0.000 C 
ATOM      2  O   UNL     1       4.595   1.011  -0.137  0.00  0.00    +0.000 OA
ENDROOT
BRANCH   1   5
ATOM      3  C   UNL     1       0.423   1.033  -0.011  0.00  0.00    +0.000 A 
ATOM      4  C   UNL     1       1.821   1.034  -0.069  0.00  0.00    +0.000 A 
ATOM      5  C   UNL     1       2.545  -0.169  -0.018  0.00  0.00    +0.000 A 
ATOM      6  C   UNL     1       1.838  -1.376   0.097  0.00  0.00    +0.000 A 
ATOM      7  C   UNL     1       0.438  -1.376   0.156  0.00  0.00    +0.000 A 
ATOM      8  C   UNL     1      -0.273  -0.173   0.101  0.00  0.00    +0.000 A 
BRANCH   8   9
ATOM      9  C   UNL     1      -1.706  -0.178   0.161  0.00  0.00    +0.000 C 
ATOM     10  N   UNL     1      -2.865  -0.187   0.209  0.00  0.00    +0.000 NA
ENDBRANCH   8   9
ENDBRANCH   1   5
BRANCH   1  11
ATOM     11  S   UNL     1       4.977  -1.566  -0.115  0.00  0.00    +0.000 S 
BRANCH  11  12
ATOM     12  C   UNL     1       5.640  -1.570   1.539  0.00  0.00    +0.000 A 
ATOM     13  C   UNL     1       5.380  -2.661   2.376  0.00  0.00    +0.000 A 
ATOM     14  C   UNL     1       5.899  -2.697   3.674  0.00  0.00    +0.000 A 
ATOM     15  C   UNL     1       6.687  -1.643   4.134  0.00  0.00    +0.000 A 
ATOM     16  C   UNL     1       6.962  -0.557   3.306  0.00  0.00    +0.000 A 
ATOM     17  C   UNL     1       6.443  -0.524   2.008  0.00  0.00    +0.000 A 
ATOM     18 CL   UNL     1       7.325  -1.687   5.730  0.00  0.00    +0.000 Cl
ENDBRANCH  11  12
ENDBRANCH   1  11
TORSDOF 4
