REMARK  Name = *****
REMARK  4 active torsions:
REMARK  status: ('A' for Active; 'I' for Inactive)
REMARK    1  A    between atoms: C_5  and  O_7
REMARK    2  A    between atoms: O_7  and  C_8
REMARK    3  A    between atoms: C_8  and  C_10
REMARK    4  A    between atoms: C_10  and  C_11
REMARK                            x       y       z     vdW  Elec       q    Type
REMARK                         _______ _______ _______ _____ _____    ______ ____
ROOT
ATOM      1  C   UNL     1       2.748  -2.391   0.285  0.00  0.00    +0.000 C 
ATOM      2  O   UNL     1       2.937  -1.341  -0.317  0.00  0.00    +0.000 OA
ENDROOT
BRANCH   1   3
ATOM      3  O   UNL     1       1.725  -2.661   1.189  0.00  0.00    +0.000 OA
BRANCH   3   8
ATOM      4  C   UNL     1      -1.131  -0.352   1.218  0.00  0.00    +0.000 A 
ATOM      5  C   UNL     1      -0.657   0.647   2.076  0.00  0.00    +0.000 A 
ATOM      6  C   UNL     1       0.618   0.544   2.637  0.00  0.00    +0.000 A 
ATOM      7  C   UNL     1       1.413  -0.554   2.333  0.00  0.00    +0.000 A 
ATOM      8  C   UNL     1       0.947  -1.538   1.464  0.00  0.00    +0.000 A 
ATOM      9  C   UNL     1      -0.331  -1.455   0.914  0.00  0.00    +0.000 A 
ATOM     10  F   UNL     1       2.628  -0.666   2.891  0.00  0.00    +0.000 F 
ENDBRANCH   3   8
ENDBRANCH   1   3
BRANCH   1  11
ATOM     11  C   UNL     1       3.590  -3.632   0.105  0.00  0.00    +0.000 C 
BRANCH  11  12
ATOM     12  C   UNL     1       3.029  -4.564  -0.940  0.00  0.00    +0.000 A 
ATOM     13  C   UNL     1       3.193  -4.274  -2.304  0.00  0.00    +0.000 A 
ATOM     14  C   UNL     1       2.661  -5.124  -3.274  0.00  0.00    +0.000 A 
ATOM     15  C   UNL     1       1.964  -6.260  -2.882  0.00  0.00    +0.000 A 
ATOM     16  C   UNL     1       1.785  -6.560  -1.537  0.00  0.00    +0.000 A 
ATOM     17  C   UNL     1       2.315  -5.712  -0.564  0.00  0.00    +0.000 A 
ATOM     18  F   UNL     1       1.453  -7.075  -3.813  0.00  0.00    +0.000 F 
ENDBRANCH  11  12
ENDBRANCH   1  11
TORSDOF 4
