REMARK  Name = *****
REMARK  3 active torsions:
REMARK  status: ('A' for Active; 'I' for Inactive)
REMARK    1  A    between atoms: C_4  and  O_7
REMARK    2  A    between atoms: O_7  and  C_8
REMARK    3  A    between atoms: C_8  and  C_10
REMARK                            x       y       z     vdW  Elec       q    Type
REMARK                         _______ _______ _______ _____ _____    ______ ____
ROOT
ATOM      1  C   UNL     1      -4.972  -0.129  -0.501  0.00  0.00    +0.000 A 
ATOM      2  C   UNL     1      -5.500   0.919   0.249  0.00  0.00    +0.000 A 
ATOM      3  C   UNL     1      -6.792   1.369   0.001  0.00  0.00    +0.000 A 
ATOM      4  C   UNL     1      -7.560   0.772  -0.991  0.00  0.00    +0.000 A 
ATOM      5  C   UNL     1      -7.035  -0.277  -1.736  0.00  0.00    +0.000 A 
ATOM      6  C   UNL     1      -5.744  -0.731  -1.490  0.00  0.00    +0.000 A 
ATOM      7  F   UNL     1      -5.246  -1.729  -2.234  0.00  0.00    +0.000 F 
ATOM      8  F   UNL     1      -7.773  -0.849  -2.698  0.00  0.00    +0.000 F 
ATOM      9  F   UNL     1      -8.803   1.209  -1.231  0.00  0.00    +0.000 F 
ATOM     10  F   UNL     1      -7.298   2.378   0.723  0.00  0.00    +0.000 F 
ATOM     11  F   UNL     1      -4.779   1.493   1.223  0.00  0.00    +0.000 F 
ENDROOT
BRANCH   1  12
ATOM     12  C   UNL     1      -3.626  -0.631  -0.234  0.00  0.00    +0.000 C 
ATOM     13  O   UNL     1      -3.388  -1.801   0.004  0.00  0.00    +0.000 OA
BRANCH  12  14
ATOM     14  O   UNL     1      -2.756   0.433  -0.351  0.00  0.00    +0.000 OA
BRANCH  14  18
ATOM     15  C   UNL     1       1.304  -0.292   0.287  0.00  0.00    +0.000 A 
ATOM     16  C   UNL     1       0.641  -0.983  -0.730  0.00  0.00    +0.000 A 
ATOM     17  C   UNL     1      -0.719  -0.764  -0.950  0.00  0.00    +0.000 A 
ATOM     18  C   UNL     1      -1.405   0.134  -0.135  0.00  0.00    +0.000 A 
ATOM     19  C   UNL     1      -0.748   0.844   0.868  0.00  0.00    +0.000 A 
ATOM     20  C   UNL     1       0.612   0.623   1.083  0.00  0.00    +0.000 A 
ENDBRANCH  14  18
ENDBRANCH  12  14
ENDBRANCH   1  12
TORSDOF 3
