REMARK  Name = *****
REMARK  4 active torsions:
REMARK  status: ('A' for Active; 'I' for Inactive)
REMARK    1  A    between atoms: C_5  and  C_7
REMARK    2  A    between atoms: C_7  and  O_9
REMARK    3  A    between atoms: O_9  and  C_10
REMARK    4  A    between atoms: C_10  and  C_11
REMARK                            x       y       z     vdW  Elec       q    Type
REMARK                         _______ _______ _______ _____ _____    ______ ____
ROOT
ATOM      1  C   UNL     1       1.021  -2.602  -0.181  0.00  0.00    +0.000 C 
ATOM      2  O   UNL     1       0.492  -3.636  -0.557  0.00  0.00    +0.000 OA
ENDROOT
BRANCH   1   7
ATOM      3  C   UNL     1      -1.820  -0.131  -0.099  0.00  0.00    +0.000 A 
ATOM      4  C   UNL     1      -1.149   1.090  -0.061  0.00  0.00    +0.000 A 
ATOM      5  C   UNL     1       0.246   1.117  -0.068  0.00  0.00    +0.000 A 
ATOM      6  C   UNL     1       0.967  -0.076  -0.108  0.00  0.00    +0.000 A 
ATOM      7  C   UNL     1       0.307  -1.306  -0.135  0.00  0.00    +0.000 A 
ATOM      8  C   UNL     1      -1.096  -1.326  -0.139  0.00  0.00    +0.000 A 
ATOM      9  F   UNL     1       2.305   0.006  -0.142  0.00  0.00    +0.000 F 
ENDBRANCH   1   7
BRANCH   1  10
ATOM     10  O   UNL     1       2.279  -2.478   0.298  0.00  0.00    +0.000 OA
BRANCH  10  11
ATOM     11  C   UNL     1       3.078  -3.665   0.265  0.00  0.00    +0.000 C 
BRANCH  11  12
ATOM     12  C   UNL     1       3.870  -3.706  -1.016  0.00  0.00    +0.000 A 
ATOM     13  C   UNL     1       4.875  -2.757  -1.257  0.00  0.00    +0.000 A 
ATOM     14  C   UNL     1       5.599  -2.790  -2.449  0.00  0.00    +0.000 A 
ATOM     15  C   UNL     1       5.331  -3.761  -3.412  0.00  0.00    +0.000 A 
ATOM     16  C   UNL     1       4.328  -4.702  -3.184  0.00  0.00    +0.000 A 
ATOM     17  C   UNL     1       3.598  -4.673  -1.994  0.00  0.00    +0.000 A 
ATOM     18 CL   UNL     1       6.830  -1.621  -2.733  0.00  0.00    +0.000 Cl
ENDBRANCH  11  12
ENDBRANCH  10  11
ENDBRANCH   1  10
TORSDOF 4
