REMARK  Name = *****
REMARK  2 active torsions:
REMARK  status: ('A' for Active; 'I' for Inactive)
REMARK    1  A    between atoms: C_2  and  C_13
REMARK    2  A    between atoms: N_3  and  C_4
REMARK                            x       y       z     vdW  Elec       q    Type
REMARK                         _______ _______ _______ _____ _____    ______ ____
ROOT
ATOM      1  C   UNL     1      -0.119   0.504   0.032  0.00  0.00    +0.000 C 
ATOM      2  C   UNL     1       0.435  -0.872   0.276  0.00  0.00    +0.000 C 
ATOM      3  N   UNL     1      -0.920  -0.499   0.731  0.00  0.00    +0.000 N 
ENDROOT
BRANCH   3   4
ATOM      4  C   UNL     1      -2.054  -1.070   0.096  0.00  0.00    +0.000 A 
ATOM      5  C   UNL     1      -3.143  -1.367   0.934  0.00  0.00    +0.000 A 
ATOM      6  C   UNL     1      -4.306  -1.931   0.416  0.00  0.00    +0.000 A 
ATOM      7  C   UNL     1      -4.409  -2.208  -0.941  0.00  0.00    +0.000 A 
ATOM      8  C   UNL     1      -3.354  -1.926  -1.796  0.00  0.00    +0.000 A 
ATOM      9  C   UNL     1      -2.190  -1.361  -1.276  0.00  0.00    +0.000 A 
ATOM     10  F   UNL     1      -1.194  -1.104  -2.138  0.00  0.00    +0.000 F 
ATOM     11  F   UNL     1      -5.529  -2.750  -1.436  0.00  0.00    +0.000 F 
ATOM     12  F   UNL     1      -5.327  -2.204   1.239  0.00  0.00    +0.000 F 
ENDBRANCH   3   4
BRANCH   2  13
ATOM     13  C   UNL     1       1.490  -1.080   1.333  0.00  0.00    +0.000 A 
ATOM     14  C   UNL     1       1.248  -1.872   2.469  0.00  0.00    +0.000 A 
ATOM     15  C   UNL     1       2.232  -2.078   3.439  0.00  0.00    +0.000 A 
ATOM     16  C   UNL     1       3.487  -1.496   3.290  0.00  0.00    +0.000 A 
ATOM     17  C   UNL     1       3.757  -0.712   2.172  0.00  0.00    +0.000 A 
ATOM     18  C   UNL     1       2.768  -0.510   1.205  0.00  0.00    +0.000 A 
ENDBRANCH   2  13
TORSDOF 2
