REMARK  Name = *****
REMARK  3 active torsions:
REMARK  status: ('A' for Active; 'I' for Inactive)
REMARK    1  A    between atoms: C_5  and  C_7
REMARK    2  A    between atoms: C_7  and  O_8
REMARK    3  A    between atoms: O_8  and  C_9
REMARK                            x       y       z     vdW  Elec       q    Type
REMARK                         _______ _______ _______ _____ _____    ______ ____
ROOT
ATOM      1  C   UNL     1      -0.582  -2.434  -0.102  0.00  0.00    +0.000 C 
ENDROOT
BRANCH   1   6
ATOM      2  C   UNL     1       0.382   1.088   1.011  0.00  0.00    +0.000 A 
ATOM      3  C   UNL     1       1.495   1.357   0.222  0.00  0.00    +0.000 A 
ATOM      4  C   UNL     1       1.950   0.399  -0.682  0.00  0.00    +0.000 A 
ATOM      5  C   UNL     1       1.290  -0.830  -0.805  0.00  0.00    +0.000 A 
ATOM      6  C   UNL     1       0.151  -1.110  -0.033  0.00  0.00    +0.000 A 
ATOM      7  C   UNL     1      -0.280  -0.136   0.889  0.00  0.00    +0.000 A 
ATOM      8 CL   UNL     1       1.950  -1.967  -1.927  0.00  0.00    +0.000 Cl
ENDBRANCH   1   6
BRANCH   1   9
ATOM      9  O   UNL     1      -1.993  -2.188  -0.065  0.00  0.00    +0.000 OA
BRANCH   9  10
ATOM     10  C   UNL     1      -2.746  -3.343  -0.098  0.00  0.00    +0.000 A 
ATOM     11  N   UNL     1      -2.138  -4.546  -0.018  0.00  0.00    +0.000 NA
ATOM     12  C   UNL     1      -2.933  -5.638  -0.044  0.00  0.00    +0.000 A 
ATOM     13  C   UNL     1      -4.310  -5.580  -0.144  0.00  0.00    +0.000 A 
ATOM     14  C   UNL     1      -4.896  -4.324  -0.220  0.00  0.00    +0.000 A 
ATOM     15  C   UNL     1      -4.114  -3.179  -0.195  0.00  0.00    +0.000 A 
ATOM     16 CL   UNL     1      -6.607  -4.188  -0.346  0.00  0.00    +0.000 Cl
ENDBRANCH   9  10
ENDBRANCH   1   9
TORSDOF 3
