REMARK  Name = *****
REMARK  2 active torsions:
REMARK  status: ('A' for Active; 'I' for Inactive)
REMARK    1  A    between atoms: C_4  and  C_7
REMARK    2  A    between atoms: C_8  and  C_9
REMARK                            x       y       z     vdW  Elec       q    Type
REMARK                         _______ _______ _______ _____ _____    ______ ____
ROOT
ATOM      1  C   UNL     1       2.928   0.130  -0.322  0.00  0.00    +0.000 C 
ATOM      2  C   UNL     1       4.120   0.186  -0.458  0.00  0.00    +0.000 C 
ENDROOT
BRANCH   2   3
ATOM      3  C   UNL     1       5.539   0.254  -0.623  0.00  0.00    +0.000 A 
ATOM      4  C   UNL     1       6.191   1.488  -0.678  0.00  0.00    +0.000 A 
ATOM      5  C   UNL     1       7.573   1.559  -0.840  0.00  0.00    +0.000 A 
ATOM      6  C   UNL     1       8.318   0.385  -0.950  0.00  0.00    +0.000 A 
ATOM      7  C   UNL     1       7.669  -0.850  -0.895  0.00  0.00    +0.000 A 
ATOM      8  C   UNL     1       6.284  -0.923  -0.733  0.00  0.00    +0.000 A 
ATOM      9 BR   UNL     1       8.678  -2.442  -1.044  0.00  0.00    +0.000 Br
ATOM     10  F   UNL     1       5.497   2.632  -0.575  0.00  0.00    +0.000 F 
ENDBRANCH   2   3
BRANCH   1  14
ATOM     11  C   UNL     1      -1.266  -0.043   0.147  0.00  0.00    +0.000 A 
ATOM     12  C   UNL     1      -0.624   1.192   0.066  0.00  0.00    +0.000 A 
ATOM     13  C   UNL     1       0.763   1.249  -0.088  0.00  0.00    +0.000 A 
ATOM     14  C   UNL     1       1.508   0.070  -0.162  0.00  0.00    +0.000 A 
ATOM     15  C   UNL     1       0.863  -1.166  -0.080  0.00  0.00    +0.000 A 
ATOM     16  C   UNL     1      -0.524  -1.222   0.075  0.00  0.00    +0.000 A 
ENDBRANCH   1  14
TORSDOF 2
