REMARK  Name = *****
REMARK  4 active torsions:
REMARK  status: ('A' for Active; 'I' for Inactive)
REMARK    1  A    between atoms: C_1  and  O_2
REMARK    2  A    between atoms: O_2  and  C_3
REMARK    3  A    between atoms: C_6  and  C_9
REMARK    4  A    between atoms: C_10  and  C_11
REMARK                            x       y       z     vdW  Elec       q    Type
REMARK                         _______ _______ _______ _____ _____    ______ ____
ROOT
ATOM      1  C   UNL     1       3.144   0.680  -1.010  0.00  0.00    +0.000 A 
ATOM      2  C   UNL     1       2.667   1.922  -1.425  0.00  0.00    +0.000 A 
ATOM      3  C   UNL     1       3.239   2.563  -2.532  0.00  0.00    +0.000 A 
ATOM      4  C   UNL     1       4.302   1.976  -3.230  0.00  0.00    +0.000 A 
ATOM      5  C   UNL     1       4.765   0.723  -2.818  0.00  0.00    +0.000 A 
ATOM      6  C   UNL     1       4.193   0.085  -1.713  0.00  0.00    +0.000 A 
ENDROOT
BRANCH   1   8
ATOM      7  C   UNL     1       1.608   0.514   0.797  0.00  0.00    +0.000 C 
ATOM      8  O   UNL     1       2.677  -0.050   0.048  0.00  0.00    +0.000 OA
ENDBRANCH   1   8
BRANCH   4   9
ATOM      9  C   UNL     1       4.902   2.606  -4.414  0.00  0.00    +0.000 C 
ATOM     10  C   UNL     1       5.200   3.914  -4.479  0.00  0.00    +0.000 C 
BRANCH  10  11
ATOM     11  C   UNL     1       5.788   4.512  -5.633  0.00  0.00    +0.000 A 
ATOM     12  C   UNL     1       6.088   3.990  -6.883  0.00  0.00    +0.000 A 
ATOM     13  C   UNL     1       6.679   4.940  -7.766  0.00  0.00    +0.000 A 
ATOM     14  C   UNL     1       6.818   6.172  -7.175  0.00  0.00    +0.000 A 
ATOM     15  S   UNL     1       6.238   6.180  -5.571  0.00  0.00    +0.000 S 
ENDBRANCH  10  11
ENDBRANCH   4   9
TORSDOF 3
