REMARK  Name = *****
REMARK  5 active torsions:
REMARK  status: ('A' for Active; 'I' for Inactive)
REMARK    1  A    between atoms: C_1  and  C_2
REMARK    2  A    between atoms: C_5  and  C_7
REMARK    3  A    between atoms: C_7  and  C_8
REMARK    4  A    between atoms: C_9  and  C_10
REMARK    5  A    between atoms: C_15  and  O_16
REMARK                            x       y       z     vdW  Elec       q    Type
REMARK                         _______ _______ _______ _____ _____    ______ ____
ROOT
ATOM      1  C   UNL     1      -3.758  -0.789  -0.013  0.00  0.00    +0.000 C 
ATOM      2  C   UNL     1      -5.007  -0.473   0.366  0.00  0.00    +0.000 C 
ENDROOT
BRANCH   2   3
ATOM      3  C   UNL     1      -6.167  -1.377   0.268  0.00  0.00    +0.000 A 
ATOM      4  C   UNL     1      -6.311  -2.262  -0.810  0.00  0.00    +0.000 A 
ATOM      5  C   UNL     1      -7.430  -3.094  -0.910  0.00  0.00    +0.000 A 
ATOM      6  C   UNL     1      -8.427  -3.044   0.061  0.00  0.00    +0.000 A 
ATOM      7  C   UNL     1      -8.313  -2.158   1.131  0.00  0.00    +0.000 A 
ATOM      8  C   UNL     1      -7.193  -1.328   1.226  0.00  0.00    +0.000 A 
BRANCH   8   9
ATOM      9  O   UNL     1      -7.092  -0.454   2.278  0.00  0.00    +0.000 OA
ATOM     10  H   UNL     1      -6.345   0.107   2.351  0.00  0.00    +0.000 HD
ENDBRANCH   8   9
ENDBRANCH   2   3
BRANCH   1  11
ATOM     11  C   UNL     1      -2.584   0.145   0.109  0.00  0.00    +0.000 C 
BRANCH  11  16
ATOM     12  C   UNL     1       0.746   0.305  -4.072  0.00  0.00    +0.000 C 
ATOM     13  C   UNL     1      -0.389   0.543  -3.137  0.00  0.00    +0.000 A 
ATOM     14  C   UNL     1      -1.465   1.391  -3.292  0.00  0.00    +0.000 A 
ATOM     15  C   UNL     1      -2.351   1.347  -2.177  0.00  0.00    +0.000 A 
ATOM     16  C   UNL     1      -1.924   0.466  -1.203  0.00  0.00    +0.000 A 
ATOM     17  S   UNL     1      -0.458  -0.298  -1.649  0.00  0.00    +0.000 S 
ENDBRANCH  11  16
ENDBRANCH   1  11
TORSDOF 4
