REMARK  Name = *****
REMARK  4 active torsions:
REMARK  status: ('A' for Active; 'I' for Inactive)
REMARK    1  A    between atoms: C_4  and  C_7
REMARK    2  A    between atoms: C_7  and  O_8
REMARK    3  A    between atoms: O_8  and  C_9
REMARK    4  A    between atoms: C_9  and  C_11
REMARK                            x       y       z     vdW  Elec       q    Type
REMARK                         _______ _______ _______ _____ _____    ______ ____
ROOT
ATOM      1  C   UNL     1      -4.903  -0.621  -0.447  0.00  0.00    +0.000 C 
ATOM      2  O   UNL     1      -5.512   0.434  -0.516  0.00  0.00    +0.000 OA
ENDROOT
BRANCH   1   3
ATOM      3  C   UNL     1      -5.573  -1.949  -0.427  0.00  0.00    +0.000 A 
ATOM      4  C   UNL     1      -4.872  -3.139  -0.192  0.00  0.00    +0.000 A 
ATOM      5  C   UNL     1      -5.557  -4.353  -0.181  0.00  0.00    +0.000 A 
ATOM      6  C   UNL     1      -6.934  -4.397  -0.400  0.00  0.00    +0.000 A 
ATOM      7  C   UNL     1      -7.637  -3.215  -0.630  0.00  0.00    +0.000 A 
ATOM      8  C   UNL     1      -6.959  -1.994  -0.642  0.00  0.00    +0.000 A 
ATOM      9 CL   UNL     1      -4.696  -5.815   0.108  0.00  0.00    +0.000 Cl
ENDBRANCH   1   3
BRANCH   1  10
ATOM     10  O   UNL     1      -3.559  -0.772  -0.395  0.00  0.00    +0.000 OA
BRANCH  10  11
ATOM     11  C   UNL     1      -2.794   0.439  -0.360  0.00  0.00    +0.000 C 
BRANCH  11  15
ATOM     12  C   UNL     1      -1.591   1.161   3.715  0.00  0.00    +0.000 A 
ATOM     13  C   UNL     1      -0.808   0.354   2.890  0.00  0.00    +0.000 A 
ATOM     14  C   UNL     1      -1.193   0.123   1.569  0.00  0.00    +0.000 A 
ATOM     15  C   UNL     1      -2.361   0.705   1.057  0.00  0.00    +0.000 A 
ATOM     16  C   UNL     1      -3.147   1.505   1.899  0.00  0.00    +0.000 A 
ATOM     17  C   UNL     1      -2.761   1.734   3.220  0.00  0.00    +0.000 A 
ENDBRANCH  11  15
ENDBRANCH  10  11
ENDBRANCH   1  10
TORSDOF 4
