REMARK  Name = *****
REMARK  6 active torsions:
REMARK  status: ('A' for Active; 'I' for Inactive)
REMARK    1  A    between atoms: C_1  and  C_2
REMARK    2  A    between atoms: C_2  and  C_3
REMARK    3  A    between atoms: C_2  and  N_9
REMARK    4  A    between atoms: N_9  and  C_10
REMARK    5  A    between atoms: N_9  and  N_17
REMARK    6  A    between atoms: C_10  and  C_11
REMARK                            x       y       z     vdW  Elec       q    Type
REMARK                         _______ _______ _______ _____ _____    ______ ____
ROOT
ATOM      1  N   UNL     1       2.909   1.142   1.084  0.00  0.00    +0.000 NA
ENDROOT
BRANCH   1   3
ATOM      2  C   UNL     1       1.083  -0.166  -0.129  0.00  0.00    +0.000 C 
ATOM      3  C   UNL     1       2.590   0.085   0.087  0.00  0.00    +0.000 C 
BRANCH   3   4
ATOM      4  C   UNL     1       3.346   0.299  -1.230  0.00  0.00    +0.000 A 
ATOM      5  C   UNL     1       2.841   1.098  -2.268  0.00  0.00    +0.000 A 
ATOM      6  C   UNL     1       3.563   1.274  -3.451  0.00  0.00    +0.000 A 
ATOM      7  C   UNL     1       4.802   0.658  -3.612  0.00  0.00    +0.000 A 
ATOM      8  C   UNL     1       5.326  -0.126  -2.587  0.00  0.00    +0.000 A 
ATOM      9  C   UNL     1       4.607  -0.300  -1.402  0.00  0.00    +0.000 A 
ENDBRANCH   3   4
ENDBRANCH   1   3
BRANCH   1  10
ATOM     10  N   UNL     1       2.405   2.325   0.790  0.00  0.00    +0.000 NA
ATOM     11  O   UNL     1       2.956   3.221   1.440  0.00  0.00    +0.000 OA
ENDBRANCH   1  10
BRANCH   1  12
ATOM     12  C   UNL     1       2.657   0.706   2.475  0.00  0.00    +0.000 C 
BRANCH  12  13
ATOM     13  C   UNL     1       3.589  -0.396   2.942  0.00  0.00    +0.000 A 
ATOM     14  C   UNL     1       4.975  -0.176   2.990  0.00  0.00    +0.000 A 
ATOM     15  C   UNL     1       5.837  -1.182   3.427  0.00  0.00    +0.000 A 
ATOM     16  C   UNL     1       5.324  -2.417   3.820  0.00  0.00    +0.000 A 
ATOM     17  C   UNL     1       3.950  -2.646   3.780  0.00  0.00    +0.000 A 
ATOM     18  C   UNL     1       3.084  -1.641   3.345  0.00  0.00    +0.000 A 
ENDBRANCH  12  13
ENDBRANCH   1  12
TORSDOF 5
