REMARK  Name = *****
REMARK  5 active torsions:
REMARK  status: ('A' for Active; 'I' for Inactive)
REMARK    1  A    between atoms: C_1  and  C_2
REMARK    2  A    between atoms: C_5  and  S_8
REMARK    3  A    between atoms: S_8  and  C_9
REMARK    4  A    between atoms: C_9  and  C_10
REMARK    5  A    between atoms: C_9  and  C_11
REMARK                            x       y       z     vdW  Elec       q    Type
REMARK                         _______ _______ _______ _____ _____    ______ ____
ROOT
ATOM      1  C   UNL     1      -3.759   1.457   0.432  0.00  0.00    +0.000 C 
ATOM      2  C   UNL     1      -5.090   1.098  -0.235  0.00  0.00    +0.000 C 
ENDROOT
BRANCH   1   3
ATOM      3  C   UNL     1      -2.966   2.578  -0.224  0.00  0.00    +0.000 A 
ATOM      4  C   UNL     1      -2.061   3.322   0.559  0.00  0.00    +0.000 A 
ATOM      5  C   UNL     1      -1.308   4.356  -0.001  0.00  0.00    +0.000 A 
ATOM      6  C   UNL     1      -1.452   4.653  -1.349  0.00  0.00    +0.000 A 
ATOM      7  C   UNL     1      -2.332   3.934  -2.146  0.00  0.00    +0.000 A 
ATOM      8  C   UNL     1      -3.087   2.900  -1.587  0.00  0.00    +0.000 A 
ATOM      9  F   UNL     1      -0.729   5.643  -1.888  0.00  0.00    +0.000 F 
ENDBRANCH   1   3
BRANCH   1  10
ATOM     10  S   UNL     1      -2.730  -0.045   0.743  0.00  0.00    +0.000 S 
BRANCH  10  15
ATOM     11  C   UNL     1      -1.655  -2.158  -4.871  0.00  0.00    +0.000 C 
ATOM     12  C   UNL     1      -1.940  -1.613  -3.503  0.00  0.00    +0.000 A 
ATOM     13  C   UNL     1      -1.138  -0.601  -2.963  0.00  0.00    +0.000 A 
ATOM     14  C   UNL     1      -1.379  -0.118  -1.674  0.00  0.00    +0.000 A 
ATOM     15  C   UNL     1      -2.428  -0.635  -0.911  0.00  0.00    +0.000 A 
ATOM     16  C   UNL     1      -3.207  -1.670  -1.433  0.00  0.00    +0.000 A 
ATOM     17  C   UNL     1      -2.965  -2.156  -2.721  0.00  0.00    +0.000 A 
ENDBRANCH  10  15
ENDBRANCH   1  10
TORSDOF 3
