REMARK  Name = *****
REMARK  5 active torsions:
REMARK  status: ('A' for Active; 'I' for Inactive)
REMARK    1  A    between atoms: C_1  and  C_2
REMARK    2  A    between atoms: C_6  and  S_7
REMARK    3  A    between atoms: S_7  and  C_8
REMARK    4  A    between atoms: C_11  and  C_14
REMARK    5  A    between atoms: C_17  and  C_18
REMARK                            x       y       z     vdW  Elec       q    Type
REMARK                         _______ _______ _______ _____ _____    ______ ____
ROOT
ATOM      1  C   UNL     1       1.511   0.437   0.473  0.00  0.00    +0.000 C 
ATOM      2  C   UNL     1       2.840  -0.248   0.133  0.00  0.00    +0.000 C 
ATOM      3  C   UNL     1       3.786   0.706  -0.614  0.00  0.00    +0.000 C 
ATOM      4  C   UNL     1       3.294   1.049  -2.020  0.00  0.00    +0.000 C 
ATOM      5  C   UNL     1       2.969  -0.173  -2.829  0.00  0.00    +0.000 C 
ATOM      6  C   UNL     1       3.246  -0.409  -4.124  0.00  0.00    +0.000 C 
ATOM      7  C   UNL     1       2.237  -1.266  -2.111  0.00  0.00    +0.000 C 
ATOM      8  O   UNL     1       1.392  -1.940  -2.695  0.00  0.00    +0.000 OA
ATOM      9  C   UNL     1       2.673  -1.551  -0.675  0.00  0.00    +0.000 C 
ATOM     10  C   UNL     1       1.737  -2.552   0.002  0.00  0.00    +0.000 C 
ENDROOT
BRANCH   6  11
ATOM     11  S   UNL     1       4.077   0.711  -5.155  0.00  0.00    +0.000 S 
BRANCH  11  12
ATOM     12  C   UNL     1       3.677  -0.005  -6.737  0.00  0.00    +0.000 A 
ATOM     13  C   UNL     1       2.417   0.196  -7.308  0.00  0.00    +0.000 A 
ATOM     14  C   UNL     1       2.109  -0.363  -8.551  0.00  0.00    +0.000 A 
ATOM     15  C   UNL     1       3.062  -1.116  -9.246  0.00  0.00    +0.000 A 
ATOM     16  C   UNL     1       4.320  -1.321  -8.668  0.00  0.00    +0.000 A 
ATOM     17  C   UNL     1       4.629  -0.762  -7.425  0.00  0.00    +0.000 A 
ATOM     18  C   UNL     1       2.717  -1.745 -10.564  0.00  0.00    +0.000 C 
ENDBRANCH  11  12
ENDBRANCH   6  11
TORSDOF 2
