REMARK  Name = *****
REMARK  2 active torsions:
REMARK  status: ('A' for Active; 'I' for Inactive)
REMARK    1  A    between atoms: C_4  and  C_7
REMARK    2  A    between atoms: C_7  and  C_8
REMARK                            x       y       z     vdW  Elec       q    Type
REMARK                         _______ _______ _______ _____ _____    ______ ____
ROOT
ATOM      1  C   UNL     1      -3.408  -0.964  -1.113  0.00  0.00    +0.000 C 
ATOM      2  C   UNL     1      -3.838  -2.356  -0.742  0.00  0.00    +0.000 A 
ATOM      3  C   UNL     1      -2.983  -3.430  -0.498  0.00  0.00    +0.000 A 
ATOM      4  C   UNL     1      -3.526  -4.671  -0.150  0.00  0.00    +0.000 A 
ATOM      5  C   UNL     1      -4.913  -4.842  -0.054  0.00  0.00    +0.000 A 
ATOM      6  C   UNL     1      -5.772  -3.776  -0.313  0.00  0.00    +0.000 A 
ATOM      7  C   UNL     1      -5.218  -2.548  -0.659  0.00  0.00    +0.000 A 
ATOM      8  C   UNL     1      -6.003  -1.358  -0.999  0.00  0.00    +0.000 C 
ATOM      9  O   UNL     1      -7.220  -1.297  -0.982  0.00  0.00    +0.000 OA
ATOM     10  S   UNL     1      -4.956  -0.036  -1.493  0.00  0.00    +0.000 S 
ENDROOT
BRANCH   1  11
ATOM     11  C   UNL     1      -2.529  -0.250  -0.063  0.00  0.00    +0.000 C 
BRANCH  11  15
ATOM     12  C   UNL     1      -4.272   0.314   3.852  0.00  0.00    +0.000 A 
ATOM     13  C   UNL     1      -3.598  -0.867   3.553  0.00  0.00    +0.000 A 
ATOM     14  C   UNL     1      -3.028  -1.049   2.292  0.00  0.00    +0.000 A 
ATOM     15  C   UNL     1      -3.132  -0.052   1.312  0.00  0.00    +0.000 A 
ATOM     16  C   UNL     1      -3.806   1.136   1.628  0.00  0.00    +0.000 A 
ATOM     17  C   UNL     1      -4.375   1.316   2.890  0.00  0.00    +0.000 A 
ENDBRANCH  11  15
ENDBRANCH   1  11
TORSDOF 2
