REMARK  Name = *****
REMARK  3 active torsions:
REMARK  status: ('A' for Active; 'I' for Inactive)
REMARK    1  A    between atoms: C_1  and  N_2
REMARK    2  A    between atoms: N_2  and  C_3
REMARK    3  A    between atoms: C_10  and  C_12
REMARK                            x       y       z     vdW  Elec       q    Type
REMARK                         _______ _______ _______ _____ _____    ______ ____
ROOT
ATOM      1  C   UNL     1       1.178  -0.369   0.353  0.00  0.00    +0.000 C 
ATOM      2  N   UNL     1       2.563  -0.042   0.023  0.00  0.00    +0.000 N 
ATOM      3  C   UNL     1       3.185  -0.838  -0.953  0.00  0.00    +0.000 C 
ATOM      4  O   UNL     1       2.563  -1.550  -1.742  0.00  0.00    +0.000 OA
ENDROOT
BRANCH   2   5
ATOM      5  C   UNL     1       3.096   1.177   0.558  0.00  0.00    +0.000 A 
ATOM      6  C   UNL     1       4.010   1.958  -0.167  0.00  0.00    +0.000 A 
ATOM      7  C   UNL     1       4.513   3.155   0.356  0.00  0.00    +0.000 A 
ATOM      8  C   UNL     1       4.098   3.592   1.609  0.00  0.00    +0.000 A 
ATOM      9  C   UNL     1       3.178   2.847   2.337  0.00  0.00    +0.000 A 
ATOM     10  C   UNL     1       2.674   1.652   1.810  0.00  0.00    +0.000 A 
ATOM     11 CL   UNL     1       4.717   5.061   2.254  0.00  0.00    +0.000 Cl
ENDBRANCH   2   5
BRANCH   3  12
ATOM     12  C   UNL     1       4.670  -0.939  -0.989  0.00  0.00    +0.000 A 
ATOM     13  C   UNL     1       5.426  -1.015   0.188  0.00  0.00    +0.000 A 
ATOM     14  C   UNL     1       6.815  -1.136   0.117  0.00  0.00    +0.000 A 
ATOM     15  C   UNL     1       7.448  -1.199  -1.125  0.00  0.00    +0.000 A 
ATOM     16  C   UNL     1       6.696  -1.153  -2.299  0.00  0.00    +0.000 A 
ATOM     17  C   UNL     1       5.307  -1.031  -2.233  0.00  0.00    +0.000 A 
ENDBRANCH   3  12
TORSDOF 2
