REMARK  Name = *****
REMARK  2 active torsions:
REMARK  status: ('A' for Active; 'I' for Inactive)
REMARK    1  A    between atoms: C_5  and  N_7
REMARK    2  A    between atoms: C_8  and  C_9
REMARK                            x       y       z     vdW  Elec       q    Type
REMARK                         _______ _______ _______ _____ _____    ______ ____
ROOT
ATOM      1  N   UNL     1       0.873  -2.438  -0.104  0.00  0.00    +0.000 NA
ATOM      2  C   UNL     1       2.163  -2.447   0.028  0.00  0.00    +0.000 C 
ENDROOT
BRANCH   2   3
ATOM      3  C   UNL     1       2.927  -3.715   0.052  0.00  0.00    +0.000 A 
ATOM      4  C   UNL     1       4.324  -3.735   0.175  0.00  0.00    +0.000 A 
ATOM      5  C   UNL     1       5.008  -4.956   0.195  0.00  0.00    +0.000 A 
ATOM      6  C   UNL     1       4.300  -6.152   0.094  0.00  0.00    +0.000 A 
ATOM      7  C   UNL     1       2.913  -6.144  -0.028  0.00  0.00    +0.000 A 
ATOM      8  C   UNL     1       2.227  -4.928  -0.049  0.00  0.00    +0.000 A 
ATOM      9 CL   UNL     1       5.146  -7.649   0.119  0.00  0.00    +0.000 Cl
ATOM     10 CL   UNL     1       5.277  -2.299   0.302  0.00  0.00    +0.000 Cl
ENDBRANCH   2   3
BRANCH   1  15
ATOM     11  C   UNL     1      -1.317   0.344  -1.183  0.00  0.00    +0.000 A 
ATOM     12  C   UNL     1      -1.153   1.266  -0.149  0.00  0.00    +0.000 A 
ATOM     13  C   UNL     1      -0.309   0.968   0.918  0.00  0.00    +0.000 A 
ATOM     14  C   UNL     1       0.369  -0.249   0.942  0.00  0.00    +0.000 A 
ATOM     15  C   UNL     1       0.232  -1.184  -0.096  0.00  0.00    +0.000 A 
ATOM     16  C   UNL     1      -0.631  -0.875  -1.152  0.00  0.00    +0.000 A 
ATOM     17  F   UNL     1       1.174  -0.513   1.984  0.00  0.00    +0.000 F 
ENDBRANCH   1  15
TORSDOF 2
