REMARK  Name = *****
REMARK  2 active torsions:
REMARK  status: ('A' for Active; 'I' for Inactive)
REMARK    1  A    between atoms: C_5  and  C_7
REMARK    2  A    between atoms: C_8  and  C_9
REMARK                            x       y       z     vdW  Elec       q    Type
REMARK                         _______ _______ _______ _____ _____    ______ ____
ROOT
ATOM      1  C   UNL     1       2.933   0.170  -0.319  0.00  0.00    +0.000 C 
ATOM      2  C   UNL     1       4.124   0.241  -0.459  0.00  0.00    +0.000 C 
ENDROOT
BRANCH   1   7
ATOM      3  C   UNL     1      -0.499  -1.233   0.085  0.00  0.00    +0.000 A 
ATOM      4  C   UNL     1      -1.264  -0.067   0.160  0.00  0.00    +0.000 A 
ATOM      5  C   UNL     1      -0.642   1.178   0.078  0.00  0.00    +0.000 A 
ATOM      6  C   UNL     1       0.740   1.251  -0.079  0.00  0.00    +0.000 A 
ATOM      7  C   UNL     1       1.514   0.092  -0.155  0.00  0.00    +0.000 A 
ATOM      8  C   UNL     1       0.888  -1.155  -0.072  0.00  0.00    +0.000 A 
ATOM      9  F   UNL     1       1.315   2.461  -0.156  0.00  0.00    +0.000 F 
ENDBRANCH   1   7
BRANCH   2  10
ATOM     10  C   UNL     1       5.540   0.337  -0.630  0.00  0.00    +0.000 A 
ATOM     11  C   UNL     1       6.151   1.592  -0.698  0.00  0.00    +0.000 A 
ATOM     12  C   UNL     1       7.535   1.689  -0.867  0.00  0.00    +0.000 A 
ATOM     13  C   UNL     1       8.301   0.528  -0.967  0.00  0.00    +0.000 A 
ATOM     14  C   UNL     1       7.698  -0.727  -0.899  0.00  0.00    +0.000 A 
ATOM     15  C   UNL     1       6.314  -0.822  -0.730  0.00  0.00    +0.000 A 
ATOM     16 BR   UNL     1      10.173   0.658  -1.197  0.00  0.00    +0.000 Br
ENDBRANCH   2  10
TORSDOF 2
