REMARK  Name = *****
REMARK  2 active torsions:
REMARK  status: ('A' for Active; 'I' for Inactive)
REMARK    1  A    between atoms: C_1  and  C_2
REMARK    2  A    between atoms: C_3  and  C_12
REMARK                            x       y       z     vdW  Elec       q    Type
REMARK                         _______ _______ _______ _____ _____    ______ ____
ROOT
ATOM      1  C   UNL     1       0.975   0.020   0.031  0.00  0.00    +0.000 C 
ATOM      2  C   UNL     1       2.455  -0.104   0.032  0.00  0.00    +0.000 C 
ATOM      3  C   UNL     1       3.235  -1.203   0.024  0.00  0.00    +0.000 C 
ATOM      4  C   UNL     1       4.714  -0.890   0.028  0.00  0.00    +0.000 C 
ATOM      5  C   UNL     1       4.681   0.608   0.041  0.00  0.00    +0.000 A 
ATOM      6  C   UNL     1       3.349   1.056   0.042  0.00  0.00    +0.000 A 
ATOM      7  C   UNL     1       3.059   2.412   0.053  0.00  0.00    +0.000 A 
ATOM      8  C   UNL     1       4.122   3.319   0.062  0.00  0.00    +0.000 A 
ATOM      9  C   UNL     1       5.444   2.857   0.060  0.00  0.00    +0.000 A 
ATOM     10  C   UNL     1       5.742   1.498   0.049  0.00  0.00    +0.000 A 
ATOM     11  F   UNL     1       6.446   3.747   0.068  0.00  0.00    +0.000 F 
ENDROOT
BRANCH   3  12
ATOM     12  C   UNL     1       2.781  -2.589   0.011  0.00  0.00    +0.000 A 
ATOM     13  C   UNL     1       2.559  -3.245  -1.204  0.00  0.00    +0.000 A 
ATOM     14  C   UNL     1       2.115  -4.569  -1.215  0.00  0.00    +0.000 A 
ATOM     15  C   UNL     1       1.890  -5.240  -0.013  0.00  0.00    +0.000 A 
ATOM     16  C   UNL     1       2.106  -4.588   1.200  0.00  0.00    +0.000 A 
ATOM     17  C   UNL     1       2.549  -3.264   1.214  0.00  0.00    +0.000 A 
ENDBRANCH   3  12
TORSDOF 1
