REMARK  Name = *****
REMARK  3 active torsions:
REMARK  status: ('A' for Active; 'I' for Inactive)
REMARK    1  A    between atoms: C_2  and  C_3
REMARK    2  A    between atoms: C_2  and  S_11
REMARK    3  A    between atoms: S_11  and  C_12
REMARK                            x       y       z     vdW  Elec       q    Type
REMARK                         _______ _______ _______ _____ _____    ______ ____
ROOT
ATOM      1  C   UNL     1       0.935  -0.230  -0.370  0.00  0.00    +0.000 C 
ATOM      2  C   UNL     1       2.252  -0.095  -0.155  0.00  0.00    +0.000 C 
ENDROOT
BRANCH   2   3
ATOM      3  C   UNL     1       3.127   0.552  -1.146  0.00  0.00    +0.000 A 
ATOM      4  C   UNL     1       3.317  -0.009  -2.419  0.00  0.00    +0.000 A 
ATOM      5  C   UNL     1       4.139   0.596  -3.364  0.00  0.00    +0.000 A 
ATOM      6  C   UNL     1       4.780   1.782  -3.038  0.00  0.00    +0.000 A 
ATOM      7  C   UNL     1       4.611   2.369  -1.789  0.00  0.00    +0.000 A 
ATOM      8  C   UNL     1       3.784   1.757  -0.843  0.00  0.00    +0.000 A 
ATOM      9  F   UNL     1       5.573   2.373  -3.941  0.00  0.00    +0.000 F 
ATOM     10  F   UNL     1       2.706  -1.156  -2.752  0.00  0.00    +0.000 F 
ENDBRANCH   2   3
BRANCH   2  11
ATOM     11  S   UNL     1       2.989  -0.611   1.330  0.00  0.00    +0.000 S 
BRANCH  11  12
ATOM     12  C   UNL     1       3.276  -2.323   0.914  0.00  0.00    +0.000 A 
ATOM     13  C   UNL     1       4.408  -2.697   0.183  0.00  0.00    +0.000 A 
ATOM     14  C   UNL     1       4.632  -4.040  -0.129  0.00  0.00    +0.000 A 
ATOM     15  C   UNL     1       3.731  -5.015   0.297  0.00  0.00    +0.000 A 
ATOM     16  C   UNL     1       2.607  -4.650   1.037  0.00  0.00    +0.000 A 
ATOM     17  C   UNL     1       2.382  -3.307   1.348  0.00  0.00    +0.000 A 
ENDBRANCH  11  12
ENDBRANCH   2  11
TORSDOF 3
