REMARK  Name = *****
REMARK  3 active torsions:
REMARK  status: ('A' for Active; 'I' for Inactive)
REMARK    1  A    between atoms: C_1  and  C_2
REMARK    2  A    between atoms: C_2  and  C_9
REMARK    3  A    between atoms: C_3  and  C_4
REMARK                            x       y       z     vdW  Elec       q    Type
REMARK                         _______ _______ _______ _____ _____    ______ ____
ROOT
ATOM      1  C   UNL     1       1.172  -0.425   0.411  0.00  0.00    +0.000 C 
ATOM      2  C   UNL     1       2.582   0.011   0.115  0.00  0.00    +0.000 C 
ATOM      3  C   UNL     1       3.155   1.184   0.451  0.00  0.00    +0.000 C 
ENDROOT
BRANCH   2   4
ATOM      4  C   UNL     1       3.391  -0.967  -0.647  0.00  0.00    +0.000 A 
ATOM      5  C   UNL     1       3.627  -2.246  -0.126  0.00  0.00    +0.000 A 
ATOM      6  C   UNL     1       4.385  -3.175  -0.843  0.00  0.00    +0.000 A 
ATOM      7  C   UNL     1       4.910  -2.836  -2.089  0.00  0.00    +0.000 A 
ATOM      8  C   UNL     1       4.678  -1.568  -2.619  0.00  0.00    +0.000 A 
ATOM      9  C   UNL     1       3.922  -0.638  -1.902  0.00  0.00    +0.000 A 
ENDBRANCH   2   4
BRANCH   3  10
ATOM     10  C   UNL     1       2.520   2.206   1.213  0.00  0.00    +0.000 A 
ATOM     11  C   UNL     1       1.731   2.128   2.349  0.00  0.00    +0.000 A 
ATOM     12  C   UNL     1       1.301   3.401   2.824  0.00  0.00    +0.000 A 
ATOM     13  C   UNL     1       1.788   4.427   2.049  0.00  0.00    +0.000 A 
ATOM     14  S   UNL     1       2.763   3.855   0.769  0.00  0.00    +0.000 S 
ENDBRANCH   3  10
TORSDOF 2
