REMARK  Name = *****
REMARK  4 active torsions:
REMARK  status: ('A' for Active; 'I' for Inactive)
REMARK    1  A    between atoms: C_8  and  C_9
REMARK    2  A    between atoms: C_9  and  O_11
REMARK    3  A    between atoms: O_11  and  C_12
REMARK    4  A    between atoms: C_12  and  C_13
REMARK                            x       y       z     vdW  Elec       q    Type
REMARK                         _______ _______ _______ _____ _____    ______ ____
ROOT
ATOM      1  C   UNL     1      -1.216   2.604  -0.024  0.00  0.00    +0.000 C 
ATOM      2  O   UNL     1      -0.554   3.496   0.488  0.00  0.00    +0.000 OA
ENDROOT
BRANCH   1  10
ATOM      3  C   UNL     1       0.778  -1.238  -0.721  0.00  0.00    +0.000 C 
ATOM      4  C   UNL     1      -0.762  -1.154  -0.843  0.00  0.00    +0.000 C 
ATOM      5  C   UNL     1      -1.289   0.064  -0.048  0.00  0.00    +0.000 C 
ATOM      6  C   UNL     1      -0.774  -0.080   1.372  0.00  0.00    +0.000 C 
ATOM      7  C   UNL     1       0.564  -0.139   1.474  0.00  0.00    +0.000 C 
ATOM      8  C   UNL     1       1.299  -0.074   0.151  0.00  0.00    +0.000 C 
ATOM      9  C   UNL     1       0.900   1.250  -0.540  0.00  0.00    +0.000 C 
ATOM     10  C   UNL     1      -0.651   1.341  -0.662  0.00  0.00    +0.000 C 
ENDBRANCH   1  10
BRANCH   1  11
ATOM     11  O   UNL     1      -2.570   2.626  -0.168  0.00  0.00    +0.000 OA
BRANCH  11  12
ATOM     12  C   UNL     1      -3.245   3.777   0.351  0.00  0.00    +0.000 C 
BRANCH  12  13
ATOM     13  C   UNL     1      -3.940   4.482  -0.784  0.00  0.00    +0.000 A 
ATOM     14  C   UNL     1      -5.233   4.106  -1.172  0.00  0.00    +0.000 A 
ATOM     15  C   UNL     1      -5.874   4.763  -2.224  0.00  0.00    +0.000 A 
ATOM     16  C   UNL     1      -5.225   5.792  -2.904  0.00  0.00    +0.000 A 
ATOM     17  C   UNL     1      -3.931   6.160  -2.539  0.00  0.00    +0.000 A 
ATOM     18  C   UNL     1      -3.288   5.505  -1.487  0.00  0.00    +0.000 A 
ENDBRANCH  12  13
ENDBRANCH  11  12
ENDBRANCH   1  11
TORSDOF 4
