REMARK  Name = *****
REMARK  4 active torsions:
REMARK  status: ('A' for Active; 'I' for Inactive)
REMARK    1  A    between atoms: C_2  and  C_3
REMARK    2  A    between atoms: C_3  and  C_4
REMARK    3  A    between atoms: C_3  and  C_11
REMARK    4  A    between atoms: C_4  and  C_5
REMARK                            x       y       z     vdW  Elec       q    Type
REMARK                         _______ _______ _______ _____ _____    ______ ____
ROOT
ATOM      1  C   UNL     1       3.253  -0.564  -1.233  0.00  0.00    +0.000 C 
ENDROOT
BRANCH   1   2
ATOM      2  C   UNL     1       4.710  -0.292  -0.867  0.00  0.00    +0.000 A 
ATOM      3  C   UNL     1       5.587  -1.363  -0.638  0.00  0.00    +0.000 A 
ATOM      4  C   UNL     1       6.922  -1.130  -0.301  0.00  0.00    +0.000 A 
ATOM      5  C   UNL     1       7.396   0.174  -0.188  0.00  0.00    +0.000 A 
ATOM      6  C   UNL     1       6.538   1.248  -0.413  0.00  0.00    +0.000 A 
ATOM      7  C   UNL     1       5.203   1.018  -0.751  0.00  0.00    +0.000 A 
ENDBRANCH   1   2
BRANCH   1   9
ATOM      8  C   UNL     1       2.045   0.888  -2.983  0.00  0.00    +0.000 C 
ATOM      9  C   UNL     1       2.955  -0.028  -2.628  0.00  0.00    +0.000 C 
ENDBRANCH   1   9
BRANCH   1  10
ATOM     10  C   UNL     1       2.276  -0.085  -0.127  0.00  0.00    +0.000 C 
BRANCH  10  11
ATOM     11  C   UNL     1       2.447  -0.791   1.202  0.00  0.00    +0.000 A 
ATOM     12  C   UNL     1       2.966  -0.104   2.307  0.00  0.00    +0.000 A 
ATOM     13  C   UNL     1       3.125  -0.751   3.534  0.00  0.00    +0.000 A 
ATOM     14  C   UNL     1       2.769  -2.091   3.666  0.00  0.00    +0.000 A 
ATOM     15  C   UNL     1       2.252  -2.785   2.574  0.00  0.00    +0.000 A 
ATOM     16  C   UNL     1       2.089  -2.138   1.348  0.00  0.00    +0.000 A 
ENDBRANCH  10  11
ENDBRANCH   1  10
TORSDOF 4
