REMARK  Name = *****
REMARK  4 active torsions:
REMARK  status: ('A' for Active; 'I' for Inactive)
REMARK    1  A    between atoms: C_4  and  C_7
REMARK    2  A    between atoms: C_7  and  C_8
REMARK    3  A    between atoms: C_7  and  C_10
REMARK    4  A    between atoms: C_10  and  C_12
REMARK                            x       y       z     vdW  Elec       q    Type
REMARK                         _______ _______ _______ _____ _____    ______ ____
ROOT
ATOM      1  C   UNL     1      -2.879   0.761  -0.987  0.00  0.00    +0.000 C 
ENDROOT
BRANCH   1   5
ATOM      2  C   UNL     1       0.481  -0.985   1.121  0.00  0.00    +0.000 A 
ATOM      3  C   UNL     1      -0.304  -0.011   1.734  0.00  0.00    +0.000 A 
ATOM      4  C   UNL     1      -1.388   0.546   1.053  0.00  0.00    +0.000 A 
ATOM      5  C   UNL     1      -1.698   0.139  -0.254  0.00  0.00    +0.000 A 
ATOM      6  C   UNL     1      -0.902  -0.850  -0.855  0.00  0.00    +0.000 A 
ATOM      7  C   UNL     1       0.181  -1.406  -0.172  0.00  0.00    +0.000 A 
ENDBRANCH   1   5
BRANCH   1   8
ATOM      8  C   UNL     1      -2.480   1.483  -2.288  0.00  0.00    +0.000 C 
ATOM      9  I   UNL     1      -1.475   3.354  -1.889  0.00  0.00    +0.000 I 
ENDBRANCH   1   8
BRANCH   1  10
ATOM     10  C   UNL     1      -3.919  -0.311  -1.325  0.00  0.00    +0.000 C 
ATOM     11  O   UNL     1      -3.868  -0.974  -2.362  0.00  0.00    +0.000 OA
BRANCH  10  12
ATOM     12  C   UNL     1      -4.990  -0.618  -0.339  0.00  0.00    +0.000 A 
ATOM     13  C   UNL     1      -5.643   0.387   0.384  0.00  0.00    +0.000 A 
ATOM     14  C   UNL     1      -6.659   0.049   1.282  0.00  0.00    +0.000 A 
ATOM     15  C   UNL     1      -7.025  -1.286   1.456  0.00  0.00    +0.000 A 
ATOM     16  C   UNL     1      -6.385  -2.287   0.728  0.00  0.00    +0.000 A 
ATOM     17  C   UNL     1      -5.373  -1.954  -0.173  0.00  0.00    +0.000 A 
ENDBRANCH  10  12
ENDBRANCH   1  10
TORSDOF 4
