REMARK  Name = *****
REMARK  2 active torsions:
REMARK  status: ('A' for Active; 'I' for Inactive)
REMARK    1  A    between atoms: C_6  and  C_7
REMARK    2  A    between atoms: C_8  and  C_10
REMARK                            x       y       z     vdW  Elec       q    Type
REMARK                         _______ _______ _______ _____ _____    ______ ____
ROOT
ATOM      1  C   UNL     1      -3.429  -0.167  -0.050  0.00  0.00    +0.000 C 
ATOM      2  C   UNL     1      -4.249   0.622  -1.060  0.00  0.00    +0.000 C 
ATOM      3  O   UNL     1      -4.220   0.969   0.333  0.00  0.00    +0.000 OA
ENDROOT
BRANCH   1   9
ATOM      4  C   UNL     1      -1.133  -0.587  -1.040  0.00  0.00    +0.000 A 
ATOM      5  C   UNL     1       0.259  -0.469  -1.018  0.00  0.00    +0.000 A 
ATOM      6  C   UNL     1       0.871   0.214   0.024  0.00  0.00    +0.000 A 
ATOM      7  C   UNL     1       0.117   0.780   1.042  0.00  0.00    +0.000 A 
ATOM      8  C   UNL     1      -1.275   0.659   1.015  0.00  0.00    +0.000 A 
ATOM      9  C   UNL     1      -1.930  -0.022  -0.027  0.00  0.00    +0.000 A 
ATOM     10  F   UNL     1       2.205   0.325   0.048  0.00  0.00    +0.000 F 
ENDBRANCH   1   9
BRANCH   2  11
ATOM     11  C   UNL     1      -5.514   0.018  -1.614  0.00  0.00    +0.000 A 
ATOM     12  C   UNL     1      -6.783   0.415  -1.155  0.00  0.00    +0.000 A 
ATOM     13  C   UNL     1      -7.953  -0.147  -1.672  0.00  0.00    +0.000 A 
ATOM     14  C   UNL     1      -7.864  -1.113  -2.664  0.00  0.00    +0.000 A 
ATOM     15  C   UNL     1      -6.630  -1.525  -3.147  0.00  0.00    +0.000 A 
ATOM     16  C   UNL     1      -5.464  -0.961  -2.624  0.00  0.00    +0.000 A 
ATOM     17  F   UNL     1      -8.983  -1.655  -3.162  0.00  0.00    +0.000 F 
ENDBRANCH   2  11
TORSDOF 2
