REMARK  Name = *****
REMARK  4 active torsions:
REMARK  status: ('A' for Active; 'I' for Inactive)
REMARK    1  A    between atoms: C_6  and  C_7
REMARK    2  A    between atoms: C_7  and  C_8
REMARK    3  A    between atoms: C_8  and  C_9
REMARK    4  A    between atoms: C_9  and  C_11
REMARK                            x       y       z     vdW  Elec       q    Type
REMARK                         _______ _______ _______ _____ _____    ______ ____
ROOT
ATOM      1  C   UNL     1       5.948   1.496   0.153  0.00  0.00    +0.000 C 
ATOM      2  O   UNL     1       6.618   0.465   0.195  0.00  0.00    +0.000 OA
ENDROOT
BRANCH   1   3
ATOM      3  C   UNL     1       6.661   2.808   0.164  0.00  0.00    +0.000 A 
ATOM      4  C   UNL     1       5.999   4.040   0.165  0.00  0.00    +0.000 A 
ATOM      5  C   UNL     1       6.710   5.239   0.175  0.00  0.00    +0.000 A 
ATOM      6  C   UNL     1       8.097   5.206   0.185  0.00  0.00    +0.000 A 
ATOM      7  C   UNL     1       8.783   3.998   0.186  0.00  0.00    +0.000 A 
ATOM      8  C   UNL     1       8.067   2.799   0.176  0.00  0.00    +0.000 A 
ATOM      9  F   UNL     1       8.784   6.355   0.195  0.00  0.00    +0.000 F 
ATOM     10  F   UNL     1       4.662   4.117   0.158  0.00  0.00    +0.000 F 
ENDBRANCH   1   3
BRANCH   1  11
ATOM     11  C   UNL     1       4.433   1.465   0.090  0.00  0.00    +0.000 C 
BRANCH  11  12
ATOM     12  C   UNL     1       3.900   0.032   0.040  0.00  0.00    +0.000 C 
BRANCH  12  18
ATOM     13  C   UNL     1       1.624  -0.007   1.137  0.00  0.00    +0.000 A 
ATOM     14  C   UNL     1       0.229  -0.007   1.067  0.00  0.00    +0.000 A 
ATOM     15  C   UNL     1      -0.403   0.013  -0.174  0.00  0.00    +0.000 A 
ATOM     16  C   UNL     1       0.349   0.033  -1.347  0.00  0.00    +0.000 A 
ATOM     17  C   UNL     1       1.743   0.032  -1.278  0.00  0.00    +0.000 A 
ATOM     18  C   UNL     1       2.392   0.008  -0.035  0.00  0.00    +0.000 A 
ATOM     19 CL   UNL     1      -2.121   0.016  -0.259  0.00  0.00    +0.000 Cl
ENDBRANCH  12  18
ENDBRANCH  11  12
ENDBRANCH   1  11
TORSDOF 4
