REMARK  Name = *****
REMARK  2 active torsions:
REMARK  status: ('A' for Active; 'I' for Inactive)
REMARK    1  A    between atoms: C_6  and  N_7
REMARK    2  A    between atoms: C_8  and  C_9
REMARK                            x       y       z     vdW  Elec       q    Type
REMARK                         _______ _______ _______ _____ _____    ______ ____
ROOT
ATOM      1  N   UNL     1      -3.275  -1.334  -0.446  0.00  0.00    +0.000 NA
ATOM      2  C   UNL     1      -3.466  -2.468   0.151  0.00  0.00    +0.000 C 
ENDROOT
BRANCH   1   8
ATOM      3  C   UNL     1      -1.905   0.284   0.728  0.00  0.00    +0.000 A 
ATOM      4  C   UNL     1      -0.677   0.915   0.936  0.00  0.00    +0.000 A 
ATOM      5  C   UNL     1       0.421   0.538   0.171  0.00  0.00    +0.000 A 
ATOM      6  C   UNL     1       0.297  -0.453  -0.795  0.00  0.00    +0.000 A 
ATOM      7  C   UNL     1      -0.924  -1.085  -1.006  0.00  0.00    +0.000 A 
ATOM      8  C   UNL     1      -2.031  -0.727  -0.234  0.00  0.00    +0.000 A 
ATOM      9  F   UNL     1       1.357  -0.809  -1.534  0.00  0.00    +0.000 F 
ATOM     10  F   UNL     1       1.600   1.143   0.371  0.00  0.00    +0.000 F 
ENDBRANCH   1   8
BRANCH   2  11
ATOM     11  C   UNL     1      -4.730  -3.209   0.008  0.00  0.00    +0.000 A 
ATOM     12  C   UNL     1      -4.874  -4.431   0.667  0.00  0.00    +0.000 A 
ATOM     13  C   UNL     1      -6.055  -5.163   0.556  0.00  0.00    +0.000 A 
ATOM     14  C   UNL     1      -7.101  -4.665  -0.221  0.00  0.00    +0.000 A 
ATOM     15  C   UNL     1      -6.951  -3.444  -0.876  0.00  0.00    +0.000 A 
ATOM     16  C   UNL     1      -5.776  -2.709  -0.771  0.00  0.00    +0.000 A 
ATOM     17  F   UNL     1      -7.960  -2.972  -1.619  0.00  0.00    +0.000 F 
ATOM     18  F   UNL     1      -3.878  -4.923   1.417  0.00  0.00    +0.000 F 
ENDBRANCH   2  11
TORSDOF 2
