REMARK  Name = *****
REMARK  3 active torsions:
REMARK  status: ('A' for Active; 'I' for Inactive)
REMARK    1  A    between atoms: C_4  and  O_7
REMARK    2  A    between atoms: O_7  and  C_8
REMARK    3  A    between atoms: C_8  and  C_10
REMARK                            x       y       z     vdW  Elec       q    Type
REMARK                         _______ _______ _______ _____ _____    ______ ____
ROOT
ATOM      1  O   UNL     1      -2.766   0.075  -0.428  0.00  0.00    +0.000 OA
ENDROOT
BRANCH   1   5
ATOM      2  C   UNL     1       1.362  -0.203   0.139  0.00  0.00    +0.000 A 
ATOM      3  C   UNL     1       0.660  -1.287  -0.396  0.00  0.00    +0.000 A 
ATOM      4  C   UNL     1      -0.719  -1.204  -0.579  0.00  0.00    +0.000 A 
ATOM      5  C   UNL     1      -1.377  -0.035  -0.205  0.00  0.00    +0.000 A 
ATOM      6  C   UNL     1      -0.691   1.063   0.309  0.00  0.00    +0.000 A 
ATOM      7  C   UNL     1       0.688   0.971   0.487  0.00  0.00    +0.000 A 
ENDBRANCH   1   5
BRANCH   1   8
ATOM      8  C   UNL     1      -3.736  -0.356   0.487  0.00  0.00    +0.000 C 
ATOM      9  S   UNL     1      -3.381  -1.027   1.973  0.00  0.00    +0.000 S 
BRANCH   8  10
ATOM     10  C   UNL     1      -5.096  -0.157   0.010  0.00  0.00    +0.000 A 
ATOM     11  C   UNL     1      -6.302  -0.513   0.600  0.00  0.00    +0.000 A 
ATOM     12  C   UNL     1      -7.440  -0.144  -0.176  0.00  0.00    +0.000 A 
ATOM     13  C   UNL     1      -7.081   0.488  -1.343  0.00  0.00    +0.000 A 
ATOM     14  S   UNL     1      -5.388   0.630  -1.497  0.00  0.00    +0.000 S 
ENDBRANCH   8  10
ENDBRANCH   1   8
TORSDOF 3
