REMARK  Name = *****
REMARK  3 active torsions:
REMARK  status: ('A' for Active; 'I' for Inactive)
REMARK    1  A    between atoms: C_5  and  C_7
REMARK    2  A    between atoms: C_7  and  O_9
REMARK    3  A    between atoms: O_9  and  C_10
REMARK                            x       y       z     vdW  Elec       q    Type
REMARK                         _______ _______ _______ _____ _____    ______ ____
ROOT
ATOM      1  C   UNL     1      -0.459  -2.300   0.473  0.00  0.00    +0.000 C 
ATOM      2  O   UNL     1      -0.028  -3.418   0.239  0.00  0.00    +0.000 OA
ENDROOT
BRANCH   1   7
ATOM      3  C   UNL     1       2.353   0.161   0.231  0.00  0.00    +0.000 A 
ATOM      4  C   UNL     1       1.774   1.202  -0.492  0.00  0.00    +0.000 A 
ATOM      5  C   UNL     1       0.449   1.103  -0.925  0.00  0.00    +0.000 A 
ATOM      6  C   UNL     1      -0.308  -0.035  -0.629  0.00  0.00    +0.000 A 
ATOM      7  C   UNL     1       0.268  -1.070   0.115  0.00  0.00    +0.000 A 
ATOM      8  C   UNL     1       1.605  -0.978   0.531  0.00  0.00    +0.000 A 
ATOM      9 CL   UNL     1      -1.915  -0.114  -1.256  0.00  0.00    +0.000 Cl
ENDBRANCH   1   7
BRANCH   1  10
ATOM     10  O   UNL     1      -1.587  -1.941   1.180  0.00  0.00    +0.000 OA
BRANCH  10  11
ATOM     11  C   UNL     1      -2.266  -3.051   1.679  0.00  0.00    +0.000 A 
ATOM     12  C   UNL     1      -3.437  -3.463   1.046  0.00  0.00    +0.000 A 
ATOM     13  C   UNL     1      -4.144  -4.549   1.566  0.00  0.00    +0.000 A 
ATOM     14  C   UNL     1      -3.688  -5.202   2.716  0.00  0.00    +0.000 A 
ATOM     15  C   UNL     1      -2.524  -4.768   3.355  0.00  0.00    +0.000 A 
ATOM     16  C   UNL     1      -1.820  -3.687   2.836  0.00  0.00    +0.000 A 
ATOM     17  F   UNL     1      -0.715  -3.257   3.463  0.00  0.00    +0.000 F 
ENDBRANCH  10  11
ENDBRANCH   1  10
TORSDOF 3
