REMARK  Name = *****
REMARK  3 active torsions:
REMARK  status: ('A' for Active; 'I' for Inactive)
REMARK    1  A    between atoms: C_4  and  C_7
REMARK    2  A    between atoms: C_8  and  C_9
REMARK    3  A    between atoms: C_14  and  N_15
REMARK                            x       y       z     vdW  Elec       q    Type
REMARK                         _______ _______ _______ _____ _____    ______ ____
ROOT
ATOM      1  C   UNL     1      -5.036  -0.352  -0.686  0.00  0.00    +0.000 A 
ATOM      2  C   UNL     1      -5.566   0.836  -1.216  0.00  0.00    +0.000 A 
ATOM      3  C   UNL     1      -6.946   1.023  -1.310  0.00  0.00    +0.000 A 
ATOM      4  C   UNL     1      -7.815   0.020  -0.891  0.00  0.00    +0.000 A 
ATOM      5  C   UNL     1      -7.304  -1.170  -0.373  0.00  0.00    +0.000 A 
ATOM      6  C   UNL     1      -5.918  -1.368  -0.248  0.00  0.00    +0.000 A 
ENDROOT
BRANCH   6   7
ATOM      7  N   UNL     1      -5.452  -2.598   0.261  0.00  0.00    +0.000 NA
ATOM      8  C   UNL     1      -5.261  -2.543   1.419  0.00  0.00    +0.000 C 
ATOM      9  O   UNL     1      -5.078  -2.500   2.581  0.00  0.00    +0.000 OA
ENDBRANCH   6   7
BRANCH   1  11
ATOM     10  C   UNL     1      -2.720   0.361  -0.166  0.00  0.00    +0.000 C 
ATOM     11  C   UNL     1      -3.577  -0.554  -0.646  0.00  0.00    +0.000 C 
BRANCH  10  15
ATOM     12  C   UNL     1       1.525  -0.117   0.067  0.00  0.00    +0.000 A 
ATOM     13  C   UNL     1       0.836  -0.630  -1.030  0.00  0.00    +0.000 A 
ATOM     14  C   UNL     1      -0.551  -0.487  -1.116  0.00  0.00    +0.000 A 
ATOM     15  C   UNL     1      -1.265   0.161  -0.099  0.00  0.00    +0.000 A 
ATOM     16  C   UNL     1      -0.559   0.687   0.991  0.00  0.00    +0.000 A 
ATOM     17  C   UNL     1       0.828   0.543   1.076  0.00  0.00    +0.000 A 
ENDBRANCH  10  15
ENDBRANCH   1  11
TORSDOF 3
