REMARK  Name = *****
REMARK  4 active torsions:
REMARK  status: ('A' for Active; 'I' for Inactive)
REMARK    1  A    between atoms: C_4  and  C_7
REMARK    2  A    between atoms: C_7  and  O_8
REMARK    3  A    between atoms: O_8  and  C_9
REMARK    4  A    between atoms: C_9  and  C_11
REMARK                            x       y       z     vdW  Elec       q    Type
REMARK                         _______ _______ _______ _____ _____    ______ ____
ROOT
ATOM      1  O   UNL     1       3.368  -1.910   0.040  0.00  0.00    +0.000 OA
ENDROOT
BRANCH   1   2
ATOM      2  C   UNL     1       3.526  -2.884  -0.890  0.00  0.00    +0.000 C 
ATOM      3  O   UNL     1       3.279  -2.790  -2.082  0.00  0.00    +0.000 OA
BRANCH   2   4
ATOM      4  C   UNL     1       4.051  -4.126  -0.259  0.00  0.00    +0.000 A 
ATOM      5  C   UNL     1       4.318  -5.226  -1.086  0.00  0.00    +0.000 A 
ATOM      6  C   UNL     1       4.811  -6.413  -0.543  0.00  0.00    +0.000 A 
ATOM      7  C   UNL     1       5.039  -6.510   0.829  0.00  0.00    +0.000 A 
ATOM      8  C   UNL     1       4.774  -5.421   1.660  0.00  0.00    +0.000 A 
ATOM      9  C   UNL     1       4.281  -4.231   1.120  0.00  0.00    +0.000 A 
ENDBRANCH   2   4
ENDBRANCH   1   2
BRANCH   1  10
ATOM     10  C   UNL     1       2.867  -0.645  -0.425  0.00  0.00    +0.000 C 
BRANCH  10  14
ATOM     11  C   UNL     1      -1.405   0.271  -0.158  0.00  0.00    +0.000 C 
ATOM     12  C   UNL     1      -0.955  -1.146   0.182  0.00  0.00    +0.000 C 
ATOM     13  C   UNL     1       0.451  -1.434  -0.338  0.00  0.00    +0.000 C 
ATOM     14  C   UNL     1       1.469  -0.393   0.157  0.00  0.00    +0.000 C 
ATOM     15  C   UNL     1       1.002   1.029  -0.184  0.00  0.00    +0.000 C 
ATOM     16  C   UNL     1      -0.405   1.308   0.341  0.00  0.00    +0.000 C 
ENDBRANCH  10  14
ENDBRANCH   1  10
TORSDOF 4
