REMARK  Name = *****
REMARK  3 active torsions:
REMARK  status: ('A' for Active; 'I' for Inactive)
REMARK    1  A    between atoms: C_3  and  O_9
REMARK    2  A    between atoms: O_9  and  C_10
REMARK    3  A    between atoms: C_10  and  C_12
REMARK                            x       y       z     vdW  Elec       q    Type
REMARK                         _______ _______ _______ _____ _____    ______ ____
ROOT
ATOM      1  O   UNL     1      -1.319  -2.836   0.503  0.00  0.00    +0.000 OA
ENDROOT
BRANCH   1   4
ATOM      2  C   UNL     1      -1.977   0.732   1.082  0.00  0.00    +0.000 A 
ATOM      3  C   UNL     1      -1.958  -0.649   1.256  0.00  0.00    +0.000 A 
ATOM      4  C   UNL     1      -1.353  -1.454   0.286  0.00  0.00    +0.000 A 
ATOM      5  C   UNL     1      -0.735  -0.900  -0.843  0.00  0.00    +0.000 A 
ATOM      6  C   UNL     1      -0.759   0.489  -1.006  0.00  0.00    +0.000 A 
ATOM      7  C   UNL     1      -1.382   1.300  -0.047  0.00  0.00    +0.000 A 
ATOM      8 CL   UNL     1      -0.030   1.277  -2.362  0.00  0.00    +0.000 Cl
ATOM      9 CL   UNL     1       0.048  -1.941  -1.984  0.00  0.00    +0.000 Cl
ENDBRANCH   1   4
BRANCH   1  10
ATOM     10  C   UNL     1      -2.448  -3.471   0.025  0.00  0.00    +0.000 C 
ATOM     11  O   UNL     1      -3.447  -2.946  -0.443  0.00  0.00    +0.000 OA
BRANCH  10  12
ATOM     12  C   UNL     1      -2.307  -4.943   0.199  0.00  0.00    +0.000 A 
ATOM     13  C   UNL     1      -1.079  -5.552   0.502  0.00  0.00    +0.000 A 
ATOM     14  C   UNL     1      -1.004  -6.940   0.649  0.00  0.00    +0.000 A 
ATOM     15  C   UNL     1      -2.149  -7.712   0.492  0.00  0.00    +0.000 A 
ATOM     16  C   UNL     1      -3.372  -7.126   0.187  0.00  0.00    +0.000 A 
ATOM     17  C   UNL     1      -3.452  -5.739   0.037  0.00  0.00    +0.000 A 
ATOM     18  F   UNL     1      -2.073  -9.041   0.635  0.00  0.00    +0.000 F 
ENDBRANCH  10  12
ENDBRANCH   1  10
TORSDOF 3
