REMARK  Name = *****
REMARK  2 active torsions:
REMARK  status: ('A' for Active; 'I' for Inactive)
REMARK    1  A    between atoms: C_4  and  C_7
REMARK    2  A    between atoms: C_8  and  C_9
REMARK                            x       y       z     vdW  Elec       q    Type
REMARK                         _______ _______ _______ _____ _____    ______ ____
ROOT
ATOM      1  C   UNL     1       2.905   0.146  -0.252  0.00  0.00    +0.000 C 
ATOM      2  C   UNL     1       4.102   0.203  -0.330  0.00  0.00    +0.000 C 
ENDROOT
BRANCH   2   3
ATOM      3  C   UNL     1       5.528   0.269  -0.421  0.00  0.00    +0.000 A 
ATOM      4  C   UNL     1       6.185   1.498  -0.450  0.00  0.00    +0.000 A 
ATOM      5  C   UNL     1       7.576   1.569  -0.537  0.00  0.00    +0.000 A 
ATOM      6  C   UNL     1       8.330   0.396  -0.596  0.00  0.00    +0.000 A 
ATOM      7  C   UNL     1       7.684  -0.840  -0.568  0.00  0.00    +0.000 A 
ATOM      8  C   UNL     1       6.293  -0.895  -0.481  0.00  0.00    +0.000 A 
ATOM      9  F   UNL     1       5.702  -2.100  -0.455  0.00  0.00    +0.000 F 
ATOM     10  F   UNL     1       5.490   2.644  -0.394  0.00  0.00    +0.000 F 
ENDBRANCH   2   3
BRANCH   1  14
ATOM     11  C   UNL     1      -1.304  -0.063   0.032  0.00  0.00    +0.000 A 
ATOM     12  C   UNL     1      -0.669   1.178  -0.011  0.00  0.00    +0.000 A 
ATOM     13  C   UNL     1       0.723   1.248  -0.105  0.00  0.00    +0.000 A 
ATOM     14  C   UNL     1       1.480   0.076  -0.157  0.00  0.00    +0.000 A 
ATOM     15  C   UNL     1       0.842  -1.167  -0.114  0.00  0.00    +0.000 A 
ATOM     16  C   UNL     1      -0.549  -1.236  -0.020  0.00  0.00    +0.000 A 
ENDBRANCH   1  14
TORSDOF 2
