REMARK  Name = *****
REMARK  3 active torsions:
REMARK  status: ('A' for Active; 'I' for Inactive)
REMARK    1  A    between atoms: C_1  and  C_2
REMARK    2  A    between atoms: C_9  and  S_11
REMARK    3  A    between atoms: S_11  and  C_12
REMARK                            x       y       z     vdW  Elec       q    Type
REMARK                         _______ _______ _______ _____ _____    ______ ____
ROOT
ATOM      1  C   UNL     1       1.059  -0.025  -0.104  0.00  0.00    +0.000 C 
ATOM      2  C   UNL     1       2.561  -0.074  -0.106  0.00  0.00    +0.000 A 
ATOM      3  C   UNL     1       3.228  -1.307   0.028  0.00  0.00    +0.000 A 
ATOM      4  C   UNL     1       4.629  -1.313   0.043  0.00  0.00    +0.000 A 
ATOM      5  C   UNL     1       5.306  -0.110  -0.064  0.00  0.00    +0.000 A 
ATOM      6  C   UNL     1       4.698   1.132  -0.186  0.00  0.00    +0.000 A 
ATOM      7  C   UNL     1       3.297   1.122  -0.201  0.00  0.00    +0.000 A 
ATOM      8  O   UNL     1       6.641  -0.378  -0.025  0.00  0.00    +0.000 OA
ATOM      9  C   UNL     1       6.702  -1.743   0.102  0.00  0.00    +0.000 A 
ATOM     10  N   UNL     1       5.526  -2.343   0.153  0.00  0.00    +0.000 NA
ENDROOT
BRANCH   9  11
ATOM     11  S   UNL     1       8.214  -2.604   0.196  0.00  0.00    +0.000 S 
BRANCH  11  12
ATOM     12  C   UNL     1       8.504  -2.757  -1.557  0.00  0.00    +0.000 A 
ATOM     13  C   UNL     1       9.584  -2.086  -2.141  0.00  0.00    +0.000 A 
ATOM     14  C   UNL     1       9.835  -2.211  -3.509  0.00  0.00    +0.000 A 
ATOM     15  C   UNL     1       9.013  -3.013  -4.300  0.00  0.00    +0.000 A 
ATOM     16  C   UNL     1       7.940  -3.692  -3.723  0.00  0.00    +0.000 A 
ATOM     17  C   UNL     1       7.689  -3.568  -2.355  0.00  0.00    +0.000 A 
ENDBRANCH  11  12
ENDBRANCH   9  11
TORSDOF 2
