REMARK  Name = *****
REMARK  3 active torsions:
REMARK  status: ('A' for Active; 'I' for Inactive)
REMARK    1  A    between atoms: C_4  and  C_7
REMARK    2  A    between atoms: C_7  and  S_9
REMARK    3  A    between atoms: S_9  and  C_10
REMARK                            x       y       z     vdW  Elec       q    Type
REMARK                         _______ _______ _______ _____ _____    ______ ____
ROOT
ATOM      1  C   UNL     1      -3.075   0.528  -0.508  0.00  0.00    +0.000 C 
ATOM      2  O   UNL     1      -3.418   1.701  -0.402  0.00  0.00    +0.000 OA
ENDROOT
BRANCH   1   6
ATOM      3  C   UNL     1       1.016  -0.515   0.323  0.00  0.00    +0.000 A 
ATOM      4  C   UNL     1       0.131  -1.517  -0.068  0.00  0.00    +0.000 A 
ATOM      5  C   UNL     1      -1.205  -1.208  -0.346  0.00  0.00    +0.000 A 
ATOM      6  C   UNL     1      -1.666   0.112  -0.234  0.00  0.00    +0.000 A 
ATOM      7  C   UNL     1      -0.762   1.111   0.161  0.00  0.00    +0.000 A 
ATOM      8  C   UNL     1       0.572   0.799   0.437  0.00  0.00    +0.000 A 
ENDBRANCH   1   6
BRANCH   1   9
ATOM      9  S   UNL     1      -4.243  -0.693  -1.005  0.00  0.00    +0.000 S 
BRANCH   9  10
ATOM     10  C   UNL     1      -5.067  -0.995   0.547  0.00  0.00    +0.000 A 
ATOM     11  C   UNL     1      -5.085  -2.292   1.070  0.00  0.00    +0.000 A 
ATOM     12  C   UNL     1      -5.734  -2.545   2.279  0.00  0.00    +0.000 A 
ATOM     13  C   UNL     1      -6.373  -1.519   2.971  0.00  0.00    +0.000 A 
ATOM     14  C   UNL     1      -6.367  -0.227   2.447  0.00  0.00    +0.000 A 
ATOM     15  C   UNL     1      -5.719   0.033   1.237  0.00  0.00    +0.000 A 
ATOM     16 BR   UNL     1      -5.748  -4.300   2.984  0.00  0.00    +0.000 Br
ENDBRANCH   9  10
ENDBRANCH   1   9
TORSDOF 3
