REMARK  Name = *****
REMARK  4 active torsions:
REMARK  status: ('A' for Active; 'I' for Inactive)
REMARK    1  A    between atoms: C_1  and  C_2
REMARK    2  A    between atoms: C_2  and  C_4
REMARK    3  A    between atoms: C_7  and  C_10
REMARK    4  A    between atoms: C_11  and  C_12
REMARK                            x       y       z     vdW  Elec       q    Type
REMARK                         _______ _______ _______ _____ _____    ______ ____
ROOT
ATOM      1  C   UNL     1       3.223  -1.064  -0.665  0.00  0.00    +0.000 A 
ATOM      2  C   UNL     1       2.736  -1.557  -1.880  0.00  0.00    +0.000 A 
ATOM      3  C   UNL     1       3.426  -2.574  -2.554  0.00  0.00    +0.000 A 
ATOM      4  C   UNL     1       4.613  -3.103  -2.033  0.00  0.00    +0.000 A 
ATOM      5  C   UNL     1       5.086  -2.618  -0.808  0.00  0.00    +0.000 A 
ATOM      6  C   UNL     1       4.400  -1.603  -0.132  0.00  0.00    +0.000 A 
ENDROOT
BRANCH   1   8
ATOM      7  C   UNL     1       1.270   0.619  -0.479  0.00  0.00    +0.000 C 
ATOM      8  C   UNL     1       2.527   0.018   0.094  0.00  0.00    +0.000 C 
ATOM      9  O   UNL     1       2.983   0.404   1.168  0.00  0.00    +0.000 OA
ENDBRANCH   1   8
BRANCH   4  10
ATOM     10  C   UNL     1       5.344  -4.192  -2.696  0.00  0.00    +0.000 C 
ATOM     11  C   UNL     1       5.504  -4.280  -4.027  0.00  0.00    +0.000 C 
BRANCH  11  12
ATOM     12  C   UNL     1       6.252  -5.358  -4.691  0.00  0.00    +0.000 A 
ATOM     13  C   UNL     1       6.201  -6.685  -4.250  0.00  0.00    +0.000 A 
ATOM     14  C   UNL     1       6.903  -7.673  -4.935  0.00  0.00    +0.000 A 
ATOM     15  C   UNL     1       7.653  -7.371  -6.065  0.00  0.00    +0.000 A 
ATOM     16  C   UNL     1       7.698  -6.056  -6.523  0.00  0.00    +0.000 A 
ATOM     17  C   UNL     1       6.996  -5.057  -5.842  0.00  0.00    +0.000 A 
ATOM     18  F   UNL     1       6.849  -8.939  -4.500  0.00  0.00    +0.000 F 
ENDBRANCH  11  12
ENDBRANCH   4  10
TORSDOF 3
