REMARK  Name = *****
REMARK  6 active torsions:
REMARK  status: ('A' for Active; 'I' for Inactive)
REMARK    1  A    between atoms: C_1  and  C_2
REMARK    2  A    between atoms: C_7  and  C_8
REMARK    3  A    between atoms: C_8  and  O_10
REMARK    4  A    between atoms: O_10  and  C_11
REMARK    5  A    between atoms: C_13  and  C_18
REMARK    6  A    between atoms: C_15  and  C_17
REMARK                            x       y       z     vdW  Elec       q    Type
REMARK                         _______ _______ _______ _____ _____    ______ ____
ROOT
ATOM      1  C   UNL     1       1.274  -2.823  -1.074  0.00  0.00    +0.000 C 
ATOM      2  O   UNL     1       0.546  -3.584  -0.456  0.00  0.00    +0.000 OA
ENDROOT
BRANCH   1   9
ATOM      3  C   UNL     1       2.685  -0.124  -0.947  0.00  0.00    +0.000 C 
ATOM      4  C   UNL     1       1.423  -0.362  -1.727  0.00  0.00    +0.000 A 
ATOM      5  C   UNL     1       0.870   0.704  -2.456  0.00  0.00    +0.000 A 
ATOM      6  C   UNL     1      -0.315   0.544  -3.178  0.00  0.00    +0.000 A 
ATOM      7  C   UNL     1      -0.969  -0.685  -3.184  0.00  0.00    +0.000 A 
ATOM      8  C   UNL     1      -0.428  -1.760  -2.481  0.00  0.00    +0.000 A 
ATOM      9  C   UNL     1       0.774  -1.613  -1.771  0.00  0.00    +0.000 A 
ENDBRANCH   1   9
BRANCH   1  10
ATOM     10  O   UNL     1       2.620  -2.963  -1.347  0.00  0.00    +0.000 OA
BRANCH  10  11
ATOM     11  C   UNL     1       3.193  -4.113  -0.797  0.00  0.00    +0.000 A 
ATOM     12  C   UNL     1       2.951  -5.362  -1.367  0.00  0.00    +0.000 A 
ATOM     13  C   UNL     1       3.565  -6.497  -0.829  0.00  0.00    +0.000 A 
ATOM     14  C   UNL     1       4.454  -6.348   0.247  0.00  0.00    +0.000 A 
ATOM     15  C   UNL     1       4.725  -5.084   0.795  0.00  0.00    +0.000 A 
ATOM     16  C   UNL     1       4.079  -3.961   0.268  0.00  0.00    +0.000 A 
ATOM     17  C   UNL     1       5.649  -4.947   1.968  0.00  0.00    +0.000 C 
ATOM     18  C   UNL     1       3.322  -7.848  -1.432  0.00  0.00    +0.000 C 
ENDBRANCH  10  11
ENDBRANCH   1  10
TORSDOF 3
