REMARK  Name = *****
REMARK  3 active torsions:
REMARK  status: ('A' for Active; 'I' for Inactive)
REMARK    1  A    between atoms: C_4  and  O_6
REMARK    2  A    between atoms: O_6  and  C_7
REMARK    3  A    between atoms: C_7  and  C_9
REMARK                            x       y       z     vdW  Elec       q    Type
REMARK                         _______ _______ _______ _____ _____    ______ ____
ROOT
ATOM      1  C   UNL     1      -2.551   1.511   1.771  0.00  0.00    +0.000 C 
ATOM      2  O   UNL     1      -3.496   1.508   1.004  0.00  0.00    +0.000 OA
ENDROOT
BRANCH   1   3
ATOM      3  C   UNL     1      -2.660   1.741   3.207  0.00  0.00    +0.000 A 
ATOM      4  C   UNL     1      -2.305   2.990   3.707  0.00  0.00    +0.000 A 
ATOM      5  C   UNL     1      -2.409   3.264   5.069  0.00  0.00    +0.000 A 
ATOM      6  C   UNL     1      -2.876   2.279   5.938  0.00  0.00    +0.000 A 
ATOM      7  C   UNL     1      -3.235   1.023   5.439  0.00  0.00    +0.000 A 
ATOM      8  C   UNL     1      -3.129   0.751   4.070  0.00  0.00    +0.000 A 
ATOM      9 CL   UNL     1      -3.563  -0.825   3.518  0.00  0.00    +0.000 Cl
ATOM     10  F   UNL     1      -1.858   3.954   2.889  0.00  0.00    +0.000 F 
ENDBRANCH   1   3
BRANCH   1  11
ATOM     11  O   UNL     1      -1.247   1.276   1.489  0.00  0.00    +0.000 OA
BRANCH  11  15
ATOM     12  C   UNL     1       1.111  -0.207   0.444  0.00  0.00    +0.000 C 
ATOM     13  C   UNL     1      -0.039  -1.214   0.427  0.00  0.00    +0.000 C 
ATOM     14  C   UNL     1      -1.225  -0.485  -0.198  0.00  0.00    +0.000 C 
ATOM     15  C   UNL     1      -0.964   0.986   0.111  0.00  0.00    +0.000 C 
ATOM     16  C   UNL     1       0.541   1.102  -0.100  0.00  0.00    +0.000 C 
ENDBRANCH  11  15
ENDBRANCH   1  11
TORSDOF 3
