REMARK  Name = *****
REMARK  5 active torsions:
REMARK  status: ('A' for Active; 'I' for Inactive)
REMARK    1  A    between atoms: C_1  and  C_2
REMARK    2  A    between atoms: C_3  and  S_9
REMARK    3  A    between atoms: C_4  and  C_8
REMARK    4  A    between atoms: S_9  and  C_10
REMARK    5  A    between atoms: C_10  and  C_11
REMARK                            x       y       z     vdW  Elec       q    Type
REMARK                         _______ _______ _______ _____ _____    ______ ____
ROOT
ATOM      1  C   UNL     1       2.697   0.895   0.531  0.00  0.00    +0.000 C 
ATOM      2  C   UNL     1       1.359   0.296   0.181  0.00  0.00    +0.000 A 
ATOM      3  C   UNL     1       0.172   1.064   0.133  0.00  0.00    +0.000 A 
ATOM      4  C   UNL     1      -1.061   0.437  -0.163  0.00  0.00    +0.000 A 
ATOM      5  C   UNL     1      -1.082  -0.940  -0.441  0.00  0.00    +0.000 A 
ATOM      6  C   UNL     1       0.090  -1.690  -0.414  0.00  0.00    +0.000 A 
ATOM      7  C   UNL     1       1.300  -1.078  -0.102  0.00  0.00    +0.000 A 
ATOM      8  C   UNL     1      -2.367   1.189  -0.190  0.00  0.00    +0.000 C 
ENDROOT
BRANCH   3   9
ATOM      9  S   UNL     1       0.226   2.833   0.464  0.00  0.00    +0.000 S 
BRANCH   9  10
ATOM     10  C   UNL     1       0.507   3.416  -1.239  0.00  0.00    +0.000 C 
BRANCH  10  11
ATOM     11  C   UNL     1       0.563   4.922  -1.305  0.00  0.00    +0.000 A 
ATOM     12  C   UNL     1       1.778   5.598  -1.122  0.00  0.00    +0.000 A 
ATOM     13  C   UNL     1       1.828   6.992  -1.174  0.00  0.00    +0.000 A 
ATOM     14  C   UNL     1       0.664   7.724  -1.404  0.00  0.00    +0.000 A 
ATOM     15  C   UNL     1      -0.551   7.063  -1.577  0.00  0.00    +0.000 A 
ATOM     16  C   UNL     1      -0.603   5.670  -1.526  0.00  0.00    +0.000 A 
ENDBRANCH  10  11
ENDBRANCH   9  10
ENDBRANCH   3   9
TORSDOF 3
