REMARK  Name = *****
REMARK  3 active torsions:
REMARK  status: ('A' for Active; 'I' for Inactive)
REMARK    1  A    between atoms: C_3  and  S_8
REMARK    2  A    between atoms: S_8  and  C_9
REMARK    3  A    between atoms: C_9  and  C_10
REMARK                            x       y       z     vdW  Elec       q    Type
REMARK                         _______ _______ _______ _____ _____    ______ ____
ROOT
ATOM      1  C   UNL     1      -4.327   1.559   0.117  0.00  0.00    +0.000 C 
ENDROOT
BRANCH   1   2
ATOM      2  C   UNL     1      -5.829   1.625   0.005  0.00  0.00    +0.000 A 
ATOM      3  C   UNL     1      -6.633   1.637   1.155  0.00  0.00    +0.000 A 
ATOM      4  C   UNL     1      -8.021   1.681   1.039  0.00  0.00    +0.000 A 
ATOM      5  C   UNL     1      -8.638   1.708  -0.203  0.00  0.00    +0.000 A 
ATOM      6  C   UNL     1      -7.844   1.687  -1.341  0.00  0.00    +0.000 A 
ATOM      7  C   UNL     1      -6.454   1.643  -1.251  0.00  0.00    +0.000 A 
ATOM      8  F   UNL     1      -8.423   1.708  -2.549  0.00  0.00    +0.000 F 
ATOM      9  F   UNL     1      -8.772   1.697   2.148  0.00  0.00    +0.000 F 
ENDBRANCH   1   2
BRANCH   1  10
ATOM     10  S   UNL     1      -3.747  -0.168   0.173  0.00  0.00    +0.000 S 
BRANCH  10  13
ATOM     11  C   UNL     1       0.024   0.963   1.230  0.00  0.00    +0.000 A 
ATOM     12  C   UNL     1      -1.358   0.765   1.244  0.00  0.00    +0.000 A 
ATOM     13  C   UNL     1      -1.987   0.112   0.177  0.00  0.00    +0.000 A 
ATOM     14  C   UNL     1      -1.217  -0.360  -0.893  0.00  0.00    +0.000 A 
ATOM     15  C   UNL     1       0.165  -0.161  -0.907  0.00  0.00    +0.000 A 
ATOM     16  C   UNL     1       0.772   0.501   0.154  0.00  0.00    +0.000 A 
ATOM     17  F   UNL     1       2.098   0.691   0.142  0.00  0.00    +0.000 F 
ENDBRANCH  10  13
ENDBRANCH   1  10
TORSDOF 3
