REMARK  Name = *****
REMARK  4 active torsions:
REMARK  status: ('A' for Active; 'I' for Inactive)
REMARK    1  A    between atoms: C_1  and  C_2
REMARK    2  A    between atoms: C_2  and  C_18
REMARK    3  A    between atoms: C_4  and  C_9
REMARK    4  A    between atoms: C_10  and  C_11
REMARK                            x       y       z     vdW  Elec       q    Type
REMARK                         _______ _______ _______ _____ _____    ______ ____
ROOT
ATOM      1  C   UNL     1       1.383  -0.492   1.495  0.00  0.00    +0.000 C 
ATOM      2  C   UNL     1       1.194  -0.302  -0.025  0.00  0.00    +0.000 C 
ATOM      3  C   UNL     1       1.108   1.203  -0.378  0.00  0.00    +0.000 C 
ATOM      4  C   UNL     1      -0.211   1.854  -0.014  0.00  0.00    +0.000 C 
ATOM      5  C   UNL     1      -1.325   1.127   0.184  0.00  0.00    +0.000 C 
ATOM      6  C   UNL     1      -1.336  -0.343  -0.003  0.00  0.00    +0.000 C 
ATOM      7  O   UNL     1      -2.381  -0.963   0.182  0.00  0.00    +0.000 OA
ATOM      8  C   UNL     1      -0.079  -1.021  -0.498  0.00  0.00    +0.000 C 
ATOM      9  C   UNL     1       2.415  -0.916  -0.735  0.00  0.00    +0.000 C 
ENDROOT
BRANCH   4  10
ATOM     10  C   UNL     1      -0.280   3.305   0.134  0.00  0.00    +0.000 C 
ATOM     11  C   UNL     1       0.691   4.181  -0.172  0.00  0.00    +0.000 C 
BRANCH  11  12
ATOM     12  C   UNL     1       0.545   5.634  -0.006  0.00  0.00    +0.000 A 
ATOM     13  C   UNL     1       0.009   6.196   1.161  0.00  0.00    +0.000 A 
ATOM     14  C   UNL     1      -0.088   7.583   1.301  0.00  0.00    +0.000 A 
ATOM     15  C   UNL     1       0.359   8.415   0.277  0.00  0.00    +0.000 A 
ATOM     16  C   UNL     1       0.907   7.872  -0.883  0.00  0.00    +0.000 A 
ATOM     17  C   UNL     1       1.005   6.484  -1.020  0.00  0.00    +0.000 A 
ATOM     18 CL   UNL     1       0.240  10.122   0.448  0.00  0.00    +0.000 Cl
ENDBRANCH  11  12
ENDBRANCH   4  10
TORSDOF 2
