REMARK  Name = *****
REMARK  4 active torsions:
REMARK  status: ('A' for Active; 'I' for Inactive)
REMARK    1  A    between atoms: C_4  and  N_7
REMARK    2  A    between atoms: N_7  and  S_8
REMARK    3  A    between atoms: S_8  and  N_9
REMARK    4  A    between atoms: N_9  and  C_10
REMARK                            x       y       z     vdW  Elec       q    Type
REMARK                         _______ _______ _______ _____ _____    ______ ____
ROOT
ATOM      1  S   UNL     1       3.437  -1.968   0.020  0.00  0.00    +0.000 S 
ENDROOT
BRANCH   1   2
ATOM      2  N   UNL     1       2.690  -0.836  -0.646  0.00  0.00    +0.000 NA
BRANCH   2   6
ATOM      3  C   UNL     1      -1.267   0.742  -0.031  0.00  0.00    +0.000 C 
ATOM      4  C   UNL     1      -1.072  -0.763   0.113  0.00  0.00    +0.000 C 
ATOM      5  C   UNL     1       0.242  -1.225  -0.513  0.00  0.00    +0.000 C 
ATOM      6  C   UNL     1       1.453  -0.462   0.067  0.00  0.00    +0.000 C 
ATOM      7  C   UNL     1       1.236   1.057  -0.102  0.00  0.00    +0.000 C 
ATOM      8  C   UNL     1      -0.078   1.517   0.526  0.00  0.00    +0.000 C 
ENDBRANCH   2   6
ENDBRANCH   1   2
BRANCH   1   9
ATOM      9  N   UNL     1       4.634  -2.229  -0.865  0.00  0.00    +0.000 NA
BRANCH   9  10
ATOM     10  C   UNL     1       5.486  -3.332  -0.380  0.00  0.00    +0.000 C 
ATOM     11  C   UNL     1       6.948  -3.022  -0.770  0.00  0.00    +0.000 C 
ATOM     12  C   UNL     1       7.892  -4.161  -0.389  0.00  0.00    +0.000 C 
ATOM     13  C   UNL     1       7.446  -5.487  -0.994  0.00  0.00    +0.000 C 
ATOM     14  C   UNL     1       6.000  -5.810  -0.632  0.00  0.00    +0.000 C 
ATOM     15  C   UNL     1       5.055  -4.672  -1.013  0.00  0.00    +0.000 C 
ENDBRANCH   9  10
ENDBRANCH   1   9
TORSDOF 4
