REMARK  Name = *****
REMARK  5 active torsions:
REMARK  status: ('A' for Active; 'I' for Inactive)
REMARK    1  A    between atoms: C_1  and  C_2
REMARK    2  A    between atoms: C_4  and  N_8
REMARK    3  A    between atoms: N_8  and  N_9
REMARK    4  A    between atoms: N_9  and  C_11
REMARK    5  A    between atoms: C_15  and  C_17
REMARK                            x       y       z     vdW  Elec       q    Type
REMARK                         _______ _______ _______ _____ _____    ______ ____
ROOT
ATOM      1  N   UNL     1      -1.480   2.629   0.062  0.00  0.00    +0.000 N 
ATOM      2  H   UNL     1      -2.464   2.631   0.033  0.00  0.00    +0.000 HD
ENDROOT
BRANCH   1   6
ATOM      3  C   UNL     1       2.494  -0.387   0.128  0.00  0.00    +0.000 C 
ATOM      4  C   UNL     1       1.019  -0.169  -0.043  0.00  0.00    +0.000 A 
ATOM      5  C   UNL     1       0.480   1.124   0.073  0.00  0.00    +0.000 A 
ATOM      6  C   UNL     1      -0.893   1.359  -0.055  0.00  0.00    +0.000 A 
ATOM      7  C   UNL     1      -1.728   0.252  -0.275  0.00  0.00    +0.000 A 
ATOM      8  C   UNL     1      -1.208  -1.041  -0.376  0.00  0.00    +0.000 A 
ATOM      9  C   UNL     1       0.162  -1.251  -0.256  0.00  0.00    +0.000 A 
ENDBRANCH   1   6
BRANCH   1  10
ATOM     10  N   UNL     1      -0.889   3.912   0.217  0.00  0.00    +0.000 N 
ATOM     11  O   UNL     1       0.314   4.075   0.253  0.00  0.00    +0.000 OA
BRANCH  10  12
ATOM     12  C   UNL     1      -1.739   5.084   0.284  0.00  0.00    +0.000 A 
ATOM     13  C   UNL     1      -2.927   5.049   1.021  0.00  0.00    +0.000 A 
ATOM     14  C   UNL     1      -3.742   6.179   1.059  0.00  0.00    +0.000 A 
ATOM     15  C   UNL     1      -3.369   7.337   0.372  0.00  0.00    +0.000 A 
ATOM     16  C   UNL     1      -2.167   7.387  -0.346  0.00  0.00    +0.000 A 
ATOM     17  C   UNL     1      -1.355   6.247  -0.395  0.00  0.00    +0.000 A 
ATOM     18  C   UNL     1      -1.778   8.624  -1.100  0.00  0.00    +0.000 C 
ENDBRANCH  10  12
ENDBRANCH   1  10
TORSDOF 3
