REMARK  Name = *****
REMARK  5 active torsions:
REMARK  status: ('A' for Active; 'I' for Inactive)
REMARK    1  A    between atoms: C_1  and  C_2
REMARK    2  A    between atoms: C_5  and  C_8
REMARK    3  A    between atoms: C_8  and  S_9
REMARK    4  A    between atoms: S_9  and  C_10
REMARK    5  A    between atoms: C_13  and  C_16
REMARK                            x       y       z     vdW  Elec       q    Type
REMARK                         _______ _______ _______ _____ _____    ______ ____
ROOT
ATOM      1  C   UNL     1      -3.375   0.234  -0.148  0.00  0.00    +0.000 C 
ENDROOT
BRANCH   1   6
ATOM      2  C   UNL     1       2.441   0.024   0.147  0.00  0.00    +0.000 C 
ATOM      3  C   UNL     1       0.943   0.046   0.079  0.00  0.00    +0.000 A 
ATOM      4  C   UNL     1       0.191   0.454   1.186  0.00  0.00    +0.000 A 
ATOM      5  C   UNL     1      -1.203   0.511   1.114  0.00  0.00    +0.000 A 
ATOM      6  C   UNL     1      -1.870   0.164  -0.069  0.00  0.00    +0.000 A 
ATOM      7  C   UNL     1      -1.113  -0.222  -1.183  0.00  0.00    +0.000 A 
ATOM      8  C   UNL     1       0.281  -0.277  -1.110  0.00  0.00    +0.000 A 
ENDBRANCH   1   6
BRANCH   1   9
ATOM      9  S   UNL     1      -3.934   1.826  -0.840  0.00  0.00    +0.000 S 
BRANCH   9  10
ATOM     10  C   UNL     1      -5.684   1.719  -0.514  0.00  0.00    +0.000 A 
ATOM     11  C   UNL     1      -6.450   0.623  -0.920  0.00  0.00    +0.000 A 
ATOM     12  C   UNL     1      -7.823   0.581  -0.654  0.00  0.00    +0.000 A 
ATOM     13  C   UNL     1      -8.448   1.634   0.021  0.00  0.00    +0.000 A 
ATOM     14  C   UNL     1      -7.686   2.745   0.398  0.00  0.00    +0.000 A 
ATOM     15  C   UNL     1      -6.314   2.786   0.132  0.00  0.00    +0.000 A 
ATOM     16  C   UNL     1      -9.927   1.605   0.271  0.00  0.00    +0.000 C 
ENDBRANCH   9  10
ENDBRANCH   1   9
TORSDOF 3
