REMARK  Name = *****
REMARK  6 active torsions:
REMARK  status: ('A' for Active; 'I' for Inactive)
REMARK    1  A    between atoms: C_1  and  C_2
REMARK    2  A    between atoms: C_4  and  C_18
REMARK    3  A    between atoms: C_5  and  C_9
REMARK    4  A    between atoms: C_6  and  C_8
REMARK    5  A    between atoms: C_9  and  S_11
REMARK    6  A    between atoms: S_11  and  C_12
REMARK                            x       y       z     vdW  Elec       q    Type
REMARK                         _______ _______ _______ _____ _____    ______ ____
ROOT
ATOM      1  C   UNL     1       2.293   1.664   0.102  0.00  0.00    +0.000 C 
ATOM      2  C   UNL     1       1.043   0.833   0.052  0.00  0.00    +0.000 A 
ATOM      3  C   UNL     1       1.059  -0.429  -0.555  0.00  0.00    +0.000 A 
ATOM      4  C   UNL     1      -0.105  -1.208  -0.638  0.00  0.00    +0.000 A 
ATOM      5  C   UNL     1      -1.310  -0.676  -0.137  0.00  0.00    +0.000 A 
ATOM      6  C   UNL     1      -1.345   0.587   0.488  0.00  0.00    +0.000 A 
ATOM      7  C   UNL     1      -0.160   1.335   0.561  0.00  0.00    +0.000 A 
ATOM      8  C   UNL     1      -2.616   1.163   1.049  0.00  0.00    +0.000 C 
ATOM      9  C   UNL     1      -0.033  -2.553  -1.306  0.00  0.00    +0.000 C 
ENDROOT
BRANCH   5  10
ATOM     10  C   UNL     1      -2.557  -1.463  -0.244  0.00  0.00    +0.000 C 
ATOM     11  O   UNL     1      -2.942  -2.171   0.677  0.00  0.00    +0.000 OA
BRANCH  10  12
ATOM     12  S   UNL     1      -3.462  -1.233  -1.727  0.00  0.00    +0.000 S 
BRANCH  12  13
ATOM     13  C   UNL     1      -3.674  -2.930  -2.203  0.00  0.00    +0.000 A 
ATOM     14  C   UNL     1      -4.548  -3.768  -1.520  0.00  0.00    +0.000 A 
ATOM     15  C   UNL     1      -4.689  -5.085  -1.951  0.00  0.00    +0.000 A 
ATOM     16  C   UNL     1      -3.964  -5.521  -3.053  0.00  0.00    +0.000 A 
ATOM     17  C   UNL     1      -3.122  -4.617  -3.679  0.00  0.00    +0.000 A 
ATOM     18  N   UNL     1      -2.962  -3.337  -3.280  0.00  0.00    +0.000 NA
ENDBRANCH  12  13
ENDBRANCH  10  12
ENDBRANCH   5  10
TORSDOF 3
