REMARK  Name = *****
REMARK  3 active torsions:
REMARK  status: ('A' for Active; 'I' for Inactive)
REMARK    1  A    between atoms: C_4  and  C_7
REMARK    2  A    between atoms: C_7  and  O_8
REMARK    3  A    between atoms: O_8  and  C_9
REMARK                            x       y       z     vdW  Elec       q    Type
REMARK                         _______ _______ _______ _____ _____    ______ ____
ROOT
ATOM      1  O   UNL     1      -3.444  -0.300  -1.041  0.00  0.00    +0.000 OA
ENDROOT
BRANCH   1   2
ATOM      2  C   UNL     1      -4.812  -0.404  -1.017  0.00  0.00    +0.000 A 
ATOM      3  C   UNL     1      -5.610   0.737  -1.165  0.00  0.00    +0.000 A 
ATOM      4  C   UNL     1      -7.003   0.625  -1.181  0.00  0.00    +0.000 A 
ATOM      5  C   UNL     1      -7.606  -0.628  -1.069  0.00  0.00    +0.000 A 
ATOM      6  C   UNL     1      -6.816  -1.771  -0.951  0.00  0.00    +0.000 A 
ATOM      7  C   UNL     1      -5.423  -1.662  -0.936  0.00  0.00    +0.000 A 
ATOM      8 CL   UNL     1      -4.493  -3.114  -0.819  0.00  0.00    +0.000 Cl
ATOM      9 CL   UNL     1      -4.917   2.310  -1.336  0.00  0.00    +0.000 Cl
ENDBRANCH   1   2
BRANCH   1  10
ATOM     10  C   UNL     1      -2.927  -0.136   0.285  0.00  0.00    +0.000 C 
BRANCH  10  14
ATOM     11  C   UNL     1       1.376   0.005   0.029  0.00  0.00    +0.000 A 
ATOM     12  C   UNL     1       0.704  -1.202  -0.152  0.00  0.00    +0.000 A 
ATOM     13  C   UNL     1      -0.688  -1.246  -0.069  0.00  0.00    +0.000 A 
ATOM     14  C   UNL     1      -1.422  -0.082   0.201  0.00  0.00    +0.000 A 
ATOM     15  C   UNL     1      -0.737   1.129   0.370  0.00  0.00    +0.000 A 
ATOM     16  C   UNL     1       0.656   1.171   0.288  0.00  0.00    +0.000 A 
ENDBRANCH  10  14
ENDBRANCH   1  10
TORSDOF 3
