REMARK  Name = *****
REMARK  4 active torsions:
REMARK  status: ('A' for Active; 'I' for Inactive)
REMARK    1  A    between atoms: C_1  and  C_2
REMARK    2  A    between atoms: C_4  and  C_16
REMARK    3  A    between atoms: C_6  and  C_8
REMARK    4  A    between atoms: C_9  and  C_10
REMARK                            x       y       z     vdW  Elec       q    Type
REMARK                         _______ _______ _______ _____ _____    ______ ____
ROOT
ATOM      1  C   UNL     1       2.402   1.165   0.212  0.00  0.00    +0.000 C 
ATOM      2  C   UNL     1       1.158   0.330   0.133  0.00  0.00    +0.000 A 
ATOM      3  C   UNL     1       1.243  -1.063   0.024  0.00  0.00    +0.000 A 
ATOM      4  C   UNL     1       0.087  -1.845  -0.081  0.00  0.00    +0.000 A 
ATOM      5  C   UNL     1      -1.165  -1.214  -0.109  0.00  0.00    +0.000 A 
ATOM      6  C   UNL     1      -1.273   0.178  -0.000  0.00  0.00    +0.000 A 
ATOM      7  C   UNL     1      -0.102   0.942   0.104  0.00  0.00    +0.000 A 
ATOM      8  C   UNL     1       0.186  -3.334  -0.236  0.00  0.00    +0.000 C 
ENDROOT
BRANCH   6   9
ATOM      9  C   UNL     1      -2.569   0.870  -0.061  0.00  0.00    +0.000 C 
ATOM     10  C   UNL     1      -3.686   0.413   0.528  0.00  0.00    +0.000 C 
BRANCH  10  11
ATOM     11  C   UNL     1      -4.978   1.111   0.482  0.00  0.00    +0.000 A 
ATOM     12  C   UNL     1      -5.438   1.756  -0.674  0.00  0.00    +0.000 A 
ATOM     13  C   UNL     1      -6.687   2.382  -0.690  0.00  0.00    +0.000 A 
ATOM     14  C   UNL     1      -7.493   2.361   0.447  0.00  0.00    +0.000 A 
ATOM     15  C   UNL     1      -7.054   1.710   1.597  0.00  0.00    +0.000 A 
ATOM     16  C   UNL     1      -5.805   1.083   1.612  0.00  0.00    +0.000 A 
ENDBRANCH  10  11
ENDBRANCH   6   9
TORSDOF 2
