REMARK  Name = *****
REMARK  2 active torsions:
REMARK  status: ('A' for Active; 'I' for Inactive)
REMARK    1  A    between atoms: C_2  and  C_14
REMARK    2  A    between atoms: N_3  and  C_4
REMARK                            x       y       z     vdW  Elec       q    Type
REMARK                         _______ _______ _______ _____ _____    ______ ____
ROOT
ATOM      1  C   UNL     1      -2.069  -1.083   0.121  0.00  0.00    +0.000 A 
ATOM      2  C   UNL     1      -3.149  -1.460   0.942  0.00  0.00    +0.000 A 
ATOM      3  C   UNL     1      -4.305  -2.034   0.412  0.00  0.00    +0.000 A 
ATOM      4  C   UNL     1      -4.428  -2.255  -0.950  0.00  0.00    +0.000 A 
ATOM      5  C   UNL     1      -3.375  -1.892  -1.777  0.00  0.00    +0.000 A 
ATOM      6  C   UNL     1      -2.213  -1.316  -1.257  0.00  0.00    +0.000 A 
ATOM      7  F   UNL     1      -1.234  -0.993  -2.117  0.00  0.00    +0.000 F 
ATOM      8  F   UNL     1      -3.481  -2.101  -3.096  0.00  0.00    +0.000 F 
ATOM      9  F   UNL     1      -5.313  -2.382   1.223  0.00  0.00    +0.000 F 
ATOM     10  F   UNL     1      -3.076  -1.271   2.270  0.00  0.00    +0.000 F 
ENDROOT
BRANCH   1  13
ATOM     11  C   UNL     1      -0.156   0.530   0.090  0.00  0.00    +0.000 C 
ATOM     12  C   UNL     1       0.419  -0.845   0.289  0.00  0.00    +0.000 C 
ATOM     13  N   UNL     1      -0.939  -0.505   0.761  0.00  0.00    +0.000 N 
BRANCH  12  14
ATOM     14  C   UNL     1       1.487  -1.062   1.330  0.00  0.00    +0.000 A 
ATOM     15  C   UNL     1       1.238  -1.782   2.511  0.00  0.00    +0.000 A 
ATOM     16  C   UNL     1       2.238  -1.993   3.464  0.00  0.00    +0.000 A 
ATOM     17  C   UNL     1       3.517  -1.488   3.251  0.00  0.00    +0.000 A 
ATOM     18  C   UNL     1       3.795  -0.775   2.089  0.00  0.00    +0.000 A 
ATOM     19  C   UNL     1       2.789  -0.568   1.140  0.00  0.00    +0.000 A 
ENDBRANCH  12  14
ENDBRANCH   1  13
TORSDOF 2
