REMARK  Name = *****
REMARK  4 active torsions:
REMARK  status: ('A' for Active; 'I' for Inactive)
REMARK    1  A    between atoms: C_4  and  C_7
REMARK    2  A    between atoms: C_7  and  C_8
REMARK    3  A    between atoms: C_8  and  C_9
REMARK    4  A    between atoms: C_14  and  N_15
REMARK                            x       y       z     vdW  Elec       q    Type
REMARK                         _______ _______ _______ _____ _____    ______ ____
ROOT
ATOM      1  C   UNL     1      -3.358   1.147   1.100  0.00  0.00    +0.000 C 
ATOM      2  F   UNL     1      -4.731   1.231   1.061  0.00  0.00    +0.000 F 
ATOM      3  F   UNL     1      -3.109   0.261   2.123  0.00  0.00    +0.000 F 
ENDROOT
BRANCH   1   4
ATOM      4  C   UNL     1      -2.722   2.496   1.397  0.00  0.00    +0.000 A 
ATOM      5  C   UNL     1      -1.483   2.527   2.071  0.00  0.00    +0.000 A 
ATOM      6  C   UNL     1      -0.826   3.732   2.308  0.00  0.00    +0.000 A 
ATOM      7  C   UNL     1      -1.388   4.920   1.858  0.00  0.00    +0.000 A 
ATOM      8  C   UNL     1      -2.617   4.902   1.196  0.00  0.00    +0.000 A 
ATOM      9  C   UNL     1      -3.324   3.706   1.009  0.00  0.00    +0.000 A 
BRANCH   9  10
ATOM     10  N   UNL     1      -4.501   3.735   0.245  0.00  0.00    +0.000 N 
ATOM     11  H   UNL     1      -5.015   2.908   0.100  0.00  0.00    +0.000 HD
ATOM     12  H   UNL     1      -4.813   4.583  -0.145  0.00  0.00    +0.000 HD
ENDBRANCH   9  10
ENDBRANCH   1   4
BRANCH   1  13
ATOM     13  C   UNL     1      -2.835   0.533  -0.238  0.00  0.00    +0.000 C 
ATOM     14  F   UNL     1      -1.469   0.404  -0.170  0.00  0.00    +0.000 F 
ATOM     15  F   UNL     1      -3.046   1.406  -1.272  0.00  0.00    +0.000 F 
BRANCH  13  19
ATOM     16  C   UNL     1      -4.699  -3.286  -1.057  0.00  0.00    +0.000 A 
ATOM     17  C   UNL     1      -5.265  -2.114  -1.554  0.00  0.00    +0.000 A 
ATOM     18  C   UNL     1      -4.663  -0.882  -1.293  0.00  0.00    +0.000 A 
ATOM     19  C   UNL     1      -3.486  -0.812  -0.530  0.00  0.00    +0.000 A 
ATOM     20  C   UNL     1      -2.925  -2.000  -0.038  0.00  0.00    +0.000 A 
ATOM     21  C   UNL     1      -3.529  -3.230  -0.300  0.00  0.00    +0.000 A 
ENDBRANCH  13  19
ENDBRANCH   1  13
TORSDOF 4
