REMARK  Name = *****
REMARK  4 active torsions:
REMARK  status: ('A' for Active; 'I' for Inactive)
REMARK    1  A    between atoms: C_1  and  C_2
REMARK    2  A    between atoms: C_4  and  S_8
REMARK    3  A    between atoms: S_8  and  C_9
REMARK    4  A    between atoms: C_10  and  C_11
REMARK                            x       y       z     vdW  Elec       q    Type
REMARK                         _______ _______ _______ _____ _____    ______ ____
ROOT
ATOM      1  S   UNL     1      -2.161   2.378   0.404  0.00  0.00    +0.000 S 
ENDROOT
BRANCH   1   5
ATOM      2  C   UNL     1       2.011  -0.306   2.216  0.00  0.00    +0.000 C 
ATOM      3  C   UNL     1       1.040  -0.051   1.101  0.00  0.00    +0.000 A 
ATOM      4  C   UNL     1       0.036   0.918   1.243  0.00  0.00    +0.000 A 
ATOM      5  C   UNL     1      -0.892   1.140   0.219  0.00  0.00    +0.000 A 
ATOM      6  C   UNL     1      -0.830   0.370  -0.945  0.00  0.00    +0.000 A 
ATOM      7  C   UNL     1       0.155  -0.608  -1.088  0.00  0.00    +0.000 A 
ATOM      8  C   UNL     1       1.084  -0.819  -0.068  0.00  0.00    +0.000 A 
ENDBRANCH   1   5
BRANCH   1   9
ATOM      9  C   UNL     1      -1.248   3.782  -0.042  0.00  0.00    +0.000 C 
ATOM     10  C   UNL     1      -1.712   5.041  -0.014  0.00  0.00    +0.000 C 
BRANCH  10  11
ATOM     11  C   UNL     1      -3.041   5.495   0.411  0.00  0.00    +0.000 A 
ATOM     12  C   UNL     1      -3.471   5.352   1.735  0.00  0.00    +0.000 A 
ATOM     13  C   UNL     1      -4.729   5.817   2.123  0.00  0.00    +0.000 A 
ATOM     14  C   UNL     1      -5.563   6.434   1.191  0.00  0.00    +0.000 A 
ATOM     15  C   UNL     1      -5.138   6.589  -0.128  0.00  0.00    +0.000 A 
ATOM     16  C   UNL     1      -3.880   6.124  -0.516  0.00  0.00    +0.000 A 
ENDBRANCH  10  11
ENDBRANCH   1   9
TORSDOF 3
