REMARK  Name = *****
REMARK  7 active torsions:
REMARK  status: ('A' for Active; 'I' for Inactive)
REMARK    1  A    between atoms: C_1  and  C_2
REMARK    2  A    between atoms: C_3  and  C_18
REMARK    3  A    between atoms: C_5  and  C_8
REMARK    4  A    between atoms: N_6  and  C_7
REMARK    5  A    between atoms: C_9  and  C_10
REMARK    6  A    between atoms: C_13  and  O_16
REMARK    7  A    between atoms: O_16  and  C_17
REMARK                            x       y       z     vdW  Elec       q    Type
REMARK                         _______ _______ _______ _____ _____    ______ ____
ROOT
ATOM      1  C   UNL     1       5.668   1.506  -0.083  0.00  0.00    +0.000 C 
ATOM      2  C   UNL     1       6.940   1.072  -0.073  0.00  0.00    +0.000 C 
ENDROOT
BRANCH   1   7
ATOM      3  C   UNL     1       1.087   0.027   1.021  0.00  0.00    +0.000 C 
ATOM      4  C   UNL     1       2.430  -0.135   0.409  0.00  0.00    +0.000 C 
ATOM      5  C   UNL     1       2.884  -1.178  -0.374  0.00  0.00    +0.000 C 
ATOM      6  S   UNL     1       4.490  -0.874  -0.879  0.00  0.00    +0.000 S 
ATOM      7  C   UNL     1       4.554   0.624  -0.036  0.00  0.00    +0.000 C 
ATOM      8  N   UNL     1       3.407   0.842   0.602  0.00  0.00    +0.000 N 
ATOM      9  C   UNL     1       3.191   2.027   1.436  0.00  0.00    +0.000 C 
ATOM     10  C   UNL     1       2.179  -2.418  -0.809  0.00  0.00    +0.000 C 
ENDBRANCH   1   7
BRANCH   2  11
ATOM     11  C   UNL     1       8.094   1.982  -0.101  0.00  0.00    +0.000 A 
ATOM     12  C   UNL     1       9.206   1.693   0.700  0.00  0.00    +0.000 A 
ATOM     13  C   UNL     1      10.335   2.523   0.688  0.00  0.00    +0.000 A 
ATOM     14  C   UNL     1      10.370   3.645  -0.137  0.00  0.00    +0.000 A 
ATOM     15  C   UNL     1       9.271   3.926  -0.950  0.00  0.00    +0.000 A 
ATOM     16  C   UNL     1       8.144   3.100  -0.941  0.00  0.00    +0.000 A 
BRANCH  14  17
ATOM     17  O   UNL     1      11.402   4.534  -0.245  0.00  0.00    +0.000 OA
ATOM     18  C   UNL     1      12.575   4.260   0.510  0.00  0.00    +0.000 C 
ENDBRANCH  14  17
ENDBRANCH   2  11
TORSDOF 3
