REMARK  Name = *****
REMARK  5 active torsions:
REMARK  status: ('A' for Active; 'I' for Inactive)
REMARK    1  A    between atoms: C_1  and  S_2
REMARK    2  A    between atoms: S_2  and  C_3
REMARK    3  A    between atoms: C_3  and  C_13
REMARK    4  A    between atoms: C_4  and  C_5
REMARK    5  A    between atoms: C_4  and  C_7
REMARK                            x       y       z     vdW  Elec       q    Type
REMARK                         _______ _______ _______ _____ _____    ______ ____
ROOT
ATOM      1  C   UNL     1       3.424  -1.198   1.329  0.00  0.00    +0.000 C 
ATOM      2  C   UNL     1       2.552  -1.786   2.183  0.00  0.00    +0.000 C 
ENDROOT
BRANCH   2   3
ATOM      3  C   UNL     1       1.088  -1.761   1.971  0.00  0.00    +0.000 A 
ATOM      4  C   UNL     1       0.487  -2.628   1.047  0.00  0.00    +0.000 A 
ATOM      5  C   UNL     1      -0.896  -2.605   0.856  0.00  0.00    +0.000 A 
ATOM      6  C   UNL     1      -1.687  -1.720   1.588  0.00  0.00    +0.000 A 
ATOM      7  C   UNL     1      -1.099  -0.858   2.512  0.00  0.00    +0.000 A 
ATOM      8  C   UNL     1       0.284  -0.878   2.705  0.00  0.00    +0.000 A 
ENDBRANCH   2   3
BRANCH   1   9
ATOM      9  C   UNL     1       4.887  -1.243   1.536  0.00  0.00    +0.000 A 
ATOM     10  C   UNL     1       5.679  -2.138   0.802  0.00  0.00    +0.000 A 
ATOM     11  C   UNL     1       7.058  -2.195   1.009  0.00  0.00    +0.000 A 
ATOM     12  C   UNL     1       7.658  -1.361   1.951  0.00  0.00    +0.000 A 
ATOM     13  C   UNL     1       6.880  -0.469   2.688  0.00  0.00    +0.000 A 
ATOM     14  C   UNL     1       5.500  -0.410   2.484  0.00  0.00    +0.000 A 
ENDBRANCH   1   9
BRANCH   1  16
ATOM     15  C   UNL     1       2.860   1.328   0.471  0.00  0.00    +0.000 C 
ATOM     16  S   UNL     1       2.955  -0.370  -0.140  0.00  0.00    +0.000 S 
ENDBRANCH   1  16
BRANCH   2  17
ATOM     17  C   UNL     1       3.007  -2.466   3.359  0.00  0.00    +0.000 C 
ATOM     18  N   UNL     1       3.362  -3.005   4.324  0.00  0.00    +0.000 NA
ENDBRANCH   2  17
TORSDOF 4
