REMARK  Name = *****
REMARK  3 active torsions:
REMARK  status: ('A' for Active; 'I' for Inactive)
REMARK    1  A    between atoms: C_1  and  C_2
REMARK    2  A    between atoms: C_5  and  C_8
REMARK    3  A    between atoms: C_8  and  N_9
REMARK                            x       y       z     vdW  Elec       q    Type
REMARK                         _______ _______ _______ _____ _____    ______ ____
ROOT
ATOM      1  C   UNL     1       2.504  -0.013  -0.016  0.00  0.00    +0.000 C 
ATOM      2  C   UNL     1       1.005   0.014   0.018  0.00  0.00    +0.000 A 
ATOM      3  C   UNL     1       0.314   1.226  -0.092  0.00  0.00    +0.000 A 
ATOM      4  C   UNL     1      -1.083   1.247  -0.097  0.00  0.00    +0.000 A 
ATOM      5  C   UNL     1      -1.813   0.057   0.008  0.00  0.00    +0.000 A 
ATOM      6  C   UNL     1      -1.120  -1.157   0.086  0.00  0.00    +0.000 A 
ATOM      7  C   UNL     1       0.277  -1.178   0.091  0.00  0.00    +0.000 A 
ENDROOT
BRANCH   5   8
ATOM      8  C   UNL     1      -3.323   0.082  -0.012  0.00  0.00    +0.000 C 
BRANCH   8   9
ATOM      9  N   UNL     1      -3.823   0.101  -1.383  0.00  0.00    +0.000 NA
ATOM     10  C   UNL     1      -5.086   0.056  -1.534  0.00  0.00    +0.000 C 
ATOM     11  S   UNL     1      -5.967   0.097  -3.000  0.00  0.00    +0.000 S 
ATOM     12  C   UNL     1      -7.167  -0.770  -1.951  0.00  0.00    +0.000 C 
ATOM     13  S   UNL     1      -6.428  -0.001  -0.480  0.00  0.00    +0.000 S 
ENDBRANCH   8   9
ENDBRANCH   5   8
TORSDOF 2
