REMARK  Name = *****
REMARK  3 active torsions:
REMARK  status: ('A' for Active; 'I' for Inactive)
REMARK    1  A    between atoms: C_4  and  C_7
REMARK    2  A    between atoms: C_7  and  S_8
REMARK    3  A    between atoms: S_8  and  C_9
REMARK                            x       y       z     vdW  Elec       q    Type
REMARK                         _______ _______ _______ _____ _____    ______ ____
ROOT
ATOM      1  S   UNL     1      -3.783  -1.308  -0.113  0.00  0.00    +0.000 S 
ENDROOT
BRANCH   1   2
ATOM      2  C   UNL     1      -5.447  -0.803  -0.509  0.00  0.00    +0.000 A 
ATOM      3  C   UNL     1      -6.129  -1.484  -1.527  0.00  0.00    +0.000 A 
ATOM      4  C   UNL     1      -7.439  -1.132  -1.859  0.00  0.00    +0.000 A 
ATOM      5  C   UNL     1      -8.068  -0.105  -1.167  0.00  0.00    +0.000 A 
ATOM      6  C   UNL     1      -7.413   0.572  -0.145  0.00  0.00    +0.000 A 
ATOM      7  C   UNL     1      -6.103   0.219   0.189  0.00  0.00    +0.000 A 
ATOM      8  F   UNL     1      -9.324   0.233  -1.483  0.00  0.00    +0.000 F 
ENDBRANCH   1   2
BRANCH   1   9
ATOM      9  C   UNL     1      -2.929   0.305  -0.127  0.00  0.00    +0.000 C 
BRANCH   9  13
ATOM     10  C   UNL     1       1.348  -0.191   0.153  0.00  0.00    +0.000 A 
ATOM     11  C   UNL     1       0.746  -0.020  -1.092  0.00  0.00    +0.000 A 
ATOM     12  C   UNL     1      -0.638   0.140  -1.184  0.00  0.00    +0.000 A 
ATOM     13  C   UNL     1      -1.433   0.137  -0.029  0.00  0.00    +0.000 A 
ATOM     14  C   UNL     1      -0.816  -0.044   1.218  0.00  0.00    +0.000 A 
ATOM     15  C   UNL     1       0.567  -0.206   1.307  0.00  0.00    +0.000 A 
ENDBRANCH   9  13
ENDBRANCH   1   9
TORSDOF 3
