REMARK  Name = *****
REMARK  4 active torsions:
REMARK  status: ('A' for Active; 'I' for Inactive)
REMARK    1  A    between atoms: C_1  and  C_2
REMARK    2  A    between atoms: C_5  and  C_8
REMARK    3  A    between atoms: N_9  and  C_10
REMARK    4  A    between atoms: C_11  and  C_17
REMARK                            x       y       z     vdW  Elec       q    Type
REMARK                         _______ _______ _______ _____ _____    ______ ____
ROOT
ATOM      1  C   UNL     1      -3.328   0.223  -0.067  0.00  0.00    +0.000 C 
ATOM      2  N   UNL     1      -3.985   1.274  -0.447  0.00  0.00    +0.000 NA
ENDROOT
BRANCH   2   3
ATOM      3  C   UNL     1      -5.385   1.167  -0.420  0.00  0.00    +0.000 A 
ATOM      4  C   UNL     1      -6.127   1.681   0.660  0.00  0.00    +0.000 A 
ATOM      5  C   UNL     1      -7.526   1.564   0.654  0.00  0.00    +0.000 A 
ATOM      6  C   UNL     1      -8.180   0.960  -0.421  0.00  0.00    +0.000 A 
ATOM      7  C   UNL     1      -7.439   0.475  -1.495  0.00  0.00    +0.000 A 
ATOM      8  C   UNL     1      -6.051   0.580  -1.501  0.00  0.00    +0.000 A 
ATOM      9 CL   UNL     1      -8.246  -0.263  -2.824  0.00  0.00    +0.000 Cl
ATOM     10  C   UNL     1      -5.435   2.345   1.817  0.00  0.00    +0.000 C 
ENDBRANCH   2   3
BRANCH   1  15
ATOM     11  C   UNL     1       2.444   0.020   0.035  0.00  0.00    +0.000 C 
ATOM     12  C   UNL     1       0.945   0.087   0.035  0.00  0.00    +0.000 A 
ATOM     13  C   UNL     1       0.290   1.254  -0.380  0.00  0.00    +0.000 A 
ATOM     14  C   UNL     1      -1.105   1.309  -0.414  0.00  0.00    +0.000 A 
ATOM     15  C   UNL     1      -1.853   0.190  -0.041  0.00  0.00    +0.000 A 
ATOM     16  C   UNL     1      -1.212  -0.983   0.360  0.00  0.00    +0.000 A 
ATOM     17  C   UNL     1       0.184  -1.035   0.392  0.00  0.00    +0.000 A 
ENDBRANCH   1  15
TORSDOF 2
