REMARK  Name = *****
REMARK  3 active torsions:
REMARK  status: ('A' for Active; 'I' for Inactive)
REMARK    1  A    between atoms: C_1  and  N_2
REMARK    2  A    between atoms: N_2  and  C_3
REMARK    3  A    between atoms: C_12  and  C_14
REMARK                            x       y       z     vdW  Elec       q    Type
REMARK                         _______ _______ _______ _____ _____    ______ ____
ROOT
ATOM      1  C   UNL     1       1.050   0.112   0.015  0.00  0.00    +0.000 C 
ATOM      2  N   UNL     1       2.508   0.146  -0.019  0.00  0.00    +0.000 N 
ATOM      3  C   UNL     1       3.142   0.727   1.090  0.00  0.00    +0.000 C 
ATOM      4  O   UNL     1       2.528   1.182   2.055  0.00  0.00    +0.000 OA
ENDROOT
BRANCH   2   5
ATOM      5  C   UNL     1       3.129  -0.852  -0.837  0.00  0.00    +0.000 A 
ATOM      6  C   UNL     1       3.666  -2.040  -0.298  0.00  0.00    +0.000 A 
ATOM      7  C   UNL     1       4.279  -2.986  -1.126  0.00  0.00    +0.000 A 
ATOM      8  C   UNL     1       4.350  -2.765  -2.498  0.00  0.00    +0.000 A 
ATOM      9  C   UNL     1       3.805  -1.615  -3.058  0.00  0.00    +0.000 A 
ATOM     10  C   UNL     1       3.193  -0.667  -2.234  0.00  0.00    +0.000 A 
ATOM     11 CL   UNL     1       2.581   0.762  -2.998  0.00  0.00    +0.000 Cl
ATOM     12 CL   UNL     1       5.104  -3.932  -3.511  0.00  0.00    +0.000 Cl
ATOM     13 CL   UNL     1       3.512  -2.460   1.374  0.00  0.00    +0.000 Cl
ENDBRANCH   2   5
BRANCH   3  14
ATOM     14  C   UNL     1       4.625   0.856   1.088  0.00  0.00    +0.000 A 
ATOM     15  C   UNL     1       5.315   1.328  -0.034  0.00  0.00    +0.000 A 
ATOM     16  C   UNL     1       6.706   1.444   0.003  0.00  0.00    +0.000 A 
ATOM     17  C   UNL     1       7.404   1.107   1.164  0.00  0.00    +0.000 A 
ATOM     18  C   UNL     1       6.714   0.667   2.294  0.00  0.00    +0.000 A 
ATOM     19  C   UNL     1       5.325   0.550   2.261  0.00  0.00    +0.000 A 
ENDBRANCH   3  14
TORSDOF 2
