REMARK  Name = *****
REMARK  3 active torsions:
REMARK  status: ('A' for Active; 'I' for Inactive)
REMARK    1  A    between atoms: C_4  and  C_7
REMARK    2  A    between atoms: C_8  and  C_9
REMARK    3  A    between atoms: C_12  and  C_15
REMARK                            x       y       z     vdW  Elec       q    Type
REMARK                         _______ _______ _______ _____ _____    ______ ____
ROOT
ATOM      1  C   UNL     1       6.146  -0.081  -0.888  0.00  0.00    +0.000 C 
ATOM      2  C   UNL     1       7.048  -1.057  -0.698  0.00  0.00    +0.000 C 
ENDROOT
BRANCH   1   6
ATOM      3  C   UNL     1       2.041  -0.255   0.302  0.00  0.00    +0.000 A 
ATOM      4  C   UNL     1       2.651  -1.391  -0.227  0.00  0.00    +0.000 A 
ATOM      5  C   UNL     1       3.993  -1.350  -0.613  0.00  0.00    +0.000 A 
ATOM      6  C   UNL     1       4.741  -0.175  -0.465  0.00  0.00    +0.000 A 
ATOM      7  C   UNL     1       4.112   0.965   0.052  0.00  0.00    +0.000 A 
ATOM      8  C   UNL     1       2.770   0.924   0.439  0.00  0.00    +0.000 A 
ENDBRANCH   1   6
BRANCH   2   9
ATOM      9  C   UNL     1       8.454  -0.968  -1.118  0.00  0.00    +0.000 A 
ATOM     10  C   UNL     1       9.193   0.218  -1.007  0.00  0.00    +0.000 A 
ATOM     11  C   UNL     1      10.538   0.256  -1.387  0.00  0.00    +0.000 A 
ATOM     12  C   UNL     1      11.155  -0.898  -1.872  0.00  0.00    +0.000 A 
ATOM     13  C   UNL     1      10.437  -2.091  -1.974  0.00  0.00    +0.000 A 
ATOM     14  C   UNL     1       9.092  -2.123  -1.591  0.00  0.00    +0.000 A 
BRANCH  12  15
ATOM     15  C   UNL     1      12.575  -0.869  -2.276  0.00  0.00    +0.000 C 
ATOM     16  O   UNL     1      13.253   0.148  -2.205  0.00  0.00    +0.000 OA
ENDBRANCH  12  15
ENDBRANCH   2   9
TORSDOF 3
