REMARK  Name = *****
REMARK  2 active torsions:
REMARK  status: ('A' for Active; 'I' for Inactive)
REMARK    1  A    between atoms: C_4  and  C_7
REMARK    2  A    between atoms: C_8  and  C_9
REMARK                            x       y       z     vdW  Elec       q    Type
REMARK                         _______ _______ _______ _____ _____    ______ ____
ROOT
ATOM      1  C   UNL     1      -2.809   0.476  -0.361  0.00  0.00    +0.000 C 
ATOM      2  C   UNL     1      -3.757  -0.474  -0.311  0.00  0.00    +0.000 C 
ENDROOT
BRANCH   1   6
ATOM      3  C   UNL     1       1.373  -0.208   0.225  0.00  0.00    +0.000 A 
ATOM      4  C   UNL     1       0.624  -1.127  -0.508  0.00  0.00    +0.000 A 
ATOM      5  C   UNL     1      -0.745  -0.919  -0.700  0.00  0.00    +0.000 A 
ATOM      6  C   UNL     1      -1.379   0.205  -0.153  0.00  0.00    +0.000 A 
ATOM      7  C   UNL     1      -0.611   1.129   0.567  0.00  0.00    +0.000 A 
ATOM      8  C   UNL     1       0.757   0.921   0.760  0.00  0.00    +0.000 A 
ENDBRANCH   1   6
BRANCH   2   9
ATOM      9  C   UNL     1      -5.142  -0.192  -0.510  0.00  0.00    +0.000 A 
ATOM     10  C   UNL     1      -5.805   0.997  -0.775  0.00  0.00    +0.000 A 
ATOM     11  C   UNL     1      -7.216   0.841  -0.908  0.00  0.00    +0.000 A 
ATOM     12  C   UNL     1      -7.604  -0.467  -0.742  0.00  0.00    +0.000 A 
ATOM     13  S   UNL     1      -6.277  -1.492  -0.429  0.00  0.00    +0.000 S 
ENDBRANCH   2   9
TORSDOF 2
