REMARK  Name = *****
REMARK  4 active torsions:
REMARK  status: ('A' for Active; 'I' for Inactive)
REMARK    1  A    between atoms: C_1  and  O_2
REMARK    2  A    between atoms: O_2  and  C_3
REMARK    3  A    between atoms: C_4  and  C_10
REMARK    4  A    between atoms: C_11  and  C_12
REMARK                            x       y       z     vdW  Elec       q    Type
REMARK                         _______ _______ _______ _____ _____    ______ ____
ROOT
ATOM      1  C   UNL     1       3.255   0.904   0.978  0.00  0.00    +0.000 A 
ATOM      2  C   UNL     1       2.698   1.238   2.230  0.00  0.00    +0.000 A 
ATOM      3  C   UNL     1       3.117   2.408   2.883  0.00  0.00    +0.000 A 
ATOM      4  C   UNL     1       4.081   3.236   2.303  0.00  0.00    +0.000 A 
ATOM      5  C   UNL     1       4.632   2.903   1.068  0.00  0.00    +0.000 A 
ATOM      6  C   UNL     1       4.222   1.742   0.408  0.00  0.00    +0.000 A 
ATOM      7 CL   UNL     1       2.477   2.888   4.419  0.00  0.00    +0.000 Cl
ENDROOT
BRANCH   1   9
ATOM      8  C   UNL     1       3.292  -0.584  -0.896  0.00  0.00    +0.000 C 
ATOM      9  O   UNL     1       2.800  -0.254   0.396  0.00  0.00    +0.000 OA
ENDBRANCH   1   9
BRANCH   2  10
ATOM     10  C   UNL     1       1.706   0.382   2.824  0.00  0.00    +0.000 C 
ATOM     11  C   UNL     1       0.878  -0.331   3.322  0.00  0.00    +0.000 C 
BRANCH  11  12
ATOM     12  C   UNL     1      -0.108  -1.179   3.918  0.00  0.00    +0.000 A 
ATOM     13  C   UNL     1      -0.011  -2.566   3.785  0.00  0.00    +0.000 A 
ATOM     14  C   UNL     1      -0.974  -3.392   4.368  0.00  0.00    +0.000 A 
ATOM     15  C   UNL     1      -2.033  -2.833   5.083  0.00  0.00    +0.000 A 
ATOM     16  C   UNL     1      -2.132  -1.448   5.216  0.00  0.00    +0.000 A 
ATOM     17  C   UNL     1      -1.170  -0.620   4.634  0.00  0.00    +0.000 A 
ENDBRANCH  11  12
ENDBRANCH   2  10
TORSDOF 3
