REMARK  Name = *****
REMARK  5 active torsions:
REMARK  status: ('A' for Active; 'I' for Inactive)
REMARK    1  A    between atoms: C_1  and  C_2
REMARK    2  A    between atoms: C_4  and  C_8
REMARK    3  A    between atoms: C_8  and  C_10
REMARK    4  A    between atoms: C_10  and  C_11
REMARK    5  A    between atoms: C_11  and  C_12
REMARK                            x       y       z     vdW  Elec       q    Type
REMARK                         _______ _______ _______ _____ _____    ______ ____
ROOT
ATOM      1  C   UNL     1      -1.873   2.511  -0.001  0.00  0.00    +0.000 C 
ATOM      2  O   UNL     1      -3.102   2.470  -0.020  0.00  0.00    +0.000 OA
ENDROOT
BRANCH   1   6
ATOM      3  C   UNL     1       2.494  -0.060  -0.007  0.00  0.00    +0.000 C 
ATOM      4  C   UNL     1       0.994  -0.018  -0.004  0.00  0.00    +0.000 A 
ATOM      5  C   UNL     1       0.305   1.204  -0.003  0.00  0.00    +0.000 A 
ATOM      6  C   UNL     1      -1.097   1.232  -0.003  0.00  0.00    +0.000 A 
ATOM      7  C   UNL     1      -1.807   0.024  -0.005  0.00  0.00    +0.000 A 
ATOM      8  C   UNL     1      -1.127  -1.194  -0.007  0.00  0.00    +0.000 A 
ATOM      9  C   UNL     1       0.266  -1.215  -0.007  0.00  0.00    +0.000 A 
ENDBRANCH   1   6
BRANCH   1  10
ATOM     10  C   UNL     1      -1.112   3.823   0.025  0.00  0.00    +0.000 C 
BRANCH  10  11
ATOM     11  C   UNL     1      -2.057   5.025   0.040  0.00  0.00    +0.000 C 
BRANCH  11  12
ATOM     12  C   UNL     1      -1.290   6.325   0.078  0.00  0.00    +0.000 A 
ATOM     13  C   UNL     1      -0.900   6.954  -1.112  0.00  0.00    +0.000 A 
ATOM     14  C   UNL     1      -0.170   8.144  -1.076  0.00  0.00    +0.000 A 
ATOM     15  C   UNL     1       0.176   8.707   0.150  0.00  0.00    +0.000 A 
ATOM     16  C   UNL     1      -0.200   8.090   1.341  0.00  0.00    +0.000 A 
ATOM     17  C   UNL     1      -0.930   6.900   1.305  0.00  0.00    +0.000 A 
ATOM     18 CL   UNL     1       1.079  10.172   0.194  0.00  0.00    +0.000 Cl
ENDBRANCH  11  12
ENDBRANCH  10  11
ENDBRANCH   1  10
TORSDOF 4
