REMARK  Name = *****
REMARK  3 active torsions:
REMARK  status: ('A' for Active; 'I' for Inactive)
REMARK    1  A    between atoms: C_4  and  C_7
REMARK    2  A    between atoms: C_8  and  S_9
REMARK    3  A    between atoms: S_9  and  C_10
REMARK                            x       y       z     vdW  Elec       q    Type
REMARK                         _______ _______ _______ _____ _____    ______ ____
ROOT
ATOM      1  C   UNL     1      -2.804   0.674  -0.107  0.00  0.00    +0.000 C 
ATOM      2  C   UNL     1      -3.808  -0.124   0.286  0.00  0.00    +0.000 C 
ENDROOT
BRANCH   1   6
ATOM      3  C   UNL     1       1.336  -0.391  -0.041  0.00  0.00    +0.000 A 
ATOM      4  C   UNL     1       0.394  -1.328  -0.459  0.00  0.00    +0.000 A 
ATOM      5  C   UNL     1      -0.963  -0.995  -0.480  0.00  0.00    +0.000 A 
ATOM      6  C   UNL     1      -1.391   0.276  -0.073  0.00  0.00    +0.000 A 
ATOM      7  C   UNL     1      -0.432   1.215   0.328  0.00  0.00    +0.000 A 
ATOM      8  C   UNL     1       0.924   0.881   0.350  0.00  0.00    +0.000 A 
ENDBRANCH   1   6
BRANCH   2   9
ATOM      9  S   UNL     1      -5.455   0.419   0.225  0.00  0.00    +0.000 S 
BRANCH   9  10
ATOM     10  C   UNL     1      -6.172  -0.912   1.120  0.00  0.00    +0.000 A 
ATOM     11  C   UNL     1      -6.138  -1.086   2.488  0.00  0.00    +0.000 A 
ATOM     12  C   UNL     1      -6.823  -2.267   2.899  0.00  0.00    +0.000 A 
ATOM     13  C   UNL     1      -7.364  -2.946   1.830  0.00  0.00    +0.000 A 
ATOM     14  S   UNL     1      -7.047  -2.160   0.344  0.00  0.00    +0.000 S 
ENDBRANCH   9  10
ENDBRANCH   2   9
TORSDOF 3
