REMARK  Name = *****
REMARK  5 active torsions:
REMARK  status: ('A' for Active; 'I' for Inactive)
REMARK    1  A    between atoms: C_1  and  N_2
REMARK    2  A    between atoms: N_2  and  C_3
REMARK    3  A    between atoms: N_2  and  C_11
REMARK    4  A    between atoms: C_3  and  S_4
REMARK    5  A    between atoms: S_4  and  C_5
REMARK                            x       y       z     vdW  Elec       q    Type
REMARK                         _______ _______ _______ _____ _____    ______ ____
ROOT
ATOM      1  C   UNL     1       1.179   0.146  -0.243  0.00  0.00    +0.000 C 
ATOM      2  N   UNL     1       2.433  -0.216   0.432  0.00  0.00    +0.000 N 
ENDROOT
BRANCH   2   3
ATOM      3  C   UNL     1       3.262  -0.964  -0.429  0.00  0.00    +0.000 A 
ATOM      4  C   UNL     1       4.383  -0.432  -1.084  0.00  0.00    +0.000 A 
ATOM      5  C   UNL     1       5.164  -1.224  -1.935  0.00  0.00    +0.000 A 
ATOM      6  C   UNL     1       4.830  -2.559  -2.141  0.00  0.00    +0.000 A 
ATOM      7  C   UNL     1       3.723  -3.110  -1.506  0.00  0.00    +0.000 A 
ATOM      8  C   UNL     1       2.946  -2.313  -0.659  0.00  0.00    +0.000 A 
ATOM      9 CL   UNL     1       5.790  -3.530  -3.187  0.00  0.00    +0.000 Cl
ENDBRANCH   2   3
BRANCH   2  10
ATOM     10  C   UNL     1       3.082   0.876   1.170  0.00  0.00    +0.000 C 
BRANCH  10  11
ATOM     11  S   UNL     1       2.193   1.218   2.729  0.00  0.00    +0.000 S 
BRANCH  11  12
ATOM     12  C   UNL     1       3.123   2.633   3.286  0.00  0.00    +0.000 A 
ATOM     13  C   UNL     1       2.486   3.873   3.393  0.00  0.00    +0.000 A 
ATOM     14  C   UNL     1       3.195   4.995   3.829  0.00  0.00    +0.000 A 
ATOM     15  C   UNL     1       4.542   4.880   4.168  0.00  0.00    +0.000 A 
ATOM     16  C   UNL     1       5.179   3.643   4.078  0.00  0.00    +0.000 A 
ATOM     17  C   UNL     1       4.471   2.521   3.643  0.00  0.00    +0.000 A 
ENDBRANCH  11  12
ENDBRANCH  10  11
ENDBRANCH   2  10
TORSDOF 4
