REMARK  Name = *****
REMARK  5 active torsions:
REMARK  status: ('A' for Active; 'I' for Inactive)
REMARK    1  A    between atoms: C_1  and  C_2
REMARK    2  A    between atoms: C_4  and  C_15
REMARK    3  A    between atoms: C_4  and  C_16
REMARK    4  A    between atoms: C_5  and  C_7
REMARK    5  A    between atoms: C_8  and  C_9
REMARK                            x       y       z     vdW  Elec       q    Type
REMARK                         _______ _______ _______ _____ _____    ______ ____
ROOT
ATOM      1  C   UNL     1       1.078   0.045  -0.119  0.00  0.00    +0.000 C 
ATOM      2  C   UNL     1       2.589  -0.029   0.061  0.00  0.00    +0.000 C 
ATOM      3  C   UNL     1       3.053  -1.321   0.755  0.00  0.00    +0.000 C 
ATOM      4  C   UNL     1       3.406  -0.951   2.219  0.00  0.00    +0.000 C 
ATOM      5  C   UNL     1       3.547   0.551   2.135  0.00  0.00    +0.000 C 
ATOM      6  C   UNL     1       3.101   1.040   0.972  0.00  0.00    +0.000 C 
ATOM      7  C   UNL     1       2.274  -1.347   3.178  0.00  0.00    +0.000 C 
ATOM      8  C   UNL     1       4.707  -1.645   2.643  0.00  0.00    +0.000 C 
ENDROOT
BRANCH   5   9
ATOM      9  C   UNL     1       4.067   1.376   3.165  0.00  0.00    +0.000 C 
ATOM     10  C   UNL     1       4.510   2.068   4.041  0.00  0.00    +0.000 C 
BRANCH  10  11
ATOM     11  C   UNL     1       5.042   2.891   5.082  0.00  0.00    +0.000 A 
ATOM     12  C   UNL     1       4.707   4.246   5.144  0.00  0.00    +0.000 A 
ATOM     13  C   UNL     1       5.228   5.050   6.159  0.00  0.00    +0.000 A 
ATOM     14  C   UNL     1       6.085   4.500   7.113  0.00  0.00    +0.000 A 
ATOM     15  C   UNL     1       6.421   3.148   7.053  0.00  0.00    +0.000 A 
ATOM     16  C   UNL     1       5.900   2.343   6.038  0.00  0.00    +0.000 A 
ENDBRANCH  10  11
ENDBRANCH   5   9
TORSDOF 2
