REMARK  Name = *****
REMARK  5 active torsions:
REMARK  status: ('A' for Active; 'I' for Inactive)
REMARK    1  A    between atoms: C_1  and  C_2
REMARK    2  A    between atoms: C_2  and  C_3
REMARK    3  A    between atoms: C_2  and  N_9
REMARK    4  A    between atoms: N_9  and  C_10
REMARK    5  A    between atoms: N_9  and  C_11
REMARK                            x       y       z     vdW  Elec       q    Type
REMARK                         _______ _______ _______ _____ _____    ______ ____
ROOT
ATOM      1  C   UNL     1       0.513   0.107  -0.176  0.00  0.00    +0.000 C 
ATOM      2  C   UNL     1       2.044   0.025  -0.248  0.00  0.00    +0.000 C 
ENDROOT
BRANCH   2   3
ATOM      3  C   UNL     1       2.650  -1.341   0.077  0.00  0.00    +0.000 A 
ATOM      4  C   UNL     1       1.896  -2.521   0.164  0.00  0.00    +0.000 A 
ATOM      5  C   UNL     1       2.508  -3.741   0.467  0.00  0.00    +0.000 A 
ATOM      6  C   UNL     1       3.882  -3.801   0.686  0.00  0.00    +0.000 A 
ATOM      7  C   UNL     1       4.649  -2.643   0.599  0.00  0.00    +0.000 A 
ATOM      8  C   UNL     1       4.038  -1.424   0.298  0.00  0.00    +0.000 A 
ENDBRANCH   2   3
BRANCH   2   9
ATOM      9  N   UNL     1       2.486   0.510  -1.575  0.00  0.00    +0.000 N 
ATOM     10  C   UNL     1       2.439  -0.421  -2.700  0.00  0.00    +0.000 C 
BRANCH   9  11
ATOM     11  C   UNL     1       3.255   1.669  -1.673  0.00  0.00    +0.000 A 
ATOM     12  C   UNL     1       4.273   1.815  -2.631  0.00  0.00    +0.000 A 
ATOM     13  C   UNL     1       5.036   2.986  -2.732  0.00  0.00    +0.000 A 
ATOM     14  C   UNL     1       4.791   4.054  -1.878  0.00  0.00    +0.000 A 
ATOM     15  C   UNL     1       3.782   3.949  -0.929  0.00  0.00    +0.000 A 
ATOM     16  C   UNL     1       3.027   2.774  -0.835  0.00  0.00    +0.000 A 
ENDBRANCH   9  11
ENDBRANCH   2   9
TORSDOF 3
