REMARK  Name = *****
REMARK  6 active torsions:
REMARK  status: ('A' for Active; 'I' for Inactive)
REMARK    1  A    between atoms: C_1  and  C_2
REMARK    2  A    between atoms: C_4  and  C_18
REMARK    3  A    between atoms: C_7  and  C_8
REMARK    4  A    between atoms: C_8  and  O_10
REMARK    5  A    between atoms: O_10  and  C_11
REMARK    6  A    between atoms: C_11  and  C_12
REMARK                            x       y       z     vdW  Elec       q    Type
REMARK                         _______ _______ _______ _____ _____    ______ ____
ROOT
ATOM      1  C   UNL     1       1.932  -2.204   0.979  0.00  0.00    +0.000 C 
ATOM      2  O   UNL     1       1.678  -2.023   2.161  0.00  0.00    +0.000 OA
ENDROOT
BRANCH   1   9
ATOM      3  C   UNL     1       0.842  -0.163  -0.815  0.00  0.00    +0.000 C 
ATOM      4  C   UNL     1       2.290  -0.032  -0.336  0.00  0.00    +0.000 C 
ATOM      5  C   UNL     1       2.423   1.080   0.675  0.00  0.00    +0.000 C 
ATOM      6  C   UNL     1       3.229   1.026   1.750  0.00  0.00    +0.000 C 
ATOM      7  C   UNL     1       4.110  -0.161   2.041  0.00  0.00    +0.000 C 
ATOM      8  C   UNL     1       4.217  -1.158   0.883  0.00  0.00    +0.000 C 
ATOM      9  C   UNL     1       2.893  -1.371   0.139  0.00  0.00    +0.000 C 
ATOM     10  C   UNL     1       3.301   2.149   2.745  0.00  0.00    +0.000 C 
ENDBRANCH   1   9
BRANCH   1  11
ATOM     11  O   UNL     1       1.392  -3.190   0.207  0.00  0.00    +0.000 OA
BRANCH  11  12
ATOM     12  C   UNL     1       0.412  -4.017   0.845  0.00  0.00    +0.000 C 
BRANCH  12  13
ATOM     13  C   UNL     1      -0.964  -3.523   0.482  0.00  0.00    +0.000 A 
ATOM     14  C   UNL     1      -1.548  -3.876  -0.743  0.00  0.00    +0.000 A 
ATOM     15  C   UNL     1      -2.811  -3.395  -1.089  0.00  0.00    +0.000 A 
ATOM     16  C   UNL     1      -3.499  -2.551  -0.219  0.00  0.00    +0.000 A 
ATOM     17  C   UNL     1      -2.922  -2.183   0.995  0.00  0.00    +0.000 A 
ATOM     18  C   UNL     1      -1.659  -2.663   1.344  0.00  0.00    +0.000 A 
ENDBRANCH  12  13
ENDBRANCH  11  12
ENDBRANCH   1  11
TORSDOF 4
