REMARK  Name = *****
REMARK  4 active torsions:
REMARK  status: ('A' for Active; 'I' for Inactive)
REMARK    1  A    between atoms: C_3  and  C_8
REMARK    2  A    between atoms: C_8  and  C_9
REMARK    3  A    between atoms: C_9  and  C_10
REMARK    4  A    between atoms: C_10  and  C_12
REMARK                            x       y       z     vdW  Elec       q    Type
REMARK                         _______ _______ _______ _____ _____    ______ ____
ROOT
ATOM      1  C   UNL     1       1.510   3.705  -0.042  0.00  0.00    +0.000 C 
ENDROOT
BRANCH   1   2
ATOM      2  C   UNL     1       2.257   5.026  -0.050  0.00  0.00    +0.000 C 
ATOM      3  O   UNL     1       3.485   5.084  -0.025  0.00  0.00    +0.000 OA
BRANCH   2   4
ATOM      4  C   UNL     1       1.470   6.297  -0.092  0.00  0.00    +0.000 A 
ATOM      5  C   UNL     1       0.071   6.311  -0.128  0.00  0.00    +0.000 A 
ATOM      6  C   UNL     1      -0.608   7.530  -0.168  0.00  0.00    +0.000 A 
ATOM      7  C   UNL     1       0.090   8.737  -0.173  0.00  0.00    +0.000 A 
ATOM      8  C   UNL     1       1.482   8.729  -0.137  0.00  0.00    +0.000 A 
ATOM      9  C   UNL     1       2.170   7.514  -0.097  0.00  0.00    +0.000 A 
ATOM     10 CL   UNL     1      -2.328   7.542  -0.213  0.00  0.00    +0.000 Cl
ENDBRANCH   2   4
ENDBRANCH   1   2
BRANCH   1  11
ATOM     11  C   UNL     1       2.468   2.515  -0.004  0.00  0.00    +0.000 C 
BRANCH  11  14
ATOM     12  C   UNL     1       0.644  -0.613  -1.199  0.00  0.00    +0.000 A 
ATOM     13  C   UNL     1       1.358   0.587  -1.204  0.00  0.00    +0.000 A 
ATOM     14  C   UNL     1       1.717   1.206   0.002  0.00  0.00    +0.000 A 
ATOM     15  C   UNL     1       1.341   0.608   1.213  0.00  0.00    +0.000 A 
ATOM     16  C   UNL     1       0.627  -0.590   1.211  0.00  0.00    +0.000 A 
ATOM     17  C   UNL     1       0.277  -1.203   0.010  0.00  0.00    +0.000 A 
ATOM     18 CL   UNL     1       0.171  -1.315   2.704  0.00  0.00    +0.000 Cl
ENDBRANCH  11  14
ENDBRANCH   1  11
TORSDOF 4
