REMARK  Name = *****
REMARK  4 active torsions:
REMARK  status: ('A' for Active; 'I' for Inactive)
REMARK    1  A    between atoms: C_1  and  C_2
REMARK    2  A    between atoms: C_7  and  O_8
REMARK    3  A    between atoms: O_8  and  C_9
REMARK    4  A    between atoms: C_9  and  C_10
REMARK                            x       y       z     vdW  Elec       q    Type
REMARK                         _______ _______ _______ _____ _____    ______ ____
ROOT
ATOM      1  O   UNL     1       1.558  -1.913   0.514  0.00  0.00    +0.000 OA
ENDROOT
BRANCH   1   8
ATOM      2  C   UNL     1       2.554   0.828   0.295  0.00  0.00    +0.000 C 
ATOM      3  C   UNL     1       1.085   0.447   0.503  0.00  0.00    +0.000 C 
ATOM      4  C   UNL     1       0.169   1.548  -0.048  0.00  0.00    +0.000 C 
ATOM      5  C   UNL     1      -1.305   1.190   0.112  0.00  0.00    +0.000 C 
ATOM      6  C   UNL     1      -1.625  -0.157  -0.524  0.00  0.00    +0.000 C 
ATOM      7  C   UNL     1      -0.722  -1.259   0.018  0.00  0.00    +0.000 C 
ATOM      8  C   UNL     1       0.765  -0.918  -0.142  0.00  0.00    +0.000 C 
ENDBRANCH   1   8
BRANCH   1   9
ATOM      9  C   UNL     1       1.803  -3.064  -0.293  0.00  0.00    +0.000 C 
BRANCH   9  10
ATOM     10  C   UNL     1       2.597  -4.077   0.493  0.00  0.00    +0.000 A 
ATOM     11  C   UNL     1       3.647  -4.782  -0.114  0.00  0.00    +0.000 A 
ATOM     12  C   UNL     1       4.358  -5.749   0.600  0.00  0.00    +0.000 A 
ATOM     13  C   UNL     1       4.023  -6.029   1.923  0.00  0.00    +0.000 A 
ATOM     14  C   UNL     1       2.975  -5.344   2.534  0.00  0.00    +0.000 A 
ATOM     15  C   UNL     1       2.264  -4.377   1.822  0.00  0.00    +0.000 A 
ENDBRANCH   9  10
ENDBRANCH   1   9
TORSDOF 3
