REMARK  Name = *****
REMARK  3 active torsions:
REMARK  status: ('A' for Active; 'I' for Inactive)
REMARK    1  A    between atoms: C_6  and  O_7
REMARK    2  A    between atoms: O_7  and  C_8
REMARK    3  A    between atoms: C_8  and  C_10
REMARK                            x       y       z     vdW  Elec       q    Type
REMARK                         _______ _______ _______ _____ _____    ______ ____
ROOT
ATOM      1  C   UNL     1       4.498   1.329   0.305  0.00  0.00    +0.000 C 
ATOM      2  O   UNL     1       3.963   2.321   0.777  0.00  0.00    +0.000 OA
ENDROOT
BRANCH   1   3
ATOM      3  C   UNL     1       5.970   1.211   0.186  0.00  0.00    +0.000 A 
ATOM      4  C   UNL     1       6.592   0.305  -0.677  0.00  0.00    +0.000 A 
ATOM      5  C   UNL     1       7.980   0.245  -0.746  0.00  0.00    +0.000 A 
ATOM      6  C   UNL     1       8.756   1.090   0.037  0.00  0.00    +0.000 A 
ATOM      7  C   UNL     1       8.157   2.008   0.893  0.00  0.00    +0.000 A 
ATOM      8  C   UNL     1       6.763   2.072   0.967  0.00  0.00    +0.000 A 
ATOM      9  F   UNL     1      10.093   1.033  -0.030  0.00  0.00    +0.000 F 
ATOM     10  F   UNL     1       8.570  -0.628  -1.575  0.00  0.00    +0.000 F 
ATOM     11  F   UNL     1       5.877  -0.506  -1.470  0.00  0.00    +0.000 F 
ENDBRANCH   1   3
BRANCH   1  12
ATOM     12  O   UNL     1       3.885   0.165  -0.111  0.00  0.00    +0.000 OA
BRANCH  12  18
ATOM     13  C   UNL     1       1.706   1.057  -0.751  0.00  0.00    +0.000 A 
ATOM     14  C   UNL     1       0.315   0.959  -0.692  0.00  0.00    +0.000 A 
ATOM     15  C   UNL     1      -0.277  -0.059   0.058  0.00  0.00    +0.000 A 
ATOM     16  C   UNL     1       0.509  -0.985   0.746  0.00  0.00    +0.000 A 
ATOM     17  C   UNL     1       1.900  -0.889   0.692  0.00  0.00    +0.000 A 
ATOM     18  C   UNL     1       2.486   0.143  -0.040  0.00  0.00    +0.000 A 
ATOM     19 CL   UNL     1      -1.993  -0.181   0.125  0.00  0.00    +0.000 Cl
ENDBRANCH  12  18
ENDBRANCH   1  12
TORSDOF 3
