REMARK  Name = *****
REMARK  4 active torsions:
REMARK  status: ('A' for Active; 'I' for Inactive)
REMARK    1  A    between atoms: C_2  and  C_4
REMARK    2  A    between atoms: C_2  and  C_11
REMARK    3  A    between atoms: C_4  and  C_5
REMARK    4  A    between atoms: C_11  and  C_12
REMARK                            x       y       z     vdW  Elec       q    Type
REMARK                         _______ _______ _______ _____ _____    ______ ____
ROOT
ATOM      1  C   UNL     1      -0.077   0.517  -0.040  0.00  0.00    +0.000 C 
ATOM      2  C   UNL     1       1.043  -0.517   0.001  0.00  0.00    +0.000 C 
ATOM      3  O   UNL     1      -0.309  -0.805   0.440  0.00  0.00    +0.000 OA
ENDROOT
BRANCH   2   4
ATOM      4  C   UNL     1       1.391  -1.288  -1.252  0.00  0.00    +0.000 C 
BRANCH   4   5
ATOM      5  C   UNL     1       2.525  -0.648  -2.016  0.00  0.00    +0.000 A 
ATOM      6  C   UNL     1       3.803  -1.225  -2.010  0.00  0.00    +0.000 A 
ATOM      7  C   UNL     1       4.855  -0.629  -2.707  0.00  0.00    +0.000 A 
ATOM      8  C   UNL     1       4.640   0.549  -3.420  0.00  0.00    +0.000 A 
ATOM      9  C   UNL     1       3.374   1.130  -3.438  0.00  0.00    +0.000 A 
ATOM     10  C   UNL     1       2.321   0.534  -2.741  0.00  0.00    +0.000 A 
ENDBRANCH   4   5
ENDBRANCH   2   4
BRANCH   2  11
ATOM     11  C   UNL     1       2.027  -0.587   1.153  0.00  0.00    +0.000 C 
BRANCH  11  12
ATOM     12  C   UNL     1       2.475   0.775   1.629  0.00  0.00    +0.000 A 
ATOM     13  C   UNL     1       1.943   1.323   2.806  0.00  0.00    +0.000 A 
ATOM     14  C   UNL     1       2.345   2.585   3.246  0.00  0.00    +0.000 A 
ATOM     15  C   UNL     1       3.280   3.314   2.515  0.00  0.00    +0.000 A 
ATOM     16  C   UNL     1       3.815   2.780   1.344  0.00  0.00    +0.000 A 
ATOM     17  C   UNL     1       3.416   1.518   0.903  0.00  0.00    +0.000 A 
ENDBRANCH  11  12
ENDBRANCH   2  11
TORSDOF 4
