REMARK  Name = *****
REMARK  5 active torsions:
REMARK  status: ('A' for Active; 'I' for Inactive)
REMARK    1  A    between atoms: C_1  and  N_2
REMARK    2  A    between atoms: C_6  and  C_7
REMARK    3  A    between atoms: C_7  and  C_8
REMARK    4  A    between atoms: C_8  and  S_11
REMARK    5  A    between atoms: S_11  and  C_12
REMARK                            x       y       z     vdW  Elec       q    Type
REMARK                         _______ _______ _______ _____ _____    ______ ____
ROOT
ATOM      1  C   UNL     1      -0.175   3.275  -1.300  0.00  0.00    +0.000 C 
ATOM      2  F   UNL     1       0.103   2.574  -2.440  0.00  0.00    +0.000 F 
ATOM      3  F   UNL     1      -1.536   3.341  -1.219  0.00  0.00    +0.000 F 
ENDROOT
BRANCH   1   4
ATOM      4  C   UNL     1       0.406   2.532  -0.065  0.00  0.00    +0.000 C 
ATOM      5  F   UNL     1       0.132   3.242   1.073  0.00  0.00    +0.000 F 
ATOM      6  F   UNL     1       1.772   2.497  -0.137  0.00  0.00    +0.000 F 
BRANCH   4  12
ATOM      7  C   UNL     1       1.704  -0.050  -1.181  0.00  0.00    +0.000 C 
ATOM      8  N   UNL     1       0.464   0.007  -0.435  0.00  0.00    +0.000 N 
ATOM      9  C   UNL     1      -0.292  -1.097  -0.130  0.00  0.00    +0.000 A 
ATOM     10  C   UNL     1      -1.381  -0.686   0.604  0.00  0.00    +0.000 A 
ATOM     11  C   UNL     1      -1.282   0.715   0.746  0.00  0.00    +0.000 A 
ATOM     12  C   UNL     1      -0.136   1.133   0.089  0.00  0.00    +0.000 A 
ENDBRANCH   4  12
ENDBRANCH   1   4
BRANCH   1  13
ATOM     13  S   UNL     1       0.494   4.976  -1.475  0.00  0.00    +0.000 S 
BRANCH  13  14
ATOM     14  C   UNL     1      -0.158   5.405  -3.077  0.00  0.00    +0.000 A 
ATOM     15  C   UNL     1      -1.534   5.503  -3.306  0.00  0.00    +0.000 A 
ATOM     16  C   UNL     1      -2.015   5.861  -4.568  0.00  0.00    +0.000 A 
ATOM     17  C   UNL     1      -1.124   6.133  -5.604  0.00  0.00    +0.000 A 
ATOM     18  C   UNL     1       0.249   6.054  -5.379  0.00  0.00    +0.000 A 
ATOM     19  C   UNL     1       0.731   5.696  -4.117  0.00  0.00    +0.000 A 
ENDBRANCH  13  14
ENDBRANCH   1  13
TORSDOF 4
