REMARK  Name = *****
REMARK  6 active torsions:
REMARK  status: ('A' for Active; 'I' for Inactive)
REMARK    1  A    between atoms: C_1  and  C_2
REMARK    2  A    between atoms: C_5  and  O_8
REMARK    3  A    between atoms: O_8  and  C_9
REMARK    4  A    between atoms: C_9  and  O_11
REMARK    5  A    between atoms: O_11  and  C_12
REMARK    6  A    between atoms: C_15  and  C_18
REMARK                            x       y       z     vdW  Elec       q    Type
REMARK                         _______ _______ _______ _____ _____    ______ ____
ROOT
ATOM      1  C   UNL     1      -3.858   0.403   1.053  0.00  0.00    +0.000 C 
ATOM      2  O   UNL     1      -3.485   1.489   1.476  0.00  0.00    +0.000 OA
ENDROOT
BRANCH   1   3
ATOM      3  O   UNL     1      -3.065  -0.559   0.440  0.00  0.00    +0.000 OA
BRANCH   3   8
ATOM      4  C   UNL     1       2.494   0.501  -0.116  0.00  0.00    +0.000 C 
ATOM      5  C   UNL     1       1.021   0.261   0.041  0.00  0.00    +0.000 A 
ATOM      6  C   UNL     1       0.457   0.137   1.319  0.00  0.00    +0.000 A 
ATOM      7  C   UNL     1      -0.906  -0.119   1.470  0.00  0.00    +0.000 A 
ATOM      8  C   UNL     1      -1.706  -0.242   0.335  0.00  0.00    +0.000 A 
ATOM      9  C   UNL     1      -1.159  -0.158  -0.942  0.00  0.00    +0.000 A 
ATOM     10  C   UNL     1       0.206   0.095  -1.088  0.00  0.00    +0.000 A 
ENDBRANCH   3   8
ENDBRANCH   1   3
BRANCH   1  11
ATOM     11  O   UNL     1      -5.151  -0.100   1.094  0.00  0.00    +0.000 OA
BRANCH  11  12
ATOM     12  C   UNL     1      -6.058   0.761   1.713  0.00  0.00    +0.000 A 
ATOM     13  C   UNL     1      -6.829   1.611   0.925  0.00  0.00    +0.000 A 
ATOM     14  C   UNL     1      -7.773   2.436   1.536  0.00  0.00    +0.000 A 
ATOM     15  C   UNL     1      -7.962   2.392   2.925  0.00  0.00    +0.000 A 
ATOM     16  C   UNL     1      -7.178   1.523   3.699  0.00  0.00    +0.000 A 
ATOM     17  C   UNL     1      -6.233   0.695   3.093  0.00  0.00    +0.000 A 
ATOM     18  C   UNL     1      -8.952   3.307   3.584  0.00  0.00    +0.000 C 
ENDBRANCH  11  12
ENDBRANCH   1  11
TORSDOF 4
