REMARK  Name = *****
REMARK  3 active torsions:
REMARK  status: ('A' for Active; 'I' for Inactive)
REMARK    1  A    between atoms: C_4  and  N_7
REMARK    2  A    between atoms: N_7  and  S_8
REMARK    3  A    between atoms: S_8  and  C_10
REMARK                            x       y       z     vdW  Elec       q    Type
REMARK                         _______ _______ _______ _____ _____    ______ ____
ROOT
ATOM      1  S   UNL     1      -3.938  -1.200  -0.665  0.00  0.00    +0.000 S 
ATOM      2  O   UNL     1      -3.836  -2.368   0.268  0.00  0.00    +0.000 OA
ENDROOT
BRANCH   1   3
ATOM      3  C   UNL     1      -5.470  -0.339  -0.241  0.00  0.00    +0.000 A 
ATOM      4  C   UNL     1      -6.068   0.507  -1.181  0.00  0.00    +0.000 A 
ATOM      5  C   UNL     1      -7.247   1.176  -0.854  0.00  0.00    +0.000 A 
ATOM      6  C   UNL     1      -7.837   1.009   0.398  0.00  0.00    +0.000 A 
ATOM      7  C   UNL     1      -7.244   0.163   1.335  0.00  0.00    +0.000 A 
ATOM      8  C   UNL     1      -6.064  -0.510   1.016  0.00  0.00    +0.000 A 
ATOM      9 CL   UNL     1      -7.979   2.221  -2.010  0.00  0.00    +0.000 Cl
ENDBRANCH   1   3
BRANCH   1  10
ATOM     10  N   UNL     1      -2.970   0.056  -0.137  0.00  0.00    +0.000 N 
ATOM     11  H   UNL     1      -3.404   0.888   0.159  0.00  0.00    +0.000 HD
BRANCH  10  15
ATOM     12  C   UNL     1       1.258  -0.020   0.117  0.00  0.00    +0.000 A 
ATOM     13  C   UNL     1       0.564  -1.215  -0.045  0.00  0.00    +0.000 A 
ATOM     14  C   UNL     1      -0.832  -1.212  -0.139  0.00  0.00    +0.000 A 
ATOM     15  C   UNL     1      -1.560  -0.016  -0.095  0.00  0.00    +0.000 A 
ATOM     16  C   UNL     1      -0.841   1.175   0.103  0.00  0.00    +0.000 A 
ATOM     17  C   UNL     1       0.554   1.177   0.197  0.00  0.00    +0.000 A 
ENDBRANCH  10  15
ENDBRANCH   1  10
TORSDOF 3
