REMARK  Name = *****
REMARK  1 active torsions:
REMARK  status: ('A' for Active; 'I' for Inactive)
REMARK    1  A    between atoms: C_4  and  C_7
REMARK                            x       y       z     vdW  Elec       q    Type
REMARK                         _______ _______ _______ _____ _____    ______ ____
ROOT
ATOM      1  C   UNL     1      -3.065   0.140  -0.572  0.00  0.00    +0.000 A 
ATOM      2  N   UNL     1      -3.848   0.913  -1.305  0.00  0.00    +0.000 NA
ATOM      3  C   UNL     1      -5.121   0.482  -1.005  0.00  0.00    +0.000 A 
ATOM      4  C   UNL     1      -5.051  -0.553  -0.085  0.00  0.00    +0.000 A 
ATOM      5  O   UNL     1      -3.736  -0.778   0.198  0.00  0.00    +0.000 OA
ATOM      6  C   UNL     1      -6.149  -1.227   0.442  0.00  0.00    +0.000 A 
ATOM      7  C   UNL     1      -7.408  -0.807  -0.011  0.00  0.00    +0.000 A 
ATOM      8  C   UNL     1      -7.536   0.232  -0.939  0.00  0.00    +0.000 A 
ATOM      9  C   UNL     1      -6.396   0.873  -1.433  0.00  0.00    +0.000 A 
ATOM     10 CL   UNL     1      -6.473   2.145  -2.566  0.00  0.00    +0.000 Cl
ENDROOT
BRANCH   1  14
ATOM     11  C   UNL     1       1.202   0.179  -0.339  0.00  0.00    +0.000 A 
ATOM     12  C   UNL     1       0.532   1.080  -1.163  0.00  0.00    +0.000 A 
ATOM     13  C   UNL     1      -0.863   1.058  -1.232  0.00  0.00    +0.000 A 
ATOM     14  C   UNL     1      -1.607   0.137  -0.477  0.00  0.00    +0.000 A 
ATOM     15  C   UNL     1      -0.916  -0.763   0.348  0.00  0.00    +0.000 A 
ATOM     16  C   UNL     1       0.480  -0.742   0.417  0.00  0.00    +0.000 A 
ENDBRANCH   1  14
TORSDOF 1
