REMARK  Name = *****
REMARK  4 active torsions:
REMARK  status: ('A' for Active; 'I' for Inactive)
REMARK    1  A    between atoms: C_4  and  C_6
REMARK    2  A    between atoms: C_6  and  C_8
REMARK    3  A    between atoms: C_8  and  C_9
REMARK    4  A    between atoms: C_9  and  C_10
REMARK                            x       y       z     vdW  Elec       q    Type
REMARK                         _______ _______ _______ _____ _____    ______ ____
ROOT
ATOM      1  C   UNL     1      -2.723   1.536   3.640  0.00  0.00    +0.000 C 
ENDROOT
BRANCH   1   2
ATOM      2  C   UNL     1      -4.129   1.490   4.183  0.00  0.00    +0.000 A 
ATOM      3  C   UNL     1      -4.927   2.640   4.193  0.00  0.00    +0.000 A 
ATOM      4  C   UNL     1      -6.228   2.619   4.682  0.00  0.00    +0.000 A 
ATOM      5  C   UNL     1      -6.747   1.426   5.173  0.00  0.00    +0.000 A 
ATOM      6  C   UNL     1      -5.974   0.265   5.174  0.00  0.00    +0.000 A 
ATOM      7  C   UNL     1      -4.667   0.295   4.679  0.00  0.00    +0.000 A 
ATOM      8 CL   UNL     1      -8.356   1.380   5.780  0.00  0.00    +0.000 Cl
ATOM      9  F   UNL     1      -4.435   3.793   3.716  0.00  0.00    +0.000 F 
ENDBRANCH   1   2
BRANCH   1  10
ATOM     10  C   UNL     1      -2.702   1.623   2.115  0.00  0.00    +0.000 C 
BRANCH  10  11
ATOM     11  C   UNL     1      -1.283   1.647   1.574  0.00  0.00    +0.000 C 
ATOM     12  O   UNL     1      -0.336   1.211   2.228  0.00  0.00    +0.000 OA
BRANCH  11  16
ATOM     13  C   UNL     1       0.728   1.238  -1.100  0.00  0.00    +0.000 C 
ATOM     14  C   UNL     1      -0.540   0.991  -1.896  0.00  0.00    +0.000 C 
ATOM     15  C   UNL     1      -1.655   1.185  -0.875  0.00  0.00    +0.000 C 
ATOM     16  C   UNL     1      -1.113   2.187   0.154  0.00  0.00    +0.000 C 
ATOM     17  C   UNL     1       0.354   2.427  -0.228  0.00  0.00    +0.000 C 
ENDBRANCH  11  16
ENDBRANCH  10  11
ENDBRANCH   1  10
TORSDOF 4
