REMARK  Name = *****
REMARK  4 active torsions:
REMARK  status: ('A' for Active; 'I' for Inactive)
REMARK    1  A    between atoms: C_4  and  O_7
REMARK    2  A    between atoms: O_7  and  C_8
REMARK    3  A    between atoms: C_8  and  S_10
REMARK    4  A    between atoms: S_10  and  C_11
REMARK                            x       y       z     vdW  Elec       q    Type
REMARK                         _______ _______ _______ _____ _____    ______ ____
ROOT
ATOM      1  C   UNL     1      -3.832  -0.479   0.083  0.00  0.00    +0.000 C 
ATOM      2  O   UNL     1      -3.536  -1.090   1.103  0.00  0.00    +0.000 OA
ENDROOT
BRANCH   1   3
ATOM      3  O   UNL     1      -2.950   0.267  -0.695  0.00  0.00    +0.000 OA
BRANCH   3   7
ATOM      4  C   UNL     1       1.032   0.205   0.526  0.00  0.00    +0.000 A 
ATOM      5  C   UNL     1       0.510  -0.878  -0.186  0.00  0.00    +0.000 A 
ATOM      6  C   UNL     1      -0.824  -0.870  -0.588  0.00  0.00    +0.000 A 
ATOM      7  C   UNL     1      -1.626   0.220  -0.256  0.00  0.00    +0.000 A 
ATOM      8  C   UNL     1      -1.113   1.315   0.435  0.00  0.00    +0.000 A 
ATOM      9  C   UNL     1       0.223   1.301   0.834  0.00  0.00    +0.000 A 
ENDBRANCH   3   7
ENDBRANCH   1   3
BRANCH   1  10
ATOM     10  S   UNL     1      -5.504  -0.490  -0.490  0.00  0.00    +0.000 S 
BRANCH  10  11
ATOM     11  C   UNL     1      -5.245  -1.047  -2.162  0.00  0.00    +0.000 A 
ATOM     12  C   UNL     1      -4.810  -2.352  -2.421  0.00  0.00    +0.000 A 
ATOM     13  C   UNL     1      -4.607  -2.777  -3.735  0.00  0.00    +0.000 A 
ATOM     14  C   UNL     1      -4.843  -1.904  -4.795  0.00  0.00    +0.000 A 
ATOM     15  C   UNL     1      -5.287  -0.607  -4.544  0.00  0.00    +0.000 A 
ATOM     16  C   UNL     1      -5.491  -0.179  -3.231  0.00  0.00    +0.000 A 
ENDBRANCH  10  11
ENDBRANCH   1  10
TORSDOF 4
