REMARK  Name = *****
REMARK  4 active torsions:
REMARK  status: ('A' for Active; 'I' for Inactive)
REMARK    1  A    between atoms: C_1  and  C_2
REMARK    2  A    between atoms: C_6  and  O_8
REMARK    3  A    between atoms: O_8  and  C_9
REMARK    4  A    between atoms: C_9  and  C_10
REMARK                            x       y       z     vdW  Elec       q    Type
REMARK                         _______ _______ _______ _____ _____    ______ ____
ROOT
ATOM      1  C   UNL     1       1.110  -0.173   0.131  0.00  0.00    +0.000 C 
ATOM      2  C   UNL     1       2.604  -0.083   0.024  0.00  0.00    +0.000 A 
ATOM      3  C   UNL     1       3.271   1.138  -0.097  0.00  0.00    +0.000 A 
ATOM      4  C   UNL     1       4.662   1.137  -0.190  0.00  0.00    +0.000 A 
ATOM      5  C   UNL     1       5.348  -0.073  -0.159  0.00  0.00    +0.000 A 
ATOM      6  C   UNL     1       4.614  -1.240  -0.036  0.00  0.00    +0.000 A 
ATOM      7  N   UNL     1       3.267  -1.271   0.055  0.00  0.00    +0.000 NA
ATOM      8 BR   UNL     1       2.370   2.804  -0.142  0.00  0.00    +0.000 Br
ENDROOT
BRANCH   6   9
ATOM      9  O   UNL     1       5.335  -2.414  -0.007  0.00  0.00    +0.000 OA
BRANCH   9  10
ATOM     10  C   UNL     1       4.512  -3.571   0.123  0.00  0.00    +0.000 C 
BRANCH  10  11
ATOM     11  C   UNL     1       5.418  -4.779   0.160  0.00  0.00    +0.000 A 
ATOM     12  C   UNL     1       5.947  -5.234   1.376  0.00  0.00    +0.000 A 
ATOM     13  C   UNL     1       6.799  -6.339   1.409  0.00  0.00    +0.000 A 
ATOM     14  C   UNL     1       7.137  -6.994   0.226  0.00  0.00    +0.000 A 
ATOM     15  C   UNL     1       6.630  -6.542  -0.990  0.00  0.00    +0.000 A 
ATOM     16  C   UNL     1       5.778  -5.437  -1.025  0.00  0.00    +0.000 A 
ENDBRANCH  10  11
ENDBRANCH   9  10
ENDBRANCH   6   9
TORSDOF 3
