REMARK  Name = *****
REMARK  6 active torsions:
REMARK  status: ('A' for Active; 'I' for Inactive)
REMARK    1  A    between atoms: C_1  and  N_2
REMARK    2  A    between atoms: N_2  and  C_3
REMARK    3  A    between atoms: N_2  and  C_19
REMARK    4  A    between atoms: C_3  and  C_4
REMARK    5  A    between atoms: C_4  and  C_13
REMARK    6  A    between atoms: C_5  and  C_6
REMARK                            x       y       z     vdW  Elec       q    Type
REMARK                         _______ _______ _______ _____ _____    ______ ____
ROOT
ATOM      1  C   UNL     1       2.126  -0.798  -2.410  0.00  0.00    +0.000 C 
ATOM      2  C   UNL     1       0.778  -0.704  -2.469  0.00  0.00    +0.000 C 
ATOM      3 CL   UNL     1      -0.151  -1.277  -3.823  0.00  0.00    +0.000 Cl
ENDROOT
BRANCH   2   4
ATOM      4  C   UNL     1      -0.051  -0.106  -1.409  0.00  0.00    +0.000 A 
ATOM      5  C   UNL     1      -0.171   1.288  -1.308  0.00  0.00    +0.000 A 
ATOM      6  C   UNL     1      -0.925   1.854  -0.279  0.00  0.00    +0.000 A 
ATOM      7  C   UNL     1      -1.562   1.034   0.652  0.00  0.00    +0.000 A 
ATOM      8  C   UNL     1      -1.455  -0.353   0.552  0.00  0.00    +0.000 A 
ATOM      9  C   UNL     1      -0.704  -0.923  -0.477  0.00  0.00    +0.000 A 
ENDBRANCH   2   4
BRANCH   1  10
ATOM     10  C   UNL     1       2.921  -1.418  -3.490  0.00  0.00    +0.000 A 
ATOM     11  C   UNL     1       3.057  -0.792  -4.738  0.00  0.00    +0.000 A 
ATOM     12  C   UNL     1       3.843  -1.372  -5.735  0.00  0.00    +0.000 A 
ATOM     13  C   UNL     1       4.495  -2.580  -5.495  0.00  0.00    +0.000 A 
ATOM     14  C   UNL     1       4.359  -3.214  -4.262  0.00  0.00    +0.000 A 
ATOM     15  C   UNL     1       3.574  -2.638  -3.262  0.00  0.00    +0.000 A 
ENDBRANCH   1  10
BRANCH   1  16
ATOM     16  C   UNL     1       2.794  -0.382  -1.134  0.00  0.00    +0.000 C 
BRANCH  16  18
ATOM     17  C   UNL     1       4.835   0.620  -2.097  0.00  0.00    +0.000 C 
ATOM     18  N   UNL     1       3.956   0.168  -0.983  0.00  0.00    +0.000 NA
ATOM     19  C   UNL     1       4.476   0.435   0.391  0.00  0.00    +0.000 C 
ENDBRANCH  16  18
ENDBRANCH   1  16
TORSDOF 4
