REMARK  Name = *****
REMARK  3 active torsions:
REMARK  status: ('A' for Active; 'I' for Inactive)
REMARK    1  A    between atoms: C_3  and  O_8
REMARK    2  A    between atoms: O_8  and  C_9
REMARK    3  A    between atoms: C_9  and  C_11
REMARK                            x       y       z     vdW  Elec       q    Type
REMARK                         _______ _______ _______ _____ _____    ______ ____
ROOT
ATOM      1  C   UNL     1       1.623   0.102  -2.513  0.00  0.00    +0.000 C 
ATOM      2  O   UNL     1       0.518  -0.364  -2.725  0.00  0.00    +0.000 OA
ENDROOT
BRANCH   1   3
ATOM      3  C   UNL     1       2.591   0.425  -3.597  0.00  0.00    +0.000 A 
ATOM      4  C   UNL     1       2.162   0.294  -4.928  0.00  0.00    +0.000 A 
ATOM      5  C   UNL     1       3.034   0.580  -5.980  0.00  0.00    +0.000 A 
ATOM      6  C   UNL     1       4.332   0.993  -5.702  0.00  0.00    +0.000 A 
ATOM      7  C   UNL     1       4.775   1.127  -4.391  0.00  0.00    +0.000 A 
ATOM      8  C   UNL     1       3.906   0.844  -3.334  0.00  0.00    +0.000 A 
ATOM      9  F   UNL     1       5.168   1.266  -6.712  0.00  0.00    +0.000 F 
ENDBRANCH   1   3
BRANCH   1  10
ATOM     10  O   UNL     1       2.154   0.398  -1.307  0.00  0.00    +0.000 OA
BRANCH  10  13
ATOM     11  C   UNL     1      -0.912   1.294  -0.430  0.00  0.00    +0.000 C 
ATOM     12  C   UNL     1       0.477   1.408   0.195  0.00  0.00    +0.000 C 
ATOM     13  C   UNL     1       1.391   0.209  -0.084  0.00  0.00    +0.000 C 
ATOM     14  C   UNL     1       0.712  -1.170   0.082  0.00  0.00    +0.000 C 
ATOM     15  C   UNL     1      -0.787  -1.161  -0.015  0.00  0.00    +0.000 C 
ATOM     16  C   UNL     1      -1.518  -0.064  -0.255  0.00  0.00    +0.000 C 
ATOM     17  F   UNL     1       1.049  -1.646   1.321  0.00  0.00    +0.000 F 
ENDBRANCH  10  13
ENDBRANCH   1  10
TORSDOF 3
