REMARK  Name = *****
REMARK  3 active torsions:
REMARK  status: ('A' for Active; 'I' for Inactive)
REMARK    1  A    between atoms: C_2  and  C_3
REMARK    2  A    between atoms: C_8  and  C_9
REMARK    3  A    between atoms: C_10  and  C_11
REMARK                            x       y       z     vdW  Elec       q    Type
REMARK                         _______ _______ _______ _____ _____    ______ ____
ROOT
ATOM      1  C   UNL     1       3.085  -1.027   0.786  0.00  0.00    +0.000 A 
ATOM      2  C   UNL     1       2.757  -2.392   0.843  0.00  0.00    +0.000 A 
ATOM      3  C   UNL     1       3.509  -3.282   1.613  0.00  0.00    +0.000 A 
ATOM      4  C   UNL     1       4.608  -2.823   2.333  0.00  0.00    +0.000 A 
ATOM      5  C   UNL     1       4.958  -1.474   2.279  0.00  0.00    +0.000 A 
ATOM      6  C   UNL     1       4.208  -0.574   1.507  0.00  0.00    +0.000 A 
ENDROOT
BRANCH   1   8
ATOM      7  C   UNL     1       0.955  -0.108  -0.105  0.00  0.00    +0.000 C 
ATOM      8  C   UNL     1       2.294  -0.118  -0.063  0.00  0.00    +0.000 C 
ENDBRANCH   1   8
BRANCH   6   9
ATOM      9  C   UNL     1       4.615   0.802   1.495  0.00  0.00    +0.000 C 
ATOM     10  C   UNL     1       4.956   1.954   1.487  0.00  0.00    +0.000 C 
BRANCH  10  11
ATOM     11  C   UNL     1       5.357   3.327   1.473  0.00  0.00    +0.000 A 
ATOM     12  C   UNL     1       6.561   3.712   2.067  0.00  0.00    +0.000 A 
ATOM     13  C   UNL     1       6.950   5.053   2.052  0.00  0.00    +0.000 A 
ATOM     14  C   UNL     1       6.138   6.009   1.443  0.00  0.00    +0.000 A 
ATOM     15  C   UNL     1       4.935   5.626   0.849  0.00  0.00    +0.000 A 
ATOM     16  C   UNL     1       4.543   4.286   0.864  0.00  0.00    +0.000 A 
ENDBRANCH  10  11
ENDBRANCH   6   9
TORSDOF 3
