REMARK  Name = *****
REMARK  2 active torsions:
REMARK  status: ('A' for Active; 'I' for Inactive)
REMARK    1  A    between atoms: C_2  and  C_13
REMARK    2  A    between atoms: C_4  and  C_6
REMARK                            x       y       z     vdW  Elec       q    Type
REMARK                         _______ _______ _______ _____ _____    ______ ____
ROOT
ATOM      1  C   UNL     1       0.529   1.681  -0.057  0.00  0.00    +0.000 C 
ATOM      2  C   UNL     1       0.799   0.223  -0.220  0.00  0.00    +0.000 C 
ATOM      3  N   UNL     1      -0.534   0.759  -0.325  0.00  0.00    +0.000 N 
ATOM      4  C   UNL     1      -1.533   0.565   0.624  0.00  0.00    +0.000 C 
ATOM      5  O   UNL     1      -1.427   0.795   1.825  0.00  0.00    +0.000 OA
ENDROOT
BRANCH   4   6
ATOM      6  C   UNL     1      -2.830   0.067   0.072  0.00  0.00    +0.000 A 
ATOM      7  C   UNL     1      -3.042  -0.108  -1.303  0.00  0.00    +0.000 A 
ATOM      8  C   UNL     1      -4.275  -0.573  -1.772  0.00  0.00    +0.000 A 
ATOM      9  C   UNL     1      -5.298  -0.864  -0.870  0.00  0.00    +0.000 A 
ATOM     10  C   UNL     1      -5.099  -0.695   0.498  0.00  0.00    +0.000 A 
ATOM     11  C   UNL     1      -3.868  -0.230   0.969  0.00  0.00    +0.000 A 
ATOM     12 CL   UNL     1      -6.813  -1.434  -1.452  0.00  0.00    +0.000 Cl
ENDBRANCH   4   6
BRANCH   2  13
ATOM     13  C   UNL     1       1.200  -0.660   0.935  0.00  0.00    +0.000 A 
ATOM     14  C   UNL     1       0.656  -1.949   1.086  0.00  0.00    +0.000 A 
ATOM     15  C   UNL     1       1.045  -2.789   2.133  0.00  0.00    +0.000 A 
ATOM     16  C   UNL     1       2.000  -2.361   3.050  0.00  0.00    +0.000 A 
ATOM     17  C   UNL     1       2.565  -1.096   2.918  0.00  0.00    +0.000 A 
ATOM     18  C   UNL     1       2.171  -0.260   1.870  0.00  0.00    +0.000 A 
ENDBRANCH   2  13
TORSDOF 2
