REMARK  Name = *****
REMARK  2 active torsions:
REMARK  status: ('A' for Active; 'I' for Inactive)
REMARK    1  A    between atoms: C_4  and  N_7
REMARK    2  A    between atoms: C_8  and  C_9
REMARK                            x       y       z     vdW  Elec       q    Type
REMARK                         _______ _______ _______ _____ _____    ______ ____
ROOT
ATOM      1  N   UNL     1      -2.677   0.398  -0.622  0.00  0.00    +0.000 NA
ATOM      2  C   UNL     1      -3.523  -0.574  -0.461  0.00  0.00    +0.000 C 
ATOM      3 CL   UNL     1      -5.184  -0.115  -0.687  0.00  0.00    +0.000 Cl
ENDROOT
BRANCH   2   4
ATOM      4  C   UNL     1      -3.211  -1.985  -0.117  0.00  0.00    +0.000 A 
ATOM      5  C   UNL     1      -2.499  -2.293   1.047  0.00  0.00    +0.000 A 
ATOM      6  C   UNL     1      -2.224  -3.626   1.362  0.00  0.00    +0.000 A 
ATOM      7  C   UNL     1      -2.672  -4.644   0.519  0.00  0.00    +0.000 A 
ATOM      8  C   UNL     1      -3.395  -4.342  -0.635  0.00  0.00    +0.000 A 
ATOM      9  C   UNL     1      -3.671  -3.010  -0.954  0.00  0.00    +0.000 A 
ATOM     10 CL   UNL     1      -2.333  -6.285   0.908  0.00  0.00    +0.000 Cl
ENDBRANCH   2   4
BRANCH   1  14
ATOM     11  C   UNL     1       1.478  -0.175  -0.371  0.00  0.00    +0.000 A 
ATOM     12  C   UNL     1       0.773  -0.702  -1.451  0.00  0.00    +0.000 A 
ATOM     13  C   UNL     1      -0.608  -0.514  -1.542  0.00  0.00    +0.000 A 
ATOM     14  C   UNL     1      -1.295   0.183  -0.544  0.00  0.00    +0.000 A 
ATOM     15  C   UNL     1      -0.575   0.734   0.519  0.00  0.00    +0.000 A 
ATOM     16  C   UNL     1       0.806   0.549   0.613  0.00  0.00    +0.000 A 
ENDBRANCH   1  14
TORSDOF 2
