REMARK  Name = *****
REMARK  2 active torsions:
REMARK  status: ('A' for Active; 'I' for Inactive)
REMARK    1  A    between atoms: C_5  and  N_7
REMARK    2  A    between atoms: C_8  and  C_9
REMARK                            x       y       z     vdW  Elec       q    Type
REMARK                         _______ _______ _______ _____ _____    ______ ____
ROOT
ATOM      1  N   UNL     1       0.893  -2.427  -0.297  0.00  0.00    +0.000 NA
ATOM      2  C   UNL     1       2.082  -2.524   0.205  0.00  0.00    +0.000 C 
ENDROOT
BRANCH   1   7
ATOM      3  C   UNL     1      -1.814  -0.016   0.445  0.00  0.00    +0.000 A 
ATOM      4  C   UNL     1      -1.237   1.201   0.081  0.00  0.00    +0.000 A 
ATOM      5  C   UNL     1       0.065   1.229  -0.414  0.00  0.00    +0.000 A 
ATOM      6  C   UNL     1       0.782   0.040  -0.539  0.00  0.00    +0.000 A 
ATOM      7  C   UNL     1       0.226  -1.193  -0.164  0.00  0.00    +0.000 A 
ATOM      8  C   UNL     1      -1.087  -1.204   0.317  0.00  0.00    +0.000 A 
ATOM      9  F   UNL     1       2.033   0.099  -1.023  0.00  0.00    +0.000 F 
ENDBRANCH   1   7
BRANCH   2  10
ATOM     10  C   UNL     1       2.867  -3.770   0.105  0.00  0.00    +0.000 A 
ATOM     11  C   UNL     1       2.338  -4.898  -0.525  0.00  0.00    +0.000 A 
ATOM     12  C   UNL     1       3.106  -6.053  -0.597  0.00  0.00    +0.000 A 
ATOM     13  C   UNL     1       4.388  -6.100  -0.056  0.00  0.00    +0.000 A 
ATOM     14  C   UNL     1       4.915  -4.972   0.572  0.00  0.00    +0.000 A 
ATOM     15  C   UNL     1       4.155  -3.803   0.653  0.00  0.00    +0.000 A 
ATOM     16  F   UNL     1       2.607  -7.141  -1.197  0.00  0.00    +0.000 F 
ENDBRANCH   2  10
TORSDOF 2
