REMARK  Name = *****
REMARK  2 active torsions:
REMARK  status: ('A' for Active; 'I' for Inactive)
REMARK    1  A    between atoms: C_4  and  C_7
REMARK    2  A    between atoms: C_8  and  C_9
REMARK                            x       y       z     vdW  Elec       q    Type
REMARK                         _______ _______ _______ _____ _____    ______ ____
ROOT
ATOM      1  C   UNL     1      -2.779   0.459  -0.339  0.00  0.00    +0.000 C 
ATOM      2  C   UNL     1      -3.717  -0.501  -0.390  0.00  0.00    +0.000 C 
ENDROOT
BRANCH   2   3
ATOM      3  C   UNL     1      -5.161  -0.270  -0.579  0.00  0.00    +0.000 A 
ATOM      4  C   UNL     1      -5.698   0.813  -1.287  0.00  0.00    +0.000 A 
ATOM      5  C   UNL     1      -7.077   0.967  -1.458  0.00  0.00    +0.000 A 
ATOM      6  C   UNL     1      -7.956   0.025  -0.930  0.00  0.00    +0.000 A 
ATOM      7  C   UNL     1      -7.448  -1.071  -0.238  0.00  0.00    +0.000 A 
ATOM      8  C   UNL     1      -6.069  -1.211  -0.074  0.00  0.00    +0.000 A 
ATOM      9  F   UNL     1      -5.622  -2.288   0.593  0.00  0.00    +0.000 F 
ATOM     10  F   UNL     1      -4.900   1.738  -1.842  0.00  0.00    +0.000 F 
ENDBRANCH   2   3
BRANCH   1  14
ATOM     11  C   UNL     1       1.407  -0.193   0.275  0.00  0.00    +0.000 A 
ATOM     12  C   UNL     1       0.674  -1.108  -0.477  0.00  0.00    +0.000 A 
ATOM     13  C   UNL     1      -0.695  -0.912  -0.680  0.00  0.00    +0.000 A 
ATOM     14  C   UNL     1      -1.347   0.196  -0.124  0.00  0.00    +0.000 A 
ATOM     15  C   UNL     1      -0.595   1.119   0.616  0.00  0.00    +0.000 A 
ATOM     16  C   UNL     1       0.774   0.923   0.819  0.00  0.00    +0.000 A 
ENDBRANCH   1  14
TORSDOF 2
