REMARK  Name = *****
REMARK  2 active torsions:
REMARK  status: ('A' for Active; 'I' for Inactive)
REMARK    1  A    between atoms: C_2  and  C_15
REMARK    2  A    between atoms: N_3  and  C_4
REMARK                            x       y       z     vdW  Elec       q    Type
REMARK                         _______ _______ _______ _____ _____    ______ ____
ROOT
ATOM      1  C   UNL     1      -2.051  -1.076   0.126  0.00  0.00    +0.000 A 
ATOM      2  C   UNL     1      -3.128  -1.466   0.946  0.00  0.00    +0.000 A 
ATOM      3  C   UNL     1      -4.281  -2.041   0.417  0.00  0.00    +0.000 A 
ATOM      4  C   UNL     1      -4.390  -2.243  -0.948  0.00  0.00    +0.000 A 
ATOM      5  C   UNL     1      -3.348  -1.872  -1.782  0.00  0.00    +0.000 A 
ATOM      6  C   UNL     1      -2.193  -1.296  -1.255  0.00  0.00    +0.000 A 
ATOM      7  F   UNL     1      -1.214  -0.959  -2.109  0.00  0.00    +0.000 F 
ATOM      8  F   UNL     1      -3.450  -2.068  -3.104  0.00  0.00    +0.000 F 
ATOM      9  F   UNL     1      -5.498  -2.796  -1.460  0.00  0.00    +0.000 F 
ATOM     10  F   UNL     1      -5.284  -2.400   1.230  0.00  0.00    +0.000 F 
ATOM     11  F   UNL     1      -3.051  -1.287   2.275  0.00  0.00    +0.000 F 
ENDROOT
BRANCH   1  14
ATOM     12  C   UNL     1      -0.145   0.547   0.111  0.00  0.00    +0.000 C 
ATOM     13  C   UNL     1       0.436  -0.827   0.299  0.00  0.00    +0.000 C 
ATOM     14  N   UNL     1      -0.924  -0.497   0.770  0.00  0.00    +0.000 N 
BRANCH  13  15
ATOM     15  C   UNL     1       1.505  -1.046   1.339  0.00  0.00    +0.000 A 
ATOM     16  C   UNL     1       1.254  -1.760   2.524  0.00  0.00    +0.000 A 
ATOM     17  C   UNL     1       2.256  -1.972   3.475  0.00  0.00    +0.000 A 
ATOM     18  C   UNL     1       3.537  -1.474   3.257  0.00  0.00    +0.000 A 
ATOM     19  C   UNL     1       3.816  -0.768   2.091  0.00  0.00    +0.000 A 
ATOM     20  C   UNL     1       2.809  -0.559   1.144  0.00  0.00    +0.000 A 
ENDBRANCH  13  15
ENDBRANCH   1  14
TORSDOF 2
