REMARK  Name = *****
REMARK  5 active torsions:
REMARK  status: ('A' for Active; 'I' for Inactive)
REMARK    1  A    between atoms: C_1  and  O_2
REMARK    2  A    between atoms: O_2  and  C_3
REMARK    3  A    between atoms: C_6  and  C_9
REMARK    4  A    between atoms: C_9  and  C_10
REMARK    5  A    between atoms: C_10  and  C_11
REMARK                            x       y       z     vdW  Elec       q    Type
REMARK                         _______ _______ _______ _____ _____    ______ ____
ROOT
ATOM      1  C   UNL     1       5.125   1.535   4.694  0.00  0.00    +0.000 C 
ENDROOT
BRANCH   1   5
ATOM      2  C   UNL     1       3.019   0.255   1.141  0.00  0.00    +0.000 A 
ATOM      3  C   UNL     1       2.403   1.112   2.053  0.00  0.00    +0.000 A 
ATOM      4  C   UNL     1       3.088   1.530   3.200  0.00  0.00    +0.000 A 
ATOM      5  C   UNL     1       4.398   1.100   3.446  0.00  0.00    +0.000 A 
ATOM      6  C   UNL     1       5.009   0.237   2.532  0.00  0.00    +0.000 A 
ATOM      7  C   UNL     1       4.323  -0.179   1.388  0.00  0.00    +0.000 A 
BRANCH   2   9
ATOM      8  C   UNL     1       1.136   0.185  -0.308  0.00  0.00    +0.000 C 
ATOM      9  O   UNL     1       2.464  -0.228  -0.012  0.00  0.00    +0.000 OA
ENDBRANCH   2   9
ENDBRANCH   1   5
BRANCH   1  10
ATOM     10  C   UNL     1       4.828   0.604   5.873  0.00  0.00    +0.000 C 
BRANCH  10  11
ATOM     11  C   UNL     1       5.570   1.026   7.118  0.00  0.00    +0.000 A 
ATOM     12  C   UNL     1       5.019   1.981   7.984  0.00  0.00    +0.000 A 
ATOM     13  C   UNL     1       5.714   2.385   9.126  0.00  0.00    +0.000 A 
ATOM     14  C   UNL     1       6.965   1.839   9.404  0.00  0.00    +0.000 A 
ATOM     15  C   UNL     1       7.528   0.893   8.549  0.00  0.00    +0.000 A 
ATOM     16  C   UNL     1       6.833   0.489   7.407  0.00  0.00    +0.000 A 
ATOM     17 CL   UNL     1       7.822   2.337  10.810  0.00  0.00    +0.000 Cl
ENDBRANCH  10  11
ENDBRANCH   1  10
TORSDOF 4
