REMARK  Name = *****
REMARK  2 active torsions:
REMARK  status: ('A' for Active; 'I' for Inactive)
REMARK    1  A    between atoms: C_1  and  C_2
REMARK    2  A    between atoms: C_9  and  C_11
REMARK                            x       y       z     vdW  Elec       q    Type
REMARK                         _______ _______ _______ _____ _____    ______ ____
ROOT
ATOM      1  C   UNL     1       0.975  -0.045  -0.065  0.00  0.00    +0.000 C 
ATOM      2  C   UNL     1       2.476   0.018  -0.014  0.00  0.00    +0.000 A 
ATOM      3  C   UNL     1       3.234  -1.161  -0.120  0.00  0.00    +0.000 A 
ATOM      4  C   UNL     1       4.615  -1.005  -0.081  0.00  0.00    +0.000 A 
ATOM      5  C   UNL     1       5.270   0.207   0.044  0.00  0.00    +0.000 A 
ATOM      6  C   UNL     1       4.512   1.380   0.138  0.00  0.00    +0.000 A 
ATOM      7  C   UNL     1       3.113   1.267   0.104  0.00  0.00    +0.000 A 
ATOM      8  N   UNL     1       6.627   0.005   0.050  0.00  0.00    +0.000 NA
ATOM      9  C   UNL     1       6.750  -1.305  -0.071  0.00  0.00    +0.000 A 
ATOM     10  O   UNL     1       5.560  -1.985  -0.156  0.00  0.00    +0.000 OA
ENDROOT
BRANCH   9  11
ATOM     11  C   UNL     1       7.970  -2.109  -0.121  0.00  0.00    +0.000 A 
ATOM     12  C   UNL     1       9.221  -1.477  -0.031  0.00  0.00    +0.000 A 
ATOM     13  C   UNL     1      10.406  -2.218  -0.076  0.00  0.00    +0.000 A 
ATOM     14  C   UNL     1      10.350  -3.602  -0.211  0.00  0.00    +0.000 A 
ATOM     15  C   UNL     1       9.120  -4.250  -0.302  0.00  0.00    +0.000 A 
ATOM     16  C   UNL     1       7.936  -3.506  -0.258  0.00  0.00    +0.000 A 
ATOM     17 CL   UNL     1      11.805  -4.517  -0.266  0.00  0.00    +0.000 Cl
ENDBRANCH   9  11
TORSDOF 1
