REMARK  Name = *****
REMARK  3 active torsions:
REMARK  status: ('A' for Active; 'I' for Inactive)
REMARK    1  A    between atoms: C_4  and  O_7
REMARK    2  A    between atoms: O_7  and  C_8
REMARK    3  A    between atoms: C_8  and  C_10
REMARK                            x       y       z     vdW  Elec       q    Type
REMARK                         _______ _______ _______ _____ _____    ______ ____
ROOT
ATOM      1  C   UNL     1       4.731  -1.978  -0.322  0.00  0.00    +0.000 A 
ATOM      2  C   UNL     1       5.108  -3.293  -0.581  0.00  0.00    +0.000 A 
ATOM      3  C   UNL     1       6.305  -3.557  -1.237  0.00  0.00    +0.000 A 
ATOM      4  C   UNL     1       7.131  -2.511  -1.629  0.00  0.00    +0.000 A 
ATOM      5  C   UNL     1       6.760  -1.199  -1.364  0.00  0.00    +0.000 A 
ATOM      6  C   UNL     1       5.563  -0.930  -0.709  0.00  0.00    +0.000 A 
ATOM      7  F   UNL     1       5.236   0.342  -0.438  0.00  0.00    +0.000 F 
ATOM      8  F   UNL     1       7.559  -0.189  -1.736  0.00  0.00    +0.000 F 
ATOM      9  F   UNL     1       8.284  -2.767  -2.262  0.00  0.00    +0.000 F 
ATOM     10  F   UNL     1       6.661  -4.822  -1.497  0.00  0.00    +0.000 F 
ATOM     11  F   UNL     1       4.315  -4.316  -0.230  0.00  0.00    +0.000 F 
ENDROOT
BRANCH   1  12
ATOM     12  C   UNL     1       3.480  -1.717   0.386  0.00  0.00    +0.000 C 
ATOM     13  O   UNL     1       3.168  -2.261   1.430  0.00  0.00    +0.000 OA
BRANCH  12  14
ATOM     14  O   UNL     1       2.752  -0.835  -0.337  0.00  0.00    +0.000 OA
BRANCH  14  18
ATOM     15  C   UNL     1      -1.338   0.291  -0.300  0.00  0.00    +0.000 C 
ATOM     16  C   UNL     1      -0.981  -1.095   0.232  0.00  0.00    +0.000 C 
ATOM     17  C   UNL     1       0.422  -1.515  -0.192  0.00  0.00    +0.000 C 
ATOM     18  C   UNL     1       1.471  -0.476   0.215  0.00  0.00    +0.000 C 
ATOM     19  C   UNL     1       1.107   0.906  -0.334  0.00  0.00    +0.000 C 
ATOM     20  C   UNL     1      -0.293   1.332   0.092  0.00  0.00    +0.000 C 
ENDBRANCH  14  18
ENDBRANCH  12  14
ENDBRANCH   1  12
TORSDOF 3
