REMARK  Name = *****
REMARK  2 active torsions:
REMARK  status: ('A' for Active; 'I' for Inactive)
REMARK    1  A    between atoms: C_4  and  C_6
REMARK    2  A    between atoms: C_7  and  C_8
REMARK                            x       y       z     vdW  Elec       q    Type
REMARK                         _______ _______ _______ _____ _____    ______ ____
ROOT
ATOM      1  C   UNL     1      -0.040   1.642  -1.688  0.00  0.00    +0.000 C 
ATOM      2  C   UNL     1      -0.068   1.894  -2.862  0.00  0.00    +0.000 C 
ENDROOT
BRANCH   2   3
ATOM      3  C   UNL     1      -0.102   2.187  -4.262  0.00  0.00    +0.000 A 
ATOM      4  C   UNL     1       0.207   1.192  -5.192  0.00  0.00    +0.000 A 
ATOM      5  C   UNL     1       0.173   1.478  -6.558  0.00  0.00    +0.000 A 
ATOM      6  C   UNL     1      -0.170   2.758  -6.995  0.00  0.00    +0.000 A 
ATOM      7  C   UNL     1      -0.478   3.752  -6.067  0.00  0.00    +0.000 A 
ATOM      8  C   UNL     1      -0.445   3.468  -4.701  0.00  0.00    +0.000 A 
ENDBRANCH   2   3
BRANCH   1  12
ATOM      9  C   UNL     1      -0.801  -0.959  -0.189  0.00  0.00    +0.000 C 
ATOM     10  C   UNL     1       0.727  -0.984  -0.207  0.00  0.00    +0.000 C 
ATOM     11  C   UNL     1       1.181   0.440   0.111  0.00  0.00    +0.000 C 
ATOM     12  C   UNL     1      -0.007   1.329  -0.248  0.00  0.00    +0.000 C 
ATOM     13  C   UNL     1      -1.197   0.471   0.172  0.00  0.00    +0.000 C 
ENDBRANCH   1  12
TORSDOF 2
