REMARK  Name = *****
REMARK  5 active torsions:
REMARK  status: ('A' for Active; 'I' for Inactive)
REMARK    1  A    between atoms: C_1  and  N_2
REMARK    2  A    between atoms: N_2  and  C_3
REMARK    3  A    between atoms: N_2  and  C_4
REMARK    4  A    between atoms: C_9  and  C_10
REMARK    5  A    between atoms: C_11  and  C_12
REMARK                            x       y       z     vdW  Elec       q    Type
REMARK                         _______ _______ _______ _____ _____    ______ ____
ROOT
ATOM      1  C   UNL     1       3.246  -0.730   0.808  0.00  0.00    +0.000 A 
ATOM      2  C   UNL     1       2.884  -2.084   0.964  0.00  0.00    +0.000 A 
ATOM      3  C   UNL     1       3.670  -2.988   1.688  0.00  0.00    +0.000 A 
ATOM      4  C   UNL     1       4.847  -2.562   2.289  0.00  0.00    +0.000 A 
ATOM      5  C   UNL     1       5.231  -1.230   2.170  0.00  0.00    +0.000 A 
ATOM      6  C   UNL     1       4.445  -0.317   1.446  0.00  0.00    +0.000 A 
ENDROOT
BRANCH   1   8
ATOM      7  C   UNL     1       1.030  -0.160  -0.137  0.00  0.00    +0.000 C 
ATOM      8  N   UNL     1       2.439   0.151   0.069  0.00  0.00    +0.000 N 
ATOM      9  C   UNL     1       3.096   0.867  -1.025  0.00  0.00    +0.000 C 
ENDBRANCH   1   8
BRANCH   6  10
ATOM     10  C   UNL     1       4.891   1.049   1.435  0.00  0.00    +0.000 C 
ATOM     11  C   UNL     1       5.260   2.193   1.419  0.00  0.00    +0.000 C 
BRANCH  11  12
ATOM     12  C   UNL     1       5.672   3.561   1.366  0.00  0.00    +0.000 A 
ATOM     13  C   UNL     1       6.883   3.956   1.936  0.00  0.00    +0.000 A 
ATOM     14  C   UNL     1       7.281   5.294   1.873  0.00  0.00    +0.000 A 
ATOM     15  C   UNL     1       6.469   6.235   1.240  0.00  0.00    +0.000 A 
ATOM     16  C   UNL     1       5.258   5.842   0.671  0.00  0.00    +0.000 A 
ATOM     17  C   UNL     1       4.858   4.506   0.735  0.00  0.00    +0.000 A 
ENDBRANCH  11  12
ENDBRANCH   6  10
TORSDOF 3
