REMARK  Name = *****
REMARK  2 active torsions:
REMARK  status: ('A' for Active; 'I' for Inactive)
REMARK    1  A    between atoms: C_2  and  C_11
REMARK    2  A    between atoms: C_3  and  C_4
REMARK                            x       y       z     vdW  Elec       q    Type
REMARK                         _______ _______ _______ _____ _____    ______ ____
ROOT
ATOM      1  C   UNL     1       0.056   0.585   0.106  0.00  0.00    +0.000 C 
ATOM      2  C   UNL     1       0.717  -0.767   0.188  0.00  0.00    +0.000 C 
ATOM      3  C   UNL     1      -0.732  -0.645  -0.278  0.00  0.00    +0.000 C 
ATOM      4 CL   UNL     1      -1.125  -0.788  -2.006  0.00  0.00    +0.000 Cl
ENDROOT
BRANCH   2   5
ATOM      5  C   UNL     1       1.846  -1.133  -0.750  0.00  0.00    +0.000 A 
ATOM      6  C   UNL     1       2.921  -0.257  -0.985  0.00  0.00    +0.000 A 
ATOM      7  C   UNL     1       3.978  -0.607  -1.831  0.00  0.00    +0.000 A 
ATOM      8  C   UNL     1       3.981  -1.851  -2.452  0.00  0.00    +0.000 A 
ATOM      9  C   UNL     1       2.941  -2.746  -2.229  0.00  0.00    +0.000 A 
ATOM     10  C   UNL     1       1.888  -2.389  -1.381  0.00  0.00    +0.000 A 
ATOM     11 CL   UNL     1       5.280  -2.287  -3.492  0.00  0.00    +0.000 Cl
ENDBRANCH   2   5
BRANCH   3  12
ATOM     12  C   UNL     1      -1.839  -1.148   0.627  0.00  0.00    +0.000 A 
ATOM     13  C   UNL     1      -2.888  -0.308   1.043  0.00  0.00    +0.000 A 
ATOM     14  C   UNL     1      -3.910  -0.773   1.876  0.00  0.00    +0.000 A 
ATOM     15  C   UNL     1      -3.907  -2.095   2.308  0.00  0.00    +0.000 A 
ATOM     16  C   UNL     1      -2.889  -2.953   1.905  0.00  0.00    +0.000 A 
ATOM     17  C   UNL     1      -1.870  -2.483   1.071  0.00  0.00    +0.000 A 
ENDBRANCH   3  12
TORSDOF 2
