REMARK  Name = *****
REMARK  3 active torsions:
REMARK  status: ('A' for Active; 'I' for Inactive)
REMARK    1  A    between atoms: C_4  and  N_7
REMARK    2  A    between atoms: C_8  and  C_10
REMARK    3  A    between atoms: C_15  and  O_16
REMARK                            x       y       z     vdW  Elec       q    Type
REMARK                         _______ _______ _______ _____ _____    ______ ____
ROOT
ATOM      1  N   UNL     1      -2.823   0.128  -0.158  0.00  0.00    +0.000 N 
ATOM      2  C   UNL     1      -3.736  -0.893  -0.348  0.00  0.00    +0.000 C 
ATOM      3  O   UNL     1      -3.475  -2.064  -0.601  0.00  0.00    +0.000 OA
ATOM      4  H   UNL     1      -3.201   1.023   0.001  0.00  0.00    +0.000 HD
ENDROOT
BRANCH   1   8
ATOM      5  C   UNL     1       1.394   0.037  -0.141  0.00  0.00    +0.000 A 
ATOM      6  C   UNL     1       0.693  -1.148  -0.351  0.00  0.00    +0.000 A 
ATOM      7  C   UNL     1      -0.706  -1.147  -0.362  0.00  0.00    +0.000 A 
ATOM      8  C   UNL     1      -1.415   0.039  -0.164  0.00  0.00    +0.000 A 
ATOM      9  C   UNL     1      -0.700   1.225   0.047  0.00  0.00    +0.000 A 
ATOM     10  C   UNL     1       0.698   1.225   0.058  0.00  0.00    +0.000 A 
ENDBRANCH   1   8
BRANCH   2  11
ATOM     11  C   UNL     1      -5.176  -0.499  -0.283  0.00  0.00    +0.000 A 
ATOM     12  C   UNL     1      -6.073  -1.216  -1.092  0.00  0.00    +0.000 A 
ATOM     13  C   UNL     1      -7.434  -0.906  -1.092  0.00  0.00    +0.000 A 
ATOM     14  C   UNL     1      -7.913   0.119  -0.280  0.00  0.00    +0.000 A 
ATOM     15  C   UNL     1      -7.034   0.829   0.540  0.00  0.00    +0.000 A 
ATOM     16  C   UNL     1      -5.670   0.519   0.544  0.00  0.00    +0.000 A 
BRANCH  16  17
ATOM     17  O   UNL     1      -4.812   1.192   1.376  0.00  0.00    +0.000 OA
ATOM     18  F   UNL     1      -5.427   2.241   2.091  0.00  0.00    +0.000 F 
ENDBRANCH  16  17
ENDBRANCH   2  11
TORSDOF 3
