REMARK  Name = *****
REMARK  5 active torsions:
REMARK  status: ('A' for Active; 'I' for Inactive)
REMARK    1  A    between atoms: C_1  and  O_2
REMARK    2  A    between atoms: O_2  and  C_3
REMARK    3  A    between atoms: C_3  and  C_5
REMARK    4  A    between atoms: C_6  and  C_10
REMARK    5  A    between atoms: C_11  and  C_12
REMARK                            x       y       z     vdW  Elec       q    Type
REMARK                         _______ _______ _______ _____ _____    ______ ____
ROOT
ATOM      1  C   UNL     1       6.499  -1.146  -0.336  0.00  0.00    +0.000 A 
ATOM      2  C   UNL     1       5.182  -0.899   0.043  0.00  0.00    +0.000 A 
ATOM      3  C   UNL     1       4.376  -0.487  -1.070  0.00  0.00    +0.000 A 
ATOM      4  C   UNL     1       5.086  -0.419  -2.245  0.00  0.00    +0.000 A 
ATOM      5  S   UNL     1       6.719  -0.839  -2.022  0.00  0.00    +0.000 S 
ENDROOT
BRANCH   1   6
ATOM      6  C   UNL     1       7.672  -1.608   0.398  0.00  0.00    +0.000 C 
ATOM      7  O   UNL     1       8.834  -1.561   0.006  0.00  0.00    +0.000 OA
BRANCH   6   9
ATOM      8  C   UNL     1       8.405  -2.646   2.371  0.00  0.00    +0.000 C 
ATOM      9  O   UNL     1       7.313  -2.142   1.602  0.00  0.00    +0.000 OA
ENDBRANCH   6   9
ENDBRANCH   1   6
BRANCH   2  10
ATOM     10  C   UNL     1       4.681  -1.000   1.387  0.00  0.00    +0.000 C 
ATOM     11  C   UNL     1       3.422  -1.334   1.720  0.00  0.00    +0.000 C 
BRANCH  11  12
ATOM     12  C   UNL     1       2.939  -1.435   3.105  0.00  0.00    +0.000 A 
ATOM     13  C   UNL     1       3.302  -0.510   4.093  0.00  0.00    +0.000 A 
ATOM     14  C   UNL     1       2.797  -0.622   5.391  0.00  0.00    +0.000 A 
ATOM     15  C   UNL     1       1.916  -1.652   5.711  0.00  0.00    +0.000 A 
ATOM     16  C   UNL     1       1.534  -2.568   4.733  0.00  0.00    +0.000 A 
ATOM     17  C   UNL     1       2.039  -2.456   3.435  0.00  0.00    +0.000 A 
ENDBRANCH  11  12
ENDBRANCH   2  10
TORSDOF 4
