REMARK  Name = *****
REMARK  3 active torsions:
REMARK  status: ('A' for Active; 'I' for Inactive)
REMARK    1  A    between atoms: C_4  and  O_7
REMARK    2  A    between atoms: O_7  and  C_8
REMARK    3  A    between atoms: C_8  and  C_10
REMARK                            x       y       z     vdW  Elec       q    Type
REMARK                         _______ _______ _______ _____ _____    ______ ____
ROOT
ATOM      1  C   UNL     1       3.425  -1.781   0.300  0.00  0.00    +0.000 C 
ATOM      2  O   UNL     1       3.050  -2.443   1.254  0.00  0.00    +0.000 OA
ENDROOT
BRANCH   1   3
ATOM      3  C   UNL     1       4.710  -2.023  -0.385  0.00  0.00    +0.000 A 
ATOM      4  C   UNL     1       5.394  -1.022  -1.080  0.00  0.00    +0.000 A 
ATOM      5  C   UNL     1       6.609  -1.294  -1.709  0.00  0.00    +0.000 A 
ATOM      6  C   UNL     1       7.153  -2.577  -1.640  0.00  0.00    +0.000 A 
ATOM      7  C   UNL     1       6.477  -3.569  -0.936  0.00  0.00    +0.000 A 
ATOM      8  C   UNL     1       5.266  -3.306  -0.305  0.00  0.00    +0.000 A 
ATOM      9  F   UNL     1       7.004  -4.798  -0.866  0.00  0.00    +0.000 F 
ATOM     10  F   UNL     1       4.925   0.233  -1.142  0.00  0.00    +0.000 F 
ENDBRANCH   1   3
BRANCH   1  11
ATOM     11  O   UNL     1       2.728  -0.803  -0.324  0.00  0.00    +0.000 OA
BRANCH  11  15
ATOM     12  C   UNL     1      -1.349   0.371  -0.264  0.00  0.00    +0.000 C 
ATOM     13  C   UNL     1      -1.021  -1.066   0.133  0.00  0.00    +0.000 C 
ATOM     14  C   UNL     1       0.386  -1.462  -0.302  0.00  0.00    +0.000 C 
ATOM     15  C   UNL     1       1.439  -0.486   0.232  0.00  0.00    +0.000 C 
ATOM     16  C   UNL     1       1.105   0.950  -0.182  0.00  0.00    +0.000 C 
ATOM     17  C   UNL     1      -0.300   1.352   0.252  0.00  0.00    +0.000 C 
ENDBRANCH  11  15
ENDBRANCH   1  11
TORSDOF 3
