REMARK  Name = *****
REMARK  6 active torsions:
REMARK  status: ('A' for Active; 'I' for Inactive)
REMARK    1  A    between atoms: C_1  and  O_2
REMARK    2  A    between atoms: O_2  and  C_3
REMARK    3  A    between atoms: C_3  and  C_5
REMARK    4  A    between atoms: C_5  and  C_13
REMARK    5  A    between atoms: C_6  and  C_7
REMARK    6  A    between atoms: C_13  and  C_14
REMARK                            x       y       z     vdW  Elec       q    Type
REMARK                         _______ _______ _______ _____ _____    ______ ____
ROOT
ATOM      1  C   UNL     1       4.851  -0.838  -0.717  0.00  0.00    +0.000 C 
ATOM      2  C   UNL     1       5.391  -0.051   0.235  0.00  0.00    +0.000 C 
ENDROOT
BRANCH   2   3
ATOM      3  C   UNL     1       4.660   0.843   1.137  0.00  0.00    +0.000 A 
ATOM      4  C   UNL     1       4.601   0.550   2.503  0.00  0.00    +0.000 A 
ATOM      5  C   UNL     1       3.911   1.395   3.374  0.00  0.00    +0.000 A 
ATOM      6  C   UNL     1       3.283   2.540   2.884  0.00  0.00    +0.000 A 
ATOM      7  C   UNL     1       3.343   2.840   1.524  0.00  0.00    +0.000 A 
ATOM      8  C   UNL     1       4.030   1.994   0.651  0.00  0.00    +0.000 A 
ENDBRANCH   2   3
BRANCH   1   9
ATOM      9  C   UNL     1       3.392  -0.924  -0.970  0.00  0.00    +0.000 C 
ATOM     10  O   UNL     1       2.904  -0.861  -2.089  0.00  0.00    +0.000 OA
BRANCH   9  12
ATOM     11  C   UNL     1       1.309  -1.277   0.021  0.00  0.00    +0.000 C 
ATOM     12  O   UNL     1       2.722  -1.171   0.181  0.00  0.00    +0.000 OA
ENDBRANCH   9  12
ENDBRANCH   1   9
BRANCH   1  13
ATOM     13  C   UNL     1       5.690  -1.658  -1.662  0.00  0.00    +0.000 C 
BRANCH  13  14
ATOM     14  C   UNL     1       5.677  -3.137  -1.388  0.00  0.00    +0.000 A 
ATOM     15  C   UNL     1       4.811  -4.090  -1.889  0.00  0.00    +0.000 A 
ATOM     16  C   UNL     1       5.102  -5.396  -1.400  0.00  0.00    +0.000 A 
ATOM     17  C   UNL     1       6.179  -5.397  -0.542  0.00  0.00    +0.000 A 
ATOM     18  S   UNL     1       6.831  -3.831  -0.328  0.00  0.00    +0.000 S 
ENDBRANCH  13  14
ENDBRANCH   1  13
TORSDOF 5
