REMARK  Name = *****
REMARK  4 active torsions:
REMARK  status: ('A' for Active; 'I' for Inactive)
REMARK    1  A    between atoms: C_1  and  C_2
REMARK    2  A    between atoms: C_6  and  C_8
REMARK    3  A    between atoms: C_6  and  C_9
REMARK    4  A    between atoms: C_10  and  C_11
REMARK                            x       y       z     vdW  Elec       q    Type
REMARK                         _______ _______ _______ _____ _____    ______ ____
ROOT
ATOM      1  C   UNL     1       3.209   0.229   1.388  0.00  0.00    +0.000 C 
ATOM      2  C   UNL     1       2.714   0.160  -0.051  0.00  0.00    +0.000 C 
ATOM      3  C   UNL     1       3.353   1.257  -0.899  0.00  0.00    +0.000 C 
ATOM      4  C   UNL     1       2.932   1.117  -2.355  0.00  0.00    +0.000 C 
ATOM      5  C   UNL     1       3.207  -0.301  -2.848  0.00  0.00    +0.000 C 
ATOM      6  C   UNL     1       2.628  -1.385  -1.912  0.00  0.00    +0.000 C 
ATOM      7  O   UNL     1       3.053  -1.135  -0.559  0.00  0.00    +0.000 OA
ATOM      8  C   UNL     1       3.241  -2.741  -2.297  0.00  0.00    +0.000 C 
ENDROOT
BRANCH   6   9
ATOM      9  C   UNL     1       1.119  -1.564  -1.907  0.00  0.00    +0.000 C 
ATOM     10  C   UNL     1       0.217  -1.024  -2.746  0.00  0.00    +0.000 C 
BRANCH  10  11
ATOM     11  C   UNL     1      -1.274  -1.265  -2.637  0.00  0.00    +0.000 C 
ATOM     12  C   UNL     1      -1.834  -1.908  -3.916  0.00  0.00    +0.000 C 
ATOM     13  C   UNL     1      -1.928  -0.936  -5.093  0.00  0.00    +0.000 C 
ATOM     14  C   UNL     1      -2.694   0.330  -4.721  0.00  0.00    +0.000 C 
ATOM     15  C   UNL     1      -2.111   1.004  -3.483  0.00  0.00    +0.000 C 
ATOM     16  C   UNL     1      -2.023   0.036  -2.303  0.00  0.00    +0.000 C 
ENDBRANCH  10  11
ENDBRANCH   6   9
TORSDOF 2
