REMARK  Name = *****
REMARK  4 active torsions:
REMARK  status: ('A' for Active; 'I' for Inactive)
REMARK    1  A    between atoms: C_4  and  C_7
REMARK    2  A    between atoms: C_7  and  C_8
REMARK    3  A    between atoms: C_7  and  C_10
REMARK    4  A    between atoms: C_10  and  C_12
REMARK                            x       y       z     vdW  Elec       q    Type
REMARK                         _______ _______ _______ _____ _____    ______ ____
ROOT
ATOM      1  C   UNL     1      -2.904   0.842  -1.185  0.00  0.00    +0.000 C 
ENDROOT
BRANCH   1   5
ATOM      2  C   UNL     1       0.173  -0.769   1.406  0.00  0.00    +0.000 A 
ATOM      3  C   UNL     1      -0.435   0.446   1.711  0.00  0.00    +0.000 A 
ATOM      4  C   UNL     1      -1.424   0.964   0.874  0.00  0.00    +0.000 A 
ATOM      5  C   UNL     1      -1.821   0.269  -0.279  0.00  0.00    +0.000 A 
ATOM      6  C   UNL     1      -1.191  -0.950  -0.580  0.00  0.00    +0.000 A 
ATOM      7  C   UNL     1      -0.202  -1.465   0.260  0.00  0.00    +0.000 A 
ENDBRANCH   1   5
BRANCH   1   8
ATOM      8  C   UNL     1      -2.323   1.373  -2.501  0.00  0.00    +0.000 C 
ATOM      9 BR   UNL     1      -1.365   3.056  -2.222  0.00  0.00    +0.000 Br
ENDBRANCH   1   8
BRANCH   1  10
ATOM     10  C   UNL     1      -3.978  -0.205  -1.498  0.00  0.00    +0.000 C 
ATOM     11  O   UNL     1      -4.069  -0.719  -2.616  0.00  0.00    +0.000 OA
BRANCH  10  12
ATOM     12  C   UNL     1      -4.932  -0.647  -0.429  0.00  0.00    +0.000 A 
ATOM     13  C   UNL     1      -5.046  -0.002   0.808  0.00  0.00    +0.000 A 
ATOM     14  C   UNL     1      -5.956  -0.466   1.764  0.00  0.00    +0.000 A 
ATOM     15  C   UNL     1      -6.758  -1.572   1.492  0.00  0.00    +0.000 A 
ATOM     16  C   UNL     1      -6.655  -2.219   0.263  0.00  0.00    +0.000 A 
ATOM     17  C   UNL     1      -5.748  -1.758  -0.694  0.00  0.00    +0.000 A 
ENDBRANCH  10  12
ENDBRANCH   1  10
TORSDOF 4
