REMARK  Name = *****
REMARK  5 active torsions:
REMARK  status: ('A' for Active; 'I' for Inactive)
REMARK    1  A    between atoms: C_1  and  N_2
REMARK    2  A    between atoms: N_2  and  C_3
REMARK    3  A    between atoms: N_2  and  C_4
REMARK    4  A    between atoms: C_7  and  C_10
REMARK    5  A    between atoms: C_11  and  C_12
REMARK                            x       y       z     vdW  Elec       q    Type
REMARK                         _______ _______ _______ _____ _____    ______ ____
ROOT
ATOM      1  C   UNL     1       3.201  -1.228  -0.332  0.00  0.00    +0.000 A 
ATOM      2  C   UNL     1       2.639  -2.166  -1.218  0.00  0.00    +0.000 A 
ATOM      3  C   UNL     1       3.179  -3.449  -1.396  0.00  0.00    +0.000 A 
ATOM      4  C   UNL     1       4.315  -3.831  -0.693  0.00  0.00    +0.000 A 
ATOM      5  C   UNL     1       4.909  -2.926   0.179  0.00  0.00    +0.000 A 
ATOM      6  C   UNL     1       4.359  -1.646   0.348  0.00  0.00    +0.000 A 
ENDROOT
BRANCH   1   8
ATOM      7  C   UNL     1       1.270   0.283  -0.558  0.00  0.00    +0.000 C 
ATOM      8  N   UNL     1       2.663   0.055  -0.174  0.00  0.00    +0.000 N 
ATOM      9  C   UNL     1       3.177   0.923   0.882  0.00  0.00    +0.000 C 
ENDBRANCH   1   8
BRANCH   4  10
ATOM     10  C   UNL     1       4.871  -5.136  -0.870  0.00  0.00    +0.000 C 
ATOM     11  C   UNL     1       5.338  -6.233  -1.018  0.00  0.00    +0.000 C 
BRANCH  11  12
ATOM     12  C   UNL     1       5.893  -7.539  -1.193  0.00  0.00    +0.000 A 
ATOM     13  C   UNL     1       7.109  -7.698  -1.859  0.00  0.00    +0.000 A 
ATOM     14  C   UNL     1       7.635  -8.975  -2.020  0.00  0.00    +0.000 A 
ATOM     15  C   UNL     1       6.971 -10.095  -1.531  0.00  0.00    +0.000 A 
ATOM     16  C   UNL     1       5.756  -9.938  -0.866  0.00  0.00    +0.000 A 
ATOM     17  C   UNL     1       5.217  -8.659  -0.697  0.00  0.00    +0.000 A 
ATOM     18  F   UNL     1       8.802  -9.130  -2.659  0.00  0.00    +0.000 F 
ENDBRANCH  11  12
ENDBRANCH   4  10
TORSDOF 3
