REMARK  Name = *****
REMARK  4 active torsions:
REMARK  status: ('A' for Active; 'I' for Inactive)
REMARK    1  A    between atoms: C_1  and  C_2
REMARK    2  A    between atoms: C_7  and  C_8
REMARK    3  A    between atoms: C_8  and  C_9
REMARK    4  A    between atoms: C_9  and  C_15
REMARK                            x       y       z     vdW  Elec       q    Type
REMARK                         _______ _______ _______ _____ _____    ______ ____
ROOT
ATOM      1  C   UNL     1       1.099  -2.428   0.134  0.00  0.00    +0.000 C 
ENDROOT
BRANCH   1   8
ATOM      2  C   UNL     1      -0.060  -0.566   2.244  0.00  0.00    +0.000 C 
ATOM      3  C   UNL     1      -0.530  -0.552   0.816  0.00  0.00    +0.000 A 
ATOM      4  C   UNL     1      -1.520   0.376   0.448  0.00  0.00    +0.000 A 
ATOM      5  C   UNL     1      -1.987   0.448  -0.863  0.00  0.00    +0.000 A 
ATOM      6  C   UNL     1      -1.469  -0.405  -1.830  0.00  0.00    +0.000 A 
ATOM      7  C   UNL     1      -0.483  -1.328  -1.484  0.00  0.00    +0.000 A 
ATOM      8  C   UNL     1       0.002  -1.416  -0.165  0.00  0.00    +0.000 A 
ENDBRANCH   1   8
BRANCH   1   9
ATOM      9  C   UNL     1       2.505  -1.849   0.089  0.00  0.00    +0.000 C 
ATOM     10  C   UNL     1       3.392  -1.889   1.111  0.00  0.00    +0.000 C 
ATOM     11  S   UNL     1       5.009  -1.211   1.000  0.00  0.00    +0.000 S 
ATOM     12  C   UNL     1       5.640  -1.936   2.539  0.00  0.00    +0.000 C 
ATOM     13  C   UNL     1       4.491  -1.968   3.528  0.00  0.00    +0.000 C 
ATOM     14  S   UNL     1       3.044  -2.636   2.657  0.00  0.00    +0.000 S 
BRANCH   9  15
ATOM     15  C   UNL     1       2.889  -1.288  -1.175  0.00  0.00    +0.000 C 
ATOM     16  N   UNL     1       3.177  -0.870  -2.219  0.00  0.00    +0.000 NA
ENDBRANCH   9  15
ENDBRANCH   1   9
TORSDOF 3
