REMARK  Name = *****
REMARK  4 active torsions:
REMARK  status: ('A' for Active; 'I' for Inactive)
REMARK    1  A    between atoms: C_1  and  C_2
REMARK    2  A    between atoms: C_2  and  C_3
REMARK    3  A    between atoms: C_2  and  O_9
REMARK    4  A    between atoms: O_9  and  C_10
REMARK                            x       y       z     vdW  Elec       q    Type
REMARK                         _______ _______ _______ _____ _____    ______ ____
ROOT
ATOM      1  C   UNL     1       1.034  -0.259  -0.284  0.00  0.00    +0.000 C 
ATOM      2  C   UNL     1       2.524   0.054  -0.143  0.00  0.00    +0.000 C 
ENDROOT
BRANCH   2   3
ATOM      3  C   UNL     1       2.713   1.196   0.847  0.00  0.00    +0.000 A 
ATOM      4  C   UNL     1       2.751   0.969   2.232  0.00  0.00    +0.000 A 
ATOM      5  C   UNL     1       2.902   2.032   3.125  0.00  0.00    +0.000 A 
ATOM      6  C   UNL     1       3.008   3.336   2.646  0.00  0.00    +0.000 A 
ATOM      7  C   UNL     1       2.963   3.579   1.275  0.00  0.00    +0.000 A 
ATOM      8  C   UNL     1       2.814   2.517   0.381  0.00  0.00    +0.000 A 
ENDBRANCH   2   3
BRANCH   2   9
ATOM      9  O   UNL     1       3.221  -1.099   0.349  0.00  0.00    +0.000 OA
BRANCH   9  10
ATOM     10  C   UNL     1       3.684  -2.036  -0.529  0.00  0.00    +0.000 A 
ATOM     11  C   UNL     1       3.470  -2.065  -1.907  0.00  0.00    +0.000 A 
ATOM     12  C   UNL     1       4.007  -3.101  -2.682  0.00  0.00    +0.000 A 
ATOM     13  C   UNL     1       4.755  -4.109  -2.077  0.00  0.00    +0.000 A 
ATOM     14  C   UNL     1       4.970  -4.092  -0.703  0.00  0.00    +0.000 A 
ATOM     15  C   UNL     1       4.433  -3.057   0.066  0.00  0.00    +0.000 A 
ATOM     16 CL   UNL     1       5.411  -5.379  -3.033  0.00  0.00    +0.000 Cl
ENDBRANCH   9  10
ENDBRANCH   2   9
TORSDOF 3
