REMARK  Name = *****
REMARK  5 active torsions:
REMARK  status: ('A' for Active; 'I' for Inactive)
REMARK    1  A    between atoms: C_1  and  O_2
REMARK    2  A    between atoms: O_2  and  C_3
REMARK    3  A    between atoms: C_6  and  S_9
REMARK    4  A    between atoms: S_9  and  C_10
REMARK    5  A    between atoms: C_10  and  C_12
REMARK                            x       y       z     vdW  Elec       q    Type
REMARK                         _______ _______ _______ _____ _____    ______ ____
ROOT
ATOM      1  S   UNL     1       5.164  -3.447  -4.108  0.00  0.00    +0.000 S 
ENDROOT
BRANCH   1   5
ATOM      2  C   UNL     1       3.243  -0.546  -1.106  0.00  0.00    +0.000 A 
ATOM      3  C   UNL     1       2.561  -0.889  -2.273  0.00  0.00    +0.000 A 
ATOM      4  C   UNL     1       3.144  -1.765  -3.197  0.00  0.00    +0.000 A 
ATOM      5  C   UNL     1       4.418  -2.294  -2.974  0.00  0.00    +0.000 A 
ATOM      6  C   UNL     1       5.094  -1.958  -1.798  0.00  0.00    +0.000 A 
ATOM      7  C   UNL     1       4.508  -1.087  -0.874  0.00  0.00    +0.000 A 
BRANCH   2   9
ATOM      8  C   UNL     1       1.525   0.907  -0.340  0.00  0.00    +0.000 C 
ATOM      9  O   UNL     1       2.789   0.291  -0.125  0.00  0.00    +0.000 OA
ENDBRANCH   2   9
ENDBRANCH   1   5
BRANCH   1  10
ATOM     10  C   UNL     1       5.337  -2.501  -5.585  0.00  0.00    +0.000 C 
ATOM     11  O   UNL     1       4.757  -1.434  -5.754  0.00  0.00    +0.000 OA
BRANCH  10  12
ATOM     12  C   UNL     1       6.183  -3.069  -6.681  0.00  0.00    +0.000 A 
ATOM     13  C   UNL     1       7.105  -4.110  -6.493  0.00  0.00    +0.000 A 
ATOM     14  C   UNL     1       7.863  -4.588  -7.569  0.00  0.00    +0.000 A 
ATOM     15  C   UNL     1       7.707  -4.027  -8.836  0.00  0.00    +0.000 A 
ATOM     16  C   UNL     1       6.803  -2.988  -9.037  0.00  0.00    +0.000 A 
ATOM     17  C   UNL     1       6.047  -2.509  -7.963  0.00  0.00    +0.000 A 
ATOM     18 CL   UNL     1       8.638  -4.620 -10.154  0.00  0.00    +0.000 Cl
ENDBRANCH  10  12
ENDBRANCH   1  10
TORSDOF 4
