REMARK  Name = *****
REMARK  3 active torsions:
REMARK  status: ('A' for Active; 'I' for Inactive)
REMARK    1  A    between atoms: C_1  and  C_2
REMARK    2  A    between atoms: C_5  and  C_7
REMARK    3  A    between atoms: C_8  and  C_9
REMARK                            x       y       z     vdW  Elec       q    Type
REMARK                         _______ _______ _______ _____ _____    ______ ____
ROOT
ATOM      1  C   UNL     1      -2.410   1.654   0.071  0.00  0.00    +0.000 C 
ATOM      2  C   UNL     1      -3.714   1.342   0.013  0.00  0.00    +0.000 C 
ENDROOT
BRANCH   2   3
ATOM      3  C   UNL     1      -4.797   2.335   0.028  0.00  0.00    +0.000 A 
ATOM      4  C   UNL     1      -4.707   3.553  -0.663  0.00  0.00    +0.000 A 
ATOM      5  C   UNL     1      -5.772   4.457  -0.647  0.00  0.00    +0.000 A 
ATOM      6  C   UNL     1      -6.930   4.140   0.051  0.00  0.00    +0.000 A 
ATOM      7  C   UNL     1      -7.048   2.933   0.728  0.00  0.00    +0.000 A 
ATOM      8  C   UNL     1      -5.984   2.028   0.712  0.00  0.00    +0.000 A 
ATOM      9  F   UNL     1      -7.951   5.007   0.064  0.00  0.00    +0.000 F 
ENDBRANCH   2   3
BRANCH   1  14
ATOM     10  C   UNL     1      -0.596  -2.861  -0.047  0.00  0.00    +0.000 C 
ATOM     11  C   UNL     1      -0.503  -1.389   0.014  0.00  0.00    +0.000 A 
ATOM     12  C   UNL     1       0.547  -0.507   0.086  0.00  0.00    +0.000 A 
ATOM     13  C   UNL     1      -0.032   0.784   0.118  0.00  0.00    +0.000 A 
ATOM     14  C   UNL     1      -1.414   0.639   0.064  0.00  0.00    +0.000 A 
ATOM     15  O   UNL     1      -1.681  -0.712   0.000  0.00  0.00    +0.000 OA
ENDBRANCH   1  14
TORSDOF 2
