REMARK  Name = *****
REMARK  2 active torsions:
REMARK  status: ('A' for Active; 'I' for Inactive)
REMARK    1  A    between atoms: C_4  and  C_7
REMARK    2  A    between atoms: C_8  and  C_9
REMARK                            x       y       z     vdW  Elec       q    Type
REMARK                         _______ _______ _______ _____ _____    ______ ____
ROOT
ATOM      1  C   UNL     1      -5.164  -0.265  -0.587  0.00  0.00    +0.000 A 
ATOM      2  C   UNL     1      -5.700   0.825  -1.290  0.00  0.00    +0.000 A 
ATOM      3  C   UNL     1      -7.077   0.971  -1.454  0.00  0.00    +0.000 A 
ATOM      4  C   UNL     1      -7.947   0.027  -0.931  0.00  0.00    +0.000 A 
ATOM      5  C   UNL     1      -7.443  -1.067  -0.249  0.00  0.00    +0.000 A 
ATOM      6  C   UNL     1      -6.068  -1.214  -0.084  0.00  0.00    +0.000 A 
ATOM      7  F   UNL     1      -5.611  -2.290   0.577  0.00  0.00    +0.000 F 
ATOM      8  F   UNL     1      -8.279  -1.989   0.250  0.00  0.00    +0.000 F 
ATOM      9  F   UNL     1      -9.270   0.170  -1.093  0.00  0.00    +0.000 F 
ATOM     10  F   UNL     1      -7.560   2.025  -2.127  0.00  0.00    +0.000 F 
ATOM     11  F   UNL     1      -4.896   1.749  -1.838  0.00  0.00    +0.000 F 
ENDROOT
BRANCH   1  13
ATOM     12  C   UNL     1      -2.782   0.468  -0.345  0.00  0.00    +0.000 C 
ATOM     13  C   UNL     1      -3.719  -0.494  -0.398  0.00  0.00    +0.000 C 
BRANCH  12  17
ATOM     14  C   UNL     1       1.402  -0.188   0.277  0.00  0.00    +0.000 A 
ATOM     15  C   UNL     1       0.671  -1.099  -0.482  0.00  0.00    +0.000 A 
ATOM     16  C   UNL     1      -0.697  -0.902  -0.689  0.00  0.00    +0.000 A 
ATOM     17  C   UNL     1      -1.351   0.203  -0.127  0.00  0.00    +0.000 A 
ATOM     18  C   UNL     1      -0.601   1.121   0.620  0.00  0.00    +0.000 A 
ATOM     19  C   UNL     1       0.767   0.924   0.826  0.00  0.00    +0.000 A 
ENDBRANCH  12  17
ENDBRANCH   1  13
TORSDOF 2
