REMARK  Name = *****
REMARK  4 active torsions:
REMARK  status: ('A' for Active; 'I' for Inactive)
REMARK    1  A    between atoms: C_1  and  C_2
REMARK    2  A    between atoms: C_4  and  O_8
REMARK    3  A    between atoms: O_8  and  C_9
REMARK    4  A    between atoms: C_9  and  C_11
REMARK                            x       y       z     vdW  Elec       q    Type
REMARK                         _______ _______ _______ _____ _____    ______ ____
ROOT
ATOM      1  O   UNL     1      -1.632   2.603   0.245  0.00  0.00    +0.000 OA
ENDROOT
BRANCH   1   5
ATOM      2  C   UNL     1       2.487  -0.144   0.288  0.00  0.00    +0.000 C 
ATOM      3  C   UNL     1       1.008   0.006   0.090  0.00  0.00    +0.000 A 
ATOM      4  C   UNL     1       0.397   1.257   0.235  0.00  0.00    +0.000 A 
ATOM      5  C   UNL     1      -0.982   1.376   0.058  0.00  0.00    +0.000 A 
ATOM      6  C   UNL     1      -1.775   0.263  -0.211  0.00  0.00    +0.000 A 
ATOM      7  C   UNL     1      -1.172  -0.986  -0.338  0.00  0.00    +0.000 A 
ATOM      8  C   UNL     1       0.212  -1.115  -0.186  0.00  0.00    +0.000 A 
ENDBRANCH   1   5
BRANCH   1   9
ATOM      9  C   UNL     1      -1.295   3.621  -0.649  0.00  0.00    +0.000 C 
ATOM     10  O   UNL     1      -0.502   3.510  -1.577  0.00  0.00    +0.000 OA
BRANCH   9  11
ATOM     11  C   UNL     1      -2.040   4.820  -0.297  0.00  0.00    +0.000 A 
ATOM     12  C   UNL     1      -2.957   5.026   0.720  0.00  0.00    +0.000 A 
ATOM     13  C   UNL     1      -3.473   6.355   0.733  0.00  0.00    +0.000 A 
ATOM     14  C   UNL     1      -2.934   7.125  -0.272  0.00  0.00    +0.000 A 
ATOM     15  S   UNL     1      -1.817   6.248  -1.222  0.00  0.00    +0.000 S 
ENDBRANCH   9  11
ENDBRANCH   1   9
TORSDOF 3
