REMARK  Name = *****
REMARK  3 active torsions:
REMARK  status: ('A' for Active; 'I' for Inactive)
REMARK    1  A    between atoms: C_4  and  O_7
REMARK    2  A    between atoms: O_7  and  C_8
REMARK    3  A    between atoms: C_8  and  C_10
REMARK                            x       y       z     vdW  Elec       q    Type
REMARK                         _______ _______ _______ _____ _____    ______ ____
ROOT
ATOM      1  C   UNL     1      -3.616  -0.534   0.026  0.00  0.00    +0.000 C 
ATOM      2  O   UNL     1      -3.406  -1.602   0.572  0.00  0.00    +0.000 OA
ENDROOT
BRANCH   1   3
ATOM      3  C   UNL     1      -4.956  -0.046  -0.305  0.00  0.00    +0.000 A 
ATOM      4  C   UNL     1      -5.661   0.732   0.617  0.00  0.00    +0.000 A 
ATOM      5  C   UNL     1      -6.948   1.182   0.306  0.00  0.00    +0.000 A 
ATOM      6  C   UNL     1      -7.528   0.853  -0.921  0.00  0.00    +0.000 A 
ATOM      7  C   UNL     1      -6.821   0.075  -1.839  0.00  0.00    +0.000 A 
ATOM      8  C   UNL     1      -5.535  -0.378  -1.533  0.00  0.00    +0.000 A 
ATOM      9 CL   UNL     1      -4.710  -1.327  -2.717  0.00  0.00    +0.000 Cl
ATOM     10 CL   UNL     1      -4.997   1.182   2.147  0.00  0.00    +0.000 Cl
ENDBRANCH   1   3
BRANCH   1  11
ATOM     11  O   UNL     1      -2.731   0.434  -0.398  0.00  0.00    +0.000 OA
BRANCH  11  15
ATOM     12  C   UNL     1       1.271  -0.454   0.342  0.00  0.00    +0.000 A 
ATOM     13  C   UNL     1       0.619  -1.054  -0.738  0.00  0.00    +0.000 A 
ATOM     14  C   UNL     1      -0.724  -0.773  -0.986  0.00  0.00    +0.000 A 
ATOM     15  C   UNL     1      -1.403   0.098  -0.136  0.00  0.00    +0.000 A 
ATOM     16  C   UNL     1      -0.759   0.717   0.934  0.00  0.00    +0.000 A 
ATOM     17  C   UNL     1       0.584   0.432   1.175  0.00  0.00    +0.000 A 
ENDBRANCH  11  15
ENDBRANCH   1  11
TORSDOF 3
