REMARK  Name = *****
REMARK  4 active torsions:
REMARK  status: ('A' for Active; 'I' for Inactive)
REMARK    1  A    between atoms: C_4  and  C_7
REMARK    2  A    between atoms: C_7  and  O_8
REMARK    3  A    between atoms: O_8  and  C_9
REMARK    4  A    between atoms: C_14  and  N_15
REMARK                            x       y       z     vdW  Elec       q    Type
REMARK                         _______ _______ _______ _____ _____    ______ ____
ROOT
ATOM      1  C   UNL     1      -4.901  -0.686  -0.670  0.00  0.00    +0.000 A 
ATOM      2  C   UNL     1      -5.638   0.467  -0.958  0.00  0.00    +0.000 A 
ATOM      3  C   UNL     1      -7.027   0.397  -1.075  0.00  0.00    +0.000 A 
ATOM      4  C   UNL     1      -7.685  -0.817  -0.899  0.00  0.00    +0.000 A 
ATOM      5  C   UNL     1      -6.955  -1.973  -0.616  0.00  0.00    +0.000 A 
ATOM      6  C   UNL     1      -5.556  -1.931  -0.525  0.00  0.00    +0.000 A 
ENDROOT
BRANCH   6   7
ATOM      7  N   UNL     1      -4.780  -3.072  -0.175  0.00  0.00    +0.000 N 
ATOM      8 CL   UNL     1      -5.275  -4.547  -0.934  0.00  0.00    +0.000 Cl
ATOM      9  H   UNL     1      -4.020  -3.025   0.449  0.00  0.00    +0.000 HD
ENDBRANCH   6   7
BRANCH   1  10
ATOM     10  O   UNL     1      -3.534  -0.737  -0.531  0.00  0.00    +0.000 OA
BRANCH  10  11
ATOM     11  C   UNL     1      -2.833   0.505  -0.503  0.00  0.00    +0.000 C 
BRANCH  11  15
ATOM     12  C   UNL     1       1.297  -0.331   0.420  0.00  0.00    +0.000 A 
ATOM     13  C   UNL     1       0.953   0.168  -0.835  0.00  0.00    +0.000 A 
ATOM     14  C   UNL     1      -0.383   0.439  -1.139  0.00  0.00    +0.000 A 
ATOM     15  C   UNL     1      -1.387   0.215  -0.187  0.00  0.00    +0.000 A 
ATOM     16  C   UNL     1      -1.028  -0.292   1.072  0.00  0.00    +0.000 A 
ATOM     17  C   UNL     1       0.307  -0.563   1.373  0.00  0.00    +0.000 A 
ENDBRANCH  11  15
ENDBRANCH  10  11
ENDBRANCH   1  10
TORSDOF 4
