REMARK  Name = *****
REMARK  4 active torsions:
REMARK  status: ('A' for Active; 'I' for Inactive)
REMARK    1  A    between atoms: C_1  and  O_2
REMARK    2  A    between atoms: O_2  and  C_3
REMARK    3  A    between atoms: C_6  and  C_9
REMARK    4  A    between atoms: C_10  and  C_11
REMARK                            x       y       z     vdW  Elec       q    Type
REMARK                         _______ _______ _______ _____ _____    ______ ____
ROOT
ATOM      1  C   UNL     1       4.990  -1.909   4.651  0.00  0.00    +0.000 C 
ATOM      2  C   UNL     1       5.556  -2.297   5.638  0.00  0.00    +0.000 C 
ENDROOT
BRANCH   2   3
ATOM      3  C   UNL     1       6.234  -2.753   6.815  0.00  0.00    +0.000 A 
ATOM      4  C   UNL     1       6.987  -1.888   7.626  0.00  0.00    +0.000 A 
ATOM      5  C   UNL     1       7.630  -2.373   8.766  0.00  0.00    +0.000 A 
ATOM      6  C   UNL     1       7.519  -3.720   9.090  0.00  0.00    +0.000 A 
ATOM      7  C   UNL     1       6.780  -4.591   8.299  0.00  0.00    +0.000 A 
ATOM      8  C   UNL     1       6.136  -4.108   7.159  0.00  0.00    +0.000 A 
ATOM      9  F   UNL     1       8.136  -4.186  10.184  0.00  0.00    +0.000 F 
ATOM     10 CL   UNL     1       7.154  -0.205   7.261  0.00  0.00    +0.000 Cl
ENDBRANCH   2   3
BRANCH   1  14
ATOM     11  C   UNL     1       3.007  -0.500   1.185  0.00  0.00    +0.000 A 
ATOM     12  C   UNL     1       2.465  -1.551   1.925  0.00  0.00    +0.000 A 
ATOM     13  C   UNL     1       3.122  -2.017   3.071  0.00  0.00    +0.000 A 
ATOM     14  C   UNL     1       4.323  -1.434   3.480  0.00  0.00    +0.000 A 
ATOM     15  C   UNL     1       4.868  -0.384   2.742  0.00  0.00    +0.000 A 
ATOM     16  C   UNL     1       4.210   0.078   1.599  0.00  0.00    +0.000 A 
BRANCH  11  18
ATOM     17  C   UNL     1       1.230  -0.484  -0.394  0.00  0.00    +0.000 C 
ATOM     18  O   UNL     1       2.470   0.049   0.054  0.00  0.00    +0.000 OA
ENDBRANCH  11  18
ENDBRANCH   1  14
TORSDOF 3
