REMARK  Name = *****
REMARK  5 active torsions:
REMARK  status: ('A' for Active; 'I' for Inactive)
REMARK    1  A    between atoms: C_1  and  C_2
REMARK    2  A    between atoms: C_2  and  C_3
REMARK    3  A    between atoms: C_3  and  N_4
REMARK    4  A    between atoms: N_4  and  C_5
REMARK    5  A    between atoms: C_11  and  C_13
REMARK                            x       y       z     vdW  Elec       q    Type
REMARK                         _______ _______ _______ _____ _____    ______ ____
ROOT
ATOM      1  N   UNL     1       4.449  -0.984   0.908  0.00  0.00    +0.000 N 
ATOM      2  C   UNL     1       5.074  -1.859   1.802  0.00  0.00    +0.000 C 
ATOM      3  O   UNL     1       6.299  -1.862   1.952  0.00  0.00    +0.000 OA
ENDROOT
BRANCH   1   4
ATOM      4  C   UNL     1       5.270   0.001   0.166  0.00  0.00    +0.000 C 
ATOM      5  C   UNL     1       6.251  -0.653  -0.821  0.00  0.00    +0.000 C 
ATOM      6  C   UNL     1       7.022   0.401  -1.616  0.00  0.00    +0.000 C 
ATOM      7  C   UNL     1       7.721   1.400  -0.698  0.00  0.00    +0.000 C 
ATOM      8  C   UNL     1       6.743   2.056   0.273  0.00  0.00    +0.000 C 
ATOM      9  C   UNL     1       5.971   1.017   1.085  0.00  0.00    +0.000 C 
ENDBRANCH   1   4
BRANCH   2  10
ATOM     10  C   UNL     1       4.218  -2.851   2.604  0.00  0.00    +0.000 C 
ATOM     11  C   UNL     1       5.003  -3.383   3.819  0.00  0.00    +0.000 C 
ATOM     12  C   UNL     1       4.188  -4.395   4.621  0.00  0.00    +0.000 C 
ATOM     13  C   UNL     1       3.721  -5.551   3.744  0.00  0.00    +0.000 C 
ATOM     14  C   UNL     1       2.961  -5.052   2.519  0.00  0.00    +0.000 C 
ATOM     15  C   UNL     1       3.769  -4.027   1.726  0.00  0.00    +0.000 C 
ENDBRANCH   2  10
BRANCH   1  16
ATOM     16  C   UNL     1       2.997  -0.900   0.689  0.00  0.00    +0.000 C 
BRANCH  16  18
ATOM     17  C   UNL     1       1.078  -1.378  -0.875  0.00  0.00    +0.000 C 
ATOM     18  C   UNL     1       2.590  -1.344  -0.720  0.00  0.00    +0.000 C 
ENDBRANCH  16  18
ENDBRANCH   1  16
TORSDOF 4
