REMARK  Name = *****
REMARK  3 active torsions:
REMARK  status: ('A' for Active; 'I' for Inactive)
REMARK    1  A    between atoms: C_4  and  C_7
REMARK    2  A    between atoms: C_7  and  O_9
REMARK    3  A    between atoms: O_9  and  C_10
REMARK                            x       y       z     vdW  Elec       q    Type
REMARK                         _______ _______ _______ _____ _____    ______ ____
ROOT
ATOM      1  C   UNL     1       2.202  -1.065  -1.025  0.00  0.00    +0.000 C 
ATOM      2  O   UNL     1       2.845  -0.366  -1.797  0.00  0.00    +0.000 OA
ENDROOT
BRANCH   1   6
ATOM      3  C   UNL     1      -1.467   0.826   0.378  0.00  0.00    +0.000 C 
ATOM      4  C   UNL     1      -1.366  -0.694   0.445  0.00  0.00    +0.000 C 
ATOM      5  C   UNL     1      -0.234  -1.225  -0.431  0.00  0.00    +0.000 C 
ATOM      6  C   UNL     1       1.108  -0.564  -0.093  0.00  0.00    +0.000 C 
ATOM      7  C   UNL     1       0.993   0.966  -0.162  0.00  0.00    +0.000 C 
ATOM      8  C   UNL     1      -0.138   1.490   0.719  0.00  0.00    +0.000 C 
ENDBRANCH   1   6
BRANCH   1   9
ATOM      9  O   UNL     1       2.372  -2.436  -0.821  0.00  0.00    +0.000 OA
BRANCH   9  10
ATOM     10  C   UNL     1       3.325  -3.101  -1.608  0.00  0.00    +0.000 A 
ATOM     11  C   UNL     1       3.310  -3.029  -3.003  0.00  0.00    +0.000 A 
ATOM     12  C   UNL     1       4.248  -3.759  -3.733  0.00  0.00    +0.000 A 
ATOM     13  C   UNL     1       5.168  -4.561  -3.062  0.00  0.00    +0.000 A 
ATOM     14  C   UNL     1       5.168  -4.651  -1.673  0.00  0.00    +0.000 A 
ATOM     15  C   UNL     1       4.234  -3.921  -0.938  0.00  0.00    +0.000 A 
ATOM     16  F   UNL     1       6.064  -5.265  -3.766  0.00  0.00    +0.000 F 
ENDBRANCH   9  10
ENDBRANCH   1   9
TORSDOF 3
