REMARK  Name = *****
REMARK  3 active torsions:
REMARK  status: ('A' for Active; 'I' for Inactive)
REMARK    1  A    between atoms: C_1  and  C_2
REMARK    2  A    between atoms: C_5  and  C_8
REMARK    3  A    between atoms: C_9  and  C_10
REMARK                            x       y       z     vdW  Elec       q    Type
REMARK                         _______ _______ _______ _____ _____    ______ ____
ROOT
ATOM      1  C   UNL     1      -3.282   0.193  -0.065  0.00  0.00    +0.000 C 
ATOM      2  C   UNL     1      -4.015   1.321  -0.078  0.00  0.00    +0.000 C 
ATOM      3 BR   UNL     1      -3.318   3.056  -0.062  0.00  0.00    +0.000 Br
ENDROOT
BRANCH   1   8
ATOM      4  C   UNL     1       2.488  -0.007   0.025  0.00  0.00    +0.000 C 
ATOM      5  C   UNL     1       0.988   0.042   0.013  0.00  0.00    +0.000 A 
ATOM      6  C   UNL     1       0.260   0.106   1.207  0.00  0.00    +0.000 A 
ATOM      7  C   UNL     1      -1.136   0.155   1.182  0.00  0.00    +0.000 A 
ATOM      8  C   UNL     1      -1.820   0.141  -0.037  0.00  0.00    +0.000 A 
ATOM      9  C   UNL     1      -1.097   0.080  -1.231  0.00  0.00    +0.000 A 
ATOM     10  C   UNL     1       0.299   0.030  -1.206  0.00  0.00    +0.000 A 
ENDBRANCH   1   8
BRANCH   2  11
ATOM     11  C   UNL     1      -5.481   1.206  -0.109  0.00  0.00    +0.000 A 
ATOM     12  C   UNL     1      -6.214   1.173   1.084  0.00  0.00    +0.000 A 
ATOM     13  C   UNL     1      -7.604   1.050   1.053  0.00  0.00    +0.000 A 
ATOM     14  C   UNL     1      -8.269   0.957  -0.169  0.00  0.00    +0.000 A 
ATOM     15  C   UNL     1      -7.547   0.987  -1.361  0.00  0.00    +0.000 A 
ATOM     16  C   UNL     1      -6.157   1.110  -1.333  0.00  0.00    +0.000 A 
ENDBRANCH   2  11
TORSDOF 2
