REMARK  Name = *****
REMARK  4 active torsions:
REMARK  status: ('A' for Active; 'I' for Inactive)
REMARK    1  A    between atoms: C_1  and  C_2
REMARK    2  A    between atoms: C_7  and  O_8
REMARK    3  A    between atoms: O_8  and  C_9
REMARK    4  A    between atoms: C_9  and  C_11
REMARK                            x       y       z     vdW  Elec       q    Type
REMARK                         _______ _______ _______ _____ _____    ______ ____
ROOT
ATOM      1  O   UNL     1       0.346  -1.230  -1.666  0.00  0.00    +0.000 OA
ENDROOT
BRANCH   1   8
ATOM      2  C   UNL     1       1.216  -0.040   1.797  0.00  0.00    +0.000 C 
ATOM      3  C   UNL     1       0.993   0.016   0.283  0.00  0.00    +0.000 C 
ATOM      4  C   UNL     1       0.289   1.319  -0.134  0.00  0.00    +0.000 C 
ATOM      5  C   UNL     1      -1.191   1.346   0.243  0.00  0.00    +0.000 C 
ATOM      6  C   UNL     1      -1.931   0.120  -0.281  0.00  0.00    +0.000 C 
ATOM      7  C   UNL     1      -1.259  -1.181   0.158  0.00  0.00    +0.000 C 
ATOM      8  C   UNL     1       0.226  -1.223  -0.225  0.00  0.00    +0.000 C 
ENDBRANCH   1   8
BRANCH   1   9
ATOM      9  C   UNL     1       0.226  -2.434  -2.277  0.00  0.00    +0.000 C 
ATOM     10  O   UNL     1       0.039  -3.505  -1.722  0.00  0.00    +0.000 OA
BRANCH   9  11
ATOM     11  C   UNL     1       0.346  -2.282  -3.753  0.00  0.00    +0.000 A 
ATOM     12  C   UNL     1       0.232  -3.431  -4.547  0.00  0.00    +0.000 A 
ATOM     13  C   UNL     1       0.335  -3.340  -5.937  0.00  0.00    +0.000 A 
ATOM     14  C   UNL     1       0.551  -2.102  -6.540  0.00  0.00    +0.000 A 
ATOM     15  C   UNL     1       0.666  -0.954  -5.757  0.00  0.00    +0.000 A 
ATOM     16  C   UNL     1       0.563  -1.041  -4.366  0.00  0.00    +0.000 A 
ENDBRANCH   9  11
ENDBRANCH   1   9
TORSDOF 3
