REMARK  Name = *****
REMARK  3 active torsions:
REMARK  status: ('A' for Active; 'I' for Inactive)
REMARK    1  A    between atoms: C_1  and  C_2
REMARK    2  A    between atoms: C_2  and  C_3
REMARK    3  A    between atoms: C_2  and  N_9
REMARK                            x       y       z     vdW  Elec       q    Type
REMARK                         _______ _______ _______ _____ _____    ______ ____
ROOT
ATOM      1  N   UNL     1       4.453  -1.081  -0.550  0.00  0.00    +0.000 N 
ATOM      2  C   UNL     1       4.915  -2.340  -0.336  0.00  0.00    +0.000 C 
ATOM      3  C   UNL     1       6.026  -2.834  -1.024  0.00  0.00    +0.000 C 
ATOM      4  C   UNL     1       6.517  -4.132  -0.806  0.00  0.00    +0.000 C 
ATOM      5  C   UNL     1       7.627  -4.596  -1.511  0.00  0.00    +0.000 C 
ATOM      6  C   UNL     1       8.257  -3.772  -2.439  0.00  0.00    +0.000 C 
ATOM      7  C   UNL     1       7.780  -2.480  -2.664  0.00  0.00    +0.000 C 
ATOM      8  C   UNL     1       6.664  -2.000  -1.961  0.00  0.00    +0.000 C 
ATOM      9  C   UNL     1       6.168  -0.712  -2.168  0.00  0.00    +0.000 C 
ATOM     10  C   UNL     1       5.062  -0.275  -1.451  0.00  0.00    +0.000 C 
ENDROOT
BRANCH   1  12
ATOM     11  C   UNL     1       2.007  -1.189  -0.442  0.00  0.00    +0.000 C 
ATOM     12  C   UNL     1       3.253  -0.573   0.197  0.00  0.00    +0.000 C 
BRANCH  12  13
ATOM     13  C   UNL     1       3.432  -0.761   1.695  0.00  0.00    +0.000 A 
ATOM     14  C   UNL     1       2.619  -1.614   2.459  0.00  0.00    +0.000 A 
ATOM     15  C   UNL     1       2.838  -1.769   3.830  0.00  0.00    +0.000 A 
ATOM     16  C   UNL     1       3.867  -1.074   4.458  0.00  0.00    +0.000 A 
ATOM     17  C   UNL     1       4.679  -0.219   3.720  0.00  0.00    +0.000 A 
ATOM     18  C   UNL     1       4.464  -0.061   2.350  0.00  0.00    +0.000 A 
ENDBRANCH  12  13
ENDBRANCH   1  12
TORSDOF 2
