REMARK  Name = *****
REMARK  5 active torsions:
REMARK  status: ('A' for Active; 'I' for Inactive)
REMARK    1  A    between atoms: C_1  and  C_2
REMARK    2  A    between atoms: C_2  and  C_3
REMARK    3  A    between atoms: C_2  and  N_9
REMARK    4  A    between atoms: N_9  and  C_10
REMARK    5  A    between atoms: C_10  and  C_11
REMARK                            x       y       z     vdW  Elec       q    Type
REMARK                         _______ _______ _______ _____ _____    ______ ____
ROOT
ATOM      1  C   UNL     1       0.583   0.208   0.340  0.00  0.00    +0.000 C 
ATOM      2  C   UNL     1       2.091   0.011   0.176  0.00  0.00    +0.000 C 
ENDROOT
BRANCH   2   3
ATOM      3  C   UNL     1       2.818   1.331   0.375  0.00  0.00    +0.000 A 
ATOM      4  C   UNL     1       3.065   1.836   1.660  0.00  0.00    +0.000 A 
ATOM      5  C   UNL     1       3.724   3.054   1.832  0.00  0.00    +0.000 A 
ATOM      6  C   UNL     1       4.140   3.784   0.720  0.00  0.00    +0.000 A 
ATOM      7  C   UNL     1       3.896   3.298  -0.563  0.00  0.00    +0.000 A 
ATOM      8  C   UNL     1       3.237   2.079  -0.736  0.00  0.00    +0.000 A 
ENDBRANCH   2   3
BRANCH   2   9
ATOM      9  N   UNL     1       2.507  -1.033   1.133  0.00  0.00    +0.000 NA
BRANCH   9  10
ATOM     10  C   UNL     1       3.674  -1.531   0.893  0.00  0.00    +0.000 C 
BRANCH  10  11
ATOM     11  C   UNL     1       4.264  -2.582   1.744  0.00  0.00    +0.000 A 
ATOM     12  C   UNL     1       3.567  -3.088   2.844  0.00  0.00    +0.000 A 
ATOM     13  C   UNL     1       4.145  -4.083   3.634  0.00  0.00    +0.000 A 
ATOM     14  C   UNL     1       5.416  -4.569   3.325  0.00  0.00    +0.000 A 
ATOM     15  C   UNL     1       6.112  -4.062   2.226  0.00  0.00    +0.000 A 
ATOM     16  C   UNL     1       5.537  -3.067   1.432  0.00  0.00    +0.000 A 
ENDBRANCH  10  11
ENDBRANCH   9  10
ENDBRANCH   2   9
TORSDOF 4
