REMARK  Name = *****
REMARK  5 active torsions:
REMARK  status: ('A' for Active; 'I' for Inactive)
REMARK    1  A    between atoms: C_1  and  C_2
REMARK    2  A    between atoms: C_5  and  C_8
REMARK    3  A    between atoms: C_9  and  C_10
REMARK    4  A    between atoms: C_13  and  N_16
REMARK    5  A    between atoms: C_17  and  C_19
REMARK                            x       y       z     vdW  Elec       q    Type
REMARK                         _______ _______ _______ _____ _____    ______ ____
ROOT
ATOM      1  C   UNL     1      -5.516   0.987  -0.016  0.00  0.00    +0.000 A 
ATOM      2  C   UNL     1      -6.209   0.013   0.711  0.00  0.00    +0.000 A 
ATOM      3  C   UNL     1      -7.610  -0.019   0.717  0.00  0.00    +0.000 A 
ATOM      4  C   UNL     1      -8.344   0.928   0.003  0.00  0.00    +0.000 A 
ATOM      5  C   UNL     1      -7.653   1.914  -0.710  0.00  0.00    +0.000 A 
ATOM      6  C   UNL     1      -6.253   1.947  -0.715  0.00  0.00    +0.000 A 
ENDROOT
BRANCH   4   7
ATOM      7  N   UNL     1      -9.753   0.966  -0.045  0.00  0.00    +0.000 N 
ATOM      8  C   UNL     1     -10.640   0.099   0.567  0.00  0.00    +0.000 C 
ATOM      9  O   UNL     1     -10.360  -0.876   1.256  0.00  0.00    +0.000 OA
ATOM     10  C   UNL     1     -12.084   0.447   0.295  0.00  0.00    +0.000 C 
ATOM     11  H   UNL     1     -10.152   1.693  -0.576  0.00  0.00    +0.000 HD
ENDBRANCH   4   7
BRANCH   1  13
ATOM     12  C   UNL     1      -3.239  -0.001  -0.035  0.00  0.00    +0.000 C 
ATOM     13  C   UNL     1      -4.049   1.071  -0.022  0.00  0.00    +0.000 C 
BRANCH  12  18
ATOM     14  C   UNL     1       2.550   0.132  -0.107  0.00  0.00    +0.000 C 
ATOM     15  C   UNL     1       1.050   0.131  -0.104  0.00  0.00    +0.000 A 
ATOM     16  C   UNL     1       0.336   1.069   0.647  0.00  0.00    +0.000 A 
ATOM     17  C   UNL     1      -1.063   1.043   0.670  0.00  0.00    +0.000 A 
ATOM     18  C   UNL     1      -1.772   0.081  -0.059  0.00  0.00    +0.000 A 
ATOM     19  C   UNL     1      -1.052  -0.875  -0.786  0.00  0.00    +0.000 A 
ATOM     20  C   UNL     1       0.346  -0.850  -0.810  0.00  0.00    +0.000 A 
ENDBRANCH  12  18
ENDBRANCH   1  13
TORSDOF 3
