REMARK  Name = *****
REMARK  4 active torsions:
REMARK  status: ('A' for Active; 'I' for Inactive)
REMARK    1  A    between atoms: C_1  and  C_2
REMARK    2  A    between atoms: C_7  and  N_8
REMARK    3  A    between atoms: C_9  and  C_10
REMARK    4  A    between atoms: C_15  and  C_16
REMARK                            x       y       z     vdW  Elec       q    Type
REMARK                         _______ _______ _______ _____ _____    ______ ____
ROOT
ATOM      1  C   UNL     1       3.070  -3.771   0.104  0.00  0.00    +0.000 A 
ATOM      2  C   UNL     1       2.377  -4.882   0.608  0.00  0.00    +0.000 A 
ATOM      3  C   UNL     1       3.033  -6.096   0.809  0.00  0.00    +0.000 A 
ATOM      4  C   UNL     1       4.387  -6.210   0.509  0.00  0.00    +0.000 A 
ATOM      5  C   UNL     1       5.084  -5.110   0.008  0.00  0.00    +0.000 A 
ATOM      6  C   UNL     1       4.439  -3.875  -0.201  0.00  0.00    +0.000 A 
ENDROOT
BRANCH   6   7
ATOM      7  C   UNL     1       5.223  -2.709  -0.738  0.00  0.00    +0.000 C 
ATOM      8  F   UNL     1       5.215  -1.640   0.105  0.00  0.00    +0.000 F 
ATOM      9  F   UNL     1       6.538  -2.990  -0.960  0.00  0.00    +0.000 F 
ATOM     10  F   UNL     1       4.740  -2.256  -1.927  0.00  0.00    +0.000 F 
ENDBRANCH   6   7
BRANCH   1  12
ATOM     11  N   UNL     1       1.071  -2.396   0.226  0.00  0.00    +0.000 NA
ATOM     12  C   UNL     1       2.324  -2.503  -0.092  0.00  0.00    +0.000 C 
BRANCH  11  19
ATOM     13  C   UNL     1       1.097  -0.383   2.326  0.00  0.00    +0.000 C 
ATOM     14  C   UNL     1       0.470  -0.143   0.982  0.00  0.00    +0.000 A 
ATOM     15  C   UNL     1      -0.121   1.098   0.698  0.00  0.00    +0.000 A 
ATOM     16  C   UNL     1      -0.711   1.336  -0.545  0.00  0.00    +0.000 A 
ATOM     17  C   UNL     1      -0.717   0.338  -1.515  0.00  0.00    +0.000 A 
ATOM     18  C   UNL     1      -0.124  -0.895  -1.245  0.00  0.00    +0.000 A 
ATOM     19  C   UNL     1       0.486  -1.141  -0.009  0.00  0.00    +0.000 A 
ENDBRANCH  11  19
ENDBRANCH   1  12
TORSDOF 3
