REMARK  Name = *****
REMARK  5 active torsions:
REMARK  status: ('A' for Active; 'I' for Inactive)
REMARK    1  A    between atoms: C_1  and  C_2
REMARK    2  A    between atoms: C_5  and  C_8
REMARK    3  A    between atoms: C_8  and  C_17
REMARK    4  A    between atoms: N_9  and  C_10
REMARK    5  A    between atoms: C_13  and  C_16
REMARK                            x       y       z     vdW  Elec       q    Type
REMARK                         _______ _______ _______ _____ _____    ______ ____
ROOT
ATOM      1  C   UNL     1      -3.265  -0.047  -0.089  0.00  0.00    +0.000 C 
ATOM      2  N   UNL     1      -3.913  -1.146   0.164  0.00  0.00    +0.000 NA
ATOM      3  C   UNL     1      -4.042   1.247  -0.008  0.00  0.00    +0.000 C 
ENDROOT
BRANCH   1   8
ATOM      4  C   UNL     1       2.318   0.509  -1.480  0.00  0.00    +0.000 C 
ATOM      5  C   UNL     1       0.875   0.340  -1.104  0.00  0.00    +0.000 A 
ATOM      6  C   UNL     1       0.012  -0.392  -1.931  0.00  0.00    +0.000 A 
ATOM      7  C   UNL     1      -1.338  -0.527  -1.601  0.00  0.00    +0.000 A 
ATOM      8  C   UNL     1      -1.829   0.073  -0.441  0.00  0.00    +0.000 A 
ATOM      9  C   UNL     1      -0.984   0.823   0.381  0.00  0.00    +0.000 A 
ATOM     10  C   UNL     1       0.365   0.957   0.046  0.00  0.00    +0.000 A 
ENDBRANCH   1   8
BRANCH   2  11
ATOM     11  C   UNL     1      -3.265  -2.389   0.169  0.00  0.00    +0.000 A 
ATOM     12  C   UNL     1      -2.383  -2.748   1.191  0.00  0.00    +0.000 A 
ATOM     13  C   UNL     1      -1.765  -4.002   1.189  0.00  0.00    +0.000 A 
ATOM     14  C   UNL     1      -2.029  -4.919   0.165  0.00  0.00    +0.000 A 
ATOM     15  C   UNL     1      -2.946  -4.575  -0.835  0.00  0.00    +0.000 A 
ATOM     16  C   UNL     1      -3.559  -3.320  -0.829  0.00  0.00    +0.000 A 
ATOM     17  C   UNL     1      -1.397  -6.279   0.183  0.00  0.00    +0.000 C 
ENDBRANCH   2  11
TORSDOF 2
