REMARK  Name = *****
REMARK  4 active torsions:
REMARK  status: ('A' for Active; 'I' for Inactive)
REMARK    1  A    between atoms: C_4  and  C_7
REMARK    2  A    between atoms: C_7  and  C_8
REMARK    3  A    between atoms: C_8  and  C_9
REMARK    4  A    between atoms: C_9  and  C_11
REMARK                            x       y       z     vdW  Elec       q    Type
REMARK                         _______ _______ _______ _____ _____    ______ ____
ROOT
ATOM      1  C   UNL     1      -4.184   0.324  -1.652  0.00  0.00    +0.000 C 
ATOM      2  O   UNL     1      -4.196   1.322  -2.369  0.00  0.00    +0.000 OA
ENDROOT
BRANCH   1   3
ATOM      3  C   UNL     1      -5.433  -0.050  -0.959  0.00  0.00    +0.000 A 
ATOM      4  C   UNL     1      -5.542  -0.129   0.435  0.00  0.00    +0.000 A 
ATOM      5  C   UNL     1      -6.759  -0.496   1.013  0.00  0.00    +0.000 A 
ATOM      6  C   UNL     1      -7.853  -0.770   0.199  0.00  0.00    +0.000 A 
ATOM      7  C   UNL     1      -7.763  -0.676  -1.185  0.00  0.00    +0.000 A 
ATOM      8  C   UNL     1      -6.551  -0.309  -1.769  0.00  0.00    +0.000 A 
ATOM      9  F   UNL     1      -9.018  -1.121   0.758  0.00  0.00    +0.000 F 
ATOM     10 CL   UNL     1      -4.241   0.257   1.498  0.00  0.00    +0.000 Cl
ENDBRANCH   1   3
BRANCH   1  11
ATOM     11  C   UNL     1      -3.027  -0.657  -1.599  0.00  0.00    +0.000 C 
BRANCH  11  12
ATOM     12  C   UNL     1      -1.672   0.019  -1.809  0.00  0.00    +0.000 C 
BRANCH  12  16
ATOM     13  C   UNL     1      -0.353   2.147   1.702  0.00  0.00    +0.000 A 
ATOM     14  C   UNL     1      -1.050   2.819   0.700  0.00  0.00    +0.000 A 
ATOM     15  C   UNL     1      -1.471   2.133  -0.440  0.00  0.00    +0.000 A 
ATOM     16  C   UNL     1      -1.196   0.767  -0.588  0.00  0.00    +0.000 A 
ATOM     17  C   UNL     1      -0.496   0.100   0.427  0.00  0.00    +0.000 A 
ATOM     18  C   UNL     1      -0.076   0.789   1.565  0.00  0.00    +0.000 A 
ENDBRANCH  12  16
ENDBRANCH  11  12
ENDBRANCH   1  11
TORSDOF 4
