REMARK  Name = *****
REMARK  4 active torsions:
REMARK  status: ('A' for Active; 'I' for Inactive)
REMARK    1  A    between atoms: C_1  and  C_2
REMARK    2  A    between atoms: C_2  and  C_4
REMARK    3  A    between atoms: C_7  and  C_10
REMARK    4  A    between atoms: C_12  and  C_13
REMARK                            x       y       z     vdW  Elec       q    Type
REMARK                         _______ _______ _______ _____ _____    ______ ____
ROOT
ATOM      1  C   UNL     1       3.323   0.805   0.814  0.00  0.00    +0.000 A 
ATOM      2  C   UNL     1       2.577   1.694   1.590  0.00  0.00    +0.000 A 
ATOM      3  C   UNL     1       3.203   2.439   2.595  0.00  0.00    +0.000 A 
ATOM      4  C   UNL     1       4.578   2.317   2.862  0.00  0.00    +0.000 A 
ATOM      5  C   UNL     1       5.310   1.420   2.071  0.00  0.00    +0.000 A 
ATOM      6  C   UNL     1       4.694   0.671   1.061  0.00  0.00    +0.000 A 
ENDROOT
BRANCH   1   8
ATOM      7  C   UNL     1       1.230   0.140  -0.545  0.00  0.00    +0.000 C 
ATOM      8  C   UNL     1       2.706  -0.004  -0.279  0.00  0.00    +0.000 C 
ATOM      9  O   UNL     1       3.402  -0.767  -0.945  0.00  0.00    +0.000 OA
ENDBRANCH   1   8
BRANCH   4  10
ATOM     10  C   UNL     1       5.235   3.160   3.927  0.00  0.00    +0.000 C 
ATOM     11  C   UNL     1       5.989   2.550   5.077  0.00  0.00    +0.000 C 
ATOM     12  C   UNL     1       4.634   3.155   5.329  0.00  0.00    +0.000 C 
BRANCH  12  13
ATOM     13  C   UNL     1       4.469   4.465   6.058  0.00  0.00    +0.000 A 
ATOM     14  C   UNL     1       3.830   5.561   5.450  0.00  0.00    +0.000 A 
ATOM     15  C   UNL     1       3.634   6.764   6.132  0.00  0.00    +0.000 A 
ATOM     16  C   UNL     1       4.069   6.894   7.446  0.00  0.00    +0.000 A 
ATOM     17  C   UNL     1       4.700   5.824   8.075  0.00  0.00    +0.000 A 
ATOM     18  C   UNL     1       4.895   4.623   7.386  0.00  0.00    +0.000 A 
ENDBRANCH  12  13
ENDBRANCH   4  10
TORSDOF 3
