REMARK  Name = *****
REMARK  4 active torsions:
REMARK  status: ('A' for Active; 'I' for Inactive)
REMARK    1  A    between atoms: C_1  and  C_2
REMARK    2  A    between atoms: C_5  and  C_7
REMARK    3  A    between atoms: C_7  and  C_8
REMARK    4  A    between atoms: C_9  and  C_10
REMARK                            x       y       z     vdW  Elec       q    Type
REMARK                         _______ _______ _______ _____ _____    ______ ____
ROOT
ATOM      1  C   UNL     1      -3.872  -0.674   0.081  0.00  0.00    +0.000 C 
ATOM      2  C   UNL     1      -5.142  -0.301   0.308  0.00  0.00    +0.000 C 
ENDROOT
BRANCH   2   3
ATOM      3  C   UNL     1      -6.292  -1.212   0.233  0.00  0.00    +0.000 A 
ATOM      4  C   UNL     1      -7.348  -1.049   1.140  0.00  0.00    +0.000 A 
ATOM      5  C   UNL     1      -8.471  -1.877   1.080  0.00  0.00    +0.000 A 
ATOM      6  C   UNL     1      -8.556  -2.869   0.106  0.00  0.00    +0.000 A 
ATOM      7  C   UNL     1      -7.520  -3.031  -0.812  0.00  0.00    +0.000 A 
ATOM      8  C   UNL     1      -6.396  -2.203  -0.752  0.00  0.00    +0.000 A 
ENDBRANCH   2   3
BRANCH   1   9
ATOM      9  C   UNL     1      -2.693   0.258   0.160  0.00  0.00    +0.000 C 
BRANCH   9  14
ATOM     10  C   UNL     1       0.924  -0.162  -3.754  0.00  0.00    +0.000 C 
ATOM     11  C   UNL     1      -0.271   0.205  -2.944  0.00  0.00    +0.000 A 
ATOM     12  C   UNL     1      -1.323   1.027  -3.289  0.00  0.00    +0.000 A 
ATOM     13  C   UNL     1      -2.285   1.137  -2.245  0.00  0.00    +0.000 A 
ATOM     14  C   UNL     1      -1.939   0.396  -1.132  0.00  0.00    +0.000 A 
ATOM     15  S   UNL     1      -0.455  -0.426  -1.365  0.00  0.00    +0.000 S 
ENDBRANCH   9  14
ENDBRANCH   1   9
TORSDOF 3
