REMARK  Name = *****
REMARK  6 active torsions:
REMARK  status: ('A' for Active; 'I' for Inactive)
REMARK    1  A    between atoms: C_1  and  C_2
REMARK    2  A    between atoms: C_2  and  C_3
REMARK    3  A    between atoms: C_2  and  S_17
REMARK    4  A    between atoms: C_8  and  O_9
REMARK    5  A    between atoms: O_9  and  C_10
REMARK    6  A    between atoms: C_10  and  C_11
REMARK                            x       y       z     vdW  Elec       q    Type
REMARK                         _______ _______ _______ _____ _____    ______ ____
ROOT
ATOM      1  C   UNL     1       2.993   1.377  -0.092  0.00  0.00    +0.000 A 
ATOM      2  C   UNL     1       2.114   2.415   0.279  0.00  0.00    +0.000 A 
ATOM      3  C   UNL     1       2.140   3.649  -0.371  0.00  0.00    +0.000 A 
ATOM      4  C   UNL     1       3.049   3.873  -1.399  0.00  0.00    +0.000 A 
ATOM      5  C   UNL     1       3.926   2.861  -1.786  0.00  0.00    +0.000 A 
ATOM      6  C   UNL     1       3.889   1.612  -1.153  0.00  0.00    +0.000 A 
ENDROOT
BRANCH   1   8
ATOM      7  C   UNL     1       1.573  -0.591   0.663  0.00  0.00    +0.000 C 
ATOM      8  C   UNL     1       2.968   0.038   0.629  0.00  0.00    +0.000 C 
BRANCH   8   9
ATOM      9  S   UNL     1       3.623   0.179   2.334  0.00  0.00    +0.000 S 
ATOM     10  H   UNL     1       2.820   1.001   3.061  0.00  0.00    +0.000 HD
ENDBRANCH   8   9
ENDBRANCH   1   8
BRANCH   6  11
ATOM     11  O   UNL     1       4.747   0.596  -1.485  0.00  0.00    +0.000 OA
BRANCH  11  12
ATOM     12  C   UNL     1       4.996   0.444  -2.883  0.00  0.00    +0.000 C 
BRANCH  12  13
ATOM     13  C   UNL     1       5.605  -0.919  -3.101  0.00  0.00    +0.000 A 
ATOM     14  C   UNL     1       6.915  -1.180  -2.672  0.00  0.00    +0.000 A 
ATOM     15  C   UNL     1       7.486  -2.439  -2.863  0.00  0.00    +0.000 A 
ATOM     16  C   UNL     1       6.753  -3.451  -3.480  0.00  0.00    +0.000 A 
ATOM     17  C   UNL     1       5.447  -3.206  -3.901  0.00  0.00    +0.000 A 
ATOM     18  C   UNL     1       4.874  -1.947  -3.711  0.00  0.00    +0.000 A 
ENDBRANCH  12  13
ENDBRANCH  11  12
ENDBRANCH   6  11
TORSDOF 5
