REMARK  Name = *****
REMARK  3 active torsions:
REMARK  status: ('A' for Active; 'I' for Inactive)
REMARK    1  A    between atoms: C_6  and  S_7
REMARK    2  A    between atoms: S_7  and  N_9
REMARK    3  A    between atoms: N_9  and  C_10
REMARK                            x       y       z     vdW  Elec       q    Type
REMARK                         _______ _______ _______ _____ _____    ______ ____
ROOT
ATOM      1  S   UNL     1       1.767   2.607  -0.413  0.00  0.00    +0.000 S 
ATOM      2  O   UNL     1       1.967   2.996  -1.847  0.00  0.00    +0.000 OA
ENDROOT
BRANCH   1   8
ATOM      3  C   UNL     1       2.646   0.348   0.996  0.00  0.00    +0.000 A 
ATOM      4  C   UNL     1       3.373  -0.834   1.157  0.00  0.00    +0.000 A 
ATOM      5  C   UNL     1       4.158  -1.313   0.109  0.00  0.00    +0.000 A 
ATOM      6  C   UNL     1       4.222  -0.620  -1.097  0.00  0.00    +0.000 A 
ATOM      7  C   UNL     1       3.493   0.562  -1.258  0.00  0.00    +0.000 A 
ATOM      8  C   UNL     1       2.694   1.052  -0.216  0.00  0.00    +0.000 A 
ATOM      9 CL   UNL     1       5.053  -2.768   0.309  0.00  0.00    +0.000 Cl
ENDBRANCH   1   8
BRANCH   1  10
ATOM     10  N   UNL     1       0.285   1.841  -0.287  0.00  0.00    +0.000 N 
ATOM     11  H   UNL     1       0.052   1.149  -0.947  0.00  0.00    +0.000 HD
BRANCH  10  12
ATOM     12  C   UNL     1      -0.646   2.149   0.734  0.00  0.00    +0.000 A 
ATOM     13  C   UNL     1      -0.301   2.758   1.949  0.00  0.00    +0.000 A 
ATOM     14  C   UNL     1      -1.257   2.963   2.950  0.00  0.00    +0.000 A 
ATOM     15  C   UNL     1      -2.569   2.537   2.764  0.00  0.00    +0.000 A 
ATOM     16  C   UNL     1      -2.923   1.895   1.582  0.00  0.00    +0.000 A 
ATOM     17  C   UNL     1      -1.966   1.693   0.583  0.00  0.00    +0.000 A 
ENDBRANCH  10  12
ENDBRANCH   1  10
TORSDOF 3
