REMARK  Name = *****
REMARK  3 active torsions:
REMARK  status: ('A' for Active; 'I' for Inactive)
REMARK    1  A    between atoms: C_4  and  C_7
REMARK    2  A    between atoms: C_7  and  C_16
REMARK    3  A    between atoms: C_8  and  C_9
REMARK                            x       y       z     vdW  Elec       q    Type
REMARK                         _______ _______ _______ _____ _____    ______ ____
ROOT
ATOM      1  C   UNL     1      -2.862   0.359  -0.495  0.00  0.00    +0.000 C 
ATOM      2  C   UNL     1      -3.429   1.525  -0.124  0.00  0.00    +0.000 C 
ENDROOT
BRANCH   2   3
ATOM      3  C   UNL     1      -4.846   1.880  -0.279  0.00  0.00    +0.000 A 
ATOM      4  C   UNL     1      -5.603   2.177   0.861  0.00  0.00    +0.000 A 
ATOM      5  C   UNL     1      -6.948   2.537   0.741  0.00  0.00    +0.000 A 
ATOM      6  C   UNL     1      -7.536   2.608  -0.521  0.00  0.00    +0.000 A 
ATOM      7  C   UNL     1      -6.790   2.326  -1.663  0.00  0.00    +0.000 A 
ATOM      8  C   UNL     1      -5.444   1.966  -1.543  0.00  0.00    +0.000 A 
ATOM      9 CL   UNL     1      -9.191   3.054  -0.668  0.00  0.00    +0.000 Cl
ENDBRANCH   2   3
BRANCH   1  13
ATOM     10  C   UNL     1       1.325  -0.225   0.221  0.00  0.00    +0.000 A 
ATOM     11  C   UNL     1       0.393  -1.105   0.767  0.00  0.00    +0.000 A 
ATOM     12  C   UNL     1      -0.971  -0.914   0.534  0.00  0.00    +0.000 A 
ATOM     13  C   UNL     1      -1.417   0.163  -0.246  0.00  0.00    +0.000 A 
ATOM     14  C   UNL     1      -0.467   1.040  -0.793  0.00  0.00    +0.000 A 
ATOM     15  C   UNL     1       0.896   0.847  -0.559  0.00  0.00    +0.000 A 
ENDBRANCH   1  13
BRANCH   1  16
ATOM     16  C   UNL     1      -3.611  -0.713  -1.077  0.00  0.00    +0.000 C 
ATOM     17  N   UNL     1      -4.212  -1.586  -1.551  0.00  0.00    +0.000 NA
ENDBRANCH   1  16
TORSDOF 3
