REMARK  Name = *****
REMARK  3 active torsions:
REMARK  status: ('A' for Active; 'I' for Inactive)
REMARK    1  A    between atoms: C_3  and  C_11
REMARK    2  A    between atoms: C_5  and  C_7
REMARK    3  A    between atoms: C_12  and  C_13
REMARK                            x       y       z     vdW  Elec       q    Type
REMARK                         _______ _______ _______ _____ _____    ______ ____
ROOT
ATOM      1  C   UNL     1       1.398  -0.179  -0.220  0.00  0.00    +0.000 A 
ATOM      2  C   UNL     1       0.549  -1.288  -0.231  0.00  0.00    +0.000 A 
ATOM      3  C   UNL     1      -0.825  -1.135  -0.015  0.00  0.00    +0.000 A 
ATOM      4  C   UNL     1      -1.342   0.153   0.183  0.00  0.00    +0.000 A 
ATOM      5  C   UNL     1      -0.500   1.278   0.187  0.00  0.00    +0.000 A 
ATOM      6  C   UNL     1       0.877   1.097  -0.006  0.00  0.00    +0.000 A 
ENDROOT
BRANCH   5   7
ATOM      7  C   UNL     1      -1.060   2.656   0.434  0.00  0.00    +0.000 C 
ATOM      8  F   UNL     1      -2.374   2.772   0.092  0.00  0.00    +0.000 F 
ATOM      9  F   UNL     1      -0.981   3.021   1.744  0.00  0.00    +0.000 F 
ATOM     10  F   UNL     1      -0.410   3.629  -0.264  0.00  0.00    +0.000 F 
ENDBRANCH   5   7
BRANCH   3  11
ATOM     11  C   UNL     1      -1.751  -2.275  -0.046  0.00  0.00    +0.000 C 
ATOM     12  C   UNL     1      -1.498  -3.454   0.547  0.00  0.00    +0.000 C 
BRANCH  12  13
ATOM     13  C   UNL     1      -2.361  -4.591   0.554  0.00  0.00    +0.000 A 
ATOM     14  C   UNL     1      -3.582  -4.726  -0.068  0.00  0.00    +0.000 A 
ATOM     15  O   UNL     1      -4.104  -5.959   0.167  0.00  0.00    +0.000 OA
ATOM     16  C   UNL     1      -3.212  -6.622   0.946  0.00  0.00    +0.000 A 
ATOM     17  C   UNL     1      -2.121  -5.826   1.212  0.00  0.00    +0.000 A 
ENDBRANCH  12  13
ENDBRANCH   3  11
TORSDOF 3
