REMARK  Name = *****
REMARK  6 active torsions:
REMARK  status: ('A' for Active; 'I' for Inactive)
REMARK    1  A    between atoms: C_1  and  C_2
REMARK    2  A    between atoms: C_4  and  C_17
REMARK    3  A    between atoms: C_6  and  O_8
REMARK    4  A    between atoms: O_8  and  C_9
REMARK    5  A    between atoms: C_9  and  C_11
REMARK    6  A    between atoms: C_11  and  C_12
REMARK                            x       y       z     vdW  Elec       q    Type
REMARK                         _______ _______ _______ _____ _____    ______ ____
ROOT
ATOM      1  O   UNL     1       3.137  -2.851  -2.535  0.00  0.00    +0.000 OA
ENDROOT
BRANCH   1   7
ATOM      2  C   UNL     1       1.193  -0.160   0.468  0.00  0.00    +0.000 C 
ATOM      3  C   UNL     1       2.674  -0.157   0.080  0.00  0.00    +0.000 C 
ATOM      4  C   UNL     1       3.022   1.032  -0.829  0.00  0.00    +0.000 C 
ATOM      5  C   UNL     1       2.490   0.876  -2.262  0.00  0.00    +0.000 C 
ATOM      6  C   UNL     1       2.943  -0.455  -2.871  0.00  0.00    +0.000 C 
ATOM      7  C   UNL     1       2.553  -1.649  -1.995  0.00  0.00    +0.000 C 
ATOM      8  C   UNL     1       3.094  -1.480  -0.573  0.00  0.00    +0.000 C 
ATOM      9  C   UNL     1       2.945   2.047  -3.133  0.00  0.00    +0.000 C 
ENDBRANCH   1   7
BRANCH   1  10
ATOM     10  C   UNL     1       2.452  -3.449  -3.552  0.00  0.00    +0.000 C 
ATOM     11  O   UNL     1       1.369  -3.076  -3.984  0.00  0.00    +0.000 OA
BRANCH  10  12
ATOM     12  C   UNL     1       3.217  -4.647  -4.065  0.00  0.00    +0.000 C 
BRANCH  12  13
ATOM     13  C   UNL     1       3.613  -4.425  -5.491  0.00  0.00    +0.000 A 
ATOM     14  C   UNL     1       2.909  -4.744  -6.636  0.00  0.00    +0.000 A 
ATOM     15  C   UNL     1       3.607  -4.376  -7.821  0.00  0.00    +0.000 A 
ATOM     16  C   UNL     1       4.822  -3.791  -7.543  0.00  0.00    +0.000 A 
ATOM     17  S   UNL     1       5.115  -3.687  -5.863  0.00  0.00    +0.000 S 
ENDBRANCH  12  13
ENDBRANCH  10  12
ENDBRANCH   1  10
TORSDOF 4
