REMARK  Name = *****
REMARK  4 active torsions:
REMARK  status: ('A' for Active; 'I' for Inactive)
REMARK    1  A    between atoms: C_1  and  C_2
REMARK    2  A    between atoms: N_4  and  C_14
REMARK    3  A    between atoms: C_6  and  C_13
REMARK    4  A    between atoms: C_7  and  C_12
REMARK                            x       y       z     vdW  Elec       q    Type
REMARK                         _______ _______ _______ _____ _____    ______ ____
ROOT
ATOM      1  C   UNL     1       1.266  -0.092   1.865  0.00  0.00    +0.000 C 
ATOM      2  C   UNL     1       2.284   0.155   0.795  0.00  0.00    +0.000 C 
ATOM      3  C   UNL     1       3.554   0.500   1.075  0.00  0.00    +0.000 C 
ATOM      4  N   UNL     1       4.528   0.733   0.120  0.00  0.00    +0.000 N 
ATOM      5  O   UNL     1       4.173   0.767  -1.255  0.00  0.00    +0.000 OA
ATOM      6  C   UNL     1       3.172  -0.248  -1.519  0.00  0.00    +0.000 C 
ATOM      7  C   UNL     1       1.885   0.100  -0.682  0.00  0.00    +0.000 C 
ATOM      8  C   UNL     1       0.783  -0.933  -1.016  0.00  0.00    +0.000 C 
ATOM      9  C   UNL     1       0.459  -0.988  -2.516  0.00  0.00    +0.000 C 
ATOM     10  C   UNL     1       1.688  -1.123  -3.415  0.00  0.00    +0.000 C 
ATOM     11  C   UNL     1       2.841  -0.193  -3.029  0.00  0.00    +0.000 C 
ATOM     12  C   UNL     1       1.350   1.530  -0.997  0.00  0.00    +0.000 C 
ATOM     13  C   UNL     1       3.793  -1.648  -1.236  0.00  0.00    +0.000 C 
ENDROOT
BRANCH   4  14
ATOM     14  C   UNL     1       5.895   1.237   0.329  0.00  0.00    +0.000 C 
ATOM     15  C   UNL     1       6.761   0.269   1.146  0.00  0.00    +0.000 C 
ATOM     16  C   UNL     1       6.691   0.453   2.660  0.00  0.00    +0.000 C 
ATOM     17  C   UNL     1       6.841   1.913   3.070  0.00  0.00    +0.000 C 
ATOM     18  C   UNL     1       5.823   2.804   2.370  0.00  0.00    +0.000 C 
ATOM     19  C   UNL     1       5.908   2.679   0.852  0.00  0.00    +0.000 C 
ENDBRANCH   4  14
TORSDOF 1
