REMARK  Name = *****
REMARK  4 active torsions:
REMARK  status: ('A' for Active; 'I' for Inactive)
REMARK    1  A    between atoms: C_1  and  C_2
REMARK    2  A    between atoms: C_5  and  O_8
REMARK    3  A    between atoms: O_8  and  P_9
REMARK    4  A    between atoms: P_9  and  C_10
REMARK                            x       y       z     vdW  Elec       q    Type
REMARK                         _______ _______ _______ _____ _____    ______ ____
ROOT
ATOM      1  O   UNL     1      -3.152   0.136  -0.093  0.00  0.00    +0.000 OA
ENDROOT
BRANCH   1   6
ATOM      2  C   UNL     1       2.519  -0.056   0.077  0.00  0.00    +0.000 C 
ATOM      3  C   UNL     1       1.021  -0.028  -0.003  0.00  0.00    +0.000 A 
ATOM      4  C   UNL     1       0.326   1.178   0.139  0.00  0.00    +0.000 A 
ATOM      5  C   UNL     1      -1.070   1.197   0.097  0.00  0.00    +0.000 A 
ATOM      6  C   UNL     1      -1.786   0.013  -0.089  0.00  0.00    +0.000 A 
ATOM      7  C   UNL     1      -1.101  -1.198  -0.198  0.00  0.00    +0.000 A 
ATOM      8  C   UNL     1       0.297  -1.217  -0.155  0.00  0.00    +0.000 A 
ENDBRANCH   1   6
BRANCH   1   9
ATOM      9  P   UNL     1      -4.162  -0.809  -0.931  0.00  0.00    +0.000 P 
ATOM     10 CL   UNL     1      -5.448   0.674  -1.686  0.00  0.00    +0.000 Cl
BRANCH   9  11
ATOM     11  C   UNL     1      -5.199  -1.478   0.426  0.00  0.00    +0.000 A 
ATOM     12  C   UNL     1      -6.463  -2.021   0.134  0.00  0.00    +0.000 A 
ATOM     13  C   UNL     1      -7.265  -2.563   1.142  0.00  0.00    +0.000 A 
ATOM     14  C   UNL     1      -6.815  -2.578   2.458  0.00  0.00    +0.000 A 
ATOM     15  C   UNL     1      -5.562  -2.054   2.768  0.00  0.00    +0.000 A 
ATOM     16  C   UNL     1      -4.759  -1.512   1.760  0.00  0.00    +0.000 A 
ENDBRANCH   9  11
ENDBRANCH   1   9
TORSDOF 3
