REMARK  Name = *****
REMARK  4 active torsions:
REMARK  status: ('A' for Active; 'I' for Inactive)
REMARK    1  A    between atoms: C_1  and  C_2
REMARK    2  A    between atoms: C_5  and  N_8
REMARK    3  A    between atoms: C_9  and  C_10
REMARK    4  A    between atoms: C_9  and  C_11
REMARK                            x       y       z     vdW  Elec       q    Type
REMARK                         _______ _______ _______ _____ _____    ______ ____
ROOT
ATOM      1  N   UNL     1      -3.229   0.131   0.330  0.00  0.00    +0.000 NA
ATOM      2  C   UNL     1      -3.911   1.131  -0.150  0.00  0.00    +0.000 C 
ATOM      3  C   UNL     1      -3.288   2.327  -0.847  0.00  0.00    +0.000 C 
ENDROOT
BRANCH   1   8
ATOM      4  C   UNL     1       2.471  -0.016  -0.011  0.00  0.00    +0.000 C 
ATOM      5  C   UNL     1       0.975   0.051   0.060  0.00  0.00    +0.000 A 
ATOM      6  C   UNL     1       0.345   0.728   1.112  0.00  0.00    +0.000 A 
ATOM      7  C   UNL     1      -1.049   0.759   1.197  0.00  0.00    +0.000 A 
ATOM      8  C   UNL     1      -1.833   0.120   0.234  0.00  0.00    +0.000 A 
ATOM      9  C   UNL     1      -1.206  -0.586  -0.794  0.00  0.00    +0.000 A 
ATOM     10  C   UNL     1       0.188  -0.620  -0.884  0.00  0.00    +0.000 A 
ENDBRANCH   1   8
BRANCH   2  11
ATOM     11  C   UNL     1      -5.399   1.107   0.008  0.00  0.00    +0.000 A 
ATOM     12  C   UNL     1      -6.147   2.290   0.085  0.00  0.00    +0.000 A 
ATOM     13  C   UNL     1      -7.535   2.230   0.241  0.00  0.00    +0.000 A 
ATOM     14  C   UNL     1      -8.167   0.994   0.325  0.00  0.00    +0.000 A 
ATOM     15  C   UNL     1      -7.438  -0.187   0.263  0.00  0.00    +0.000 A 
ATOM     16  C   UNL     1      -6.051  -0.132   0.109  0.00  0.00    +0.000 A 
ATOM     17  F   UNL     1      -9.496   0.942   0.475  0.00  0.00    +0.000 F 
ENDBRANCH   2  11
TORSDOF 2
