REMARK  Name = *****
REMARK  5 active torsions:
REMARK  status: ('A' for Active; 'I' for Inactive)
REMARK    1  A    between atoms: C_1  and  C_2
REMARK    2  A    between atoms: C_6  and  C_7
REMARK    3  A    between atoms: C_7  and  O_9
REMARK    4  A    between atoms: O_9  and  C_10
REMARK    5  A    between atoms: C_10  and  C_11
REMARK                            x       y       z     vdW  Elec       q    Type
REMARK                         _______ _______ _______ _____ _____    ______ ____
ROOT
ATOM      1  C   UNL     1       0.498   2.644   0.084  0.00  0.00    +0.000 C 
ATOM      2  O   UNL     1      -0.071   3.410  -0.681  0.00  0.00    +0.000 OA
ENDROOT
BRANCH   1   8
ATOM      3  C   UNL     1       1.749   0.065  -0.852  0.00  0.00    +0.000 C 
ATOM      4  C   UNL     1       0.938   0.127   0.445  0.00  0.00    +0.000 C 
ATOM      5  C   UNL     1      -0.002  -1.075   0.565  0.00  0.00    +0.000 C 
ATOM      6  C   UNL     1      -1.230  -0.696  -0.257  0.00  0.00    +0.000 C 
ATOM      7  C   UNL     1      -1.253   0.833  -0.303  0.00  0.00    +0.000 C 
ATOM      8  C   UNL     1      -0.050   1.301   0.525  0.00  0.00    +0.000 C 
ENDBRANCH   1   8
BRANCH   1   9
ATOM      9  O   UNL     1       1.677   2.895   0.714  0.00  0.00    +0.000 OA
BRANCH   9  10
ATOM     10  C   UNL     1       2.295   4.153   0.418  0.00  0.00    +0.000 C 
BRANCH  10  11
ATOM     11  C   UNL     1       2.128   5.077   1.596  0.00  0.00    +0.000 A 
ATOM     12  C   UNL     1       3.092   5.119   2.613  0.00  0.00    +0.000 A 
ATOM     13  C   UNL     1       2.928   5.972   3.707  0.00  0.00    +0.000 A 
ATOM     14  C   UNL     1       1.797   6.780   3.798  0.00  0.00    +0.000 A 
ATOM     15  C   UNL     1       0.826   6.735   2.800  0.00  0.00    +0.000 A 
ATOM     16  C   UNL     1       0.988   5.885   1.705  0.00  0.00    +0.000 A 
ENDBRANCH  10  11
ENDBRANCH   9  10
ENDBRANCH   1   9
TORSDOF 4
