REMARK  Name = *****
REMARK  2 active torsions:
REMARK  status: ('A' for Active; 'I' for Inactive)
REMARK    1  A    between atoms: C_2  and  C_9
REMARK    2  A    between atoms: C_10  and  C_11
REMARK                            x       y       z     vdW  Elec       q    Type
REMARK                         _______ _______ _______ _____ _____    ______ ____
ROOT
ATOM      1  C   UNL     1       0.026  -3.320  -0.027  0.00  0.00    +0.000 C 
ATOM      2  C   UNL     1       1.114  -4.096   0.111  0.00  0.00    +0.000 C 
ENDROOT
BRANCH   1   4
ATOM      3  C   UNL     1       1.100  -1.109  -0.570  0.00  0.00    +0.000 A 
ATOM      4  C   UNL     1       0.059  -1.850   0.005  0.00  0.00    +0.000 A 
ATOM      5  C   UNL     1      -1.017  -1.162   0.579  0.00  0.00    +0.000 A 
ATOM      6  C   UNL     1      -1.028   0.232   0.597  0.00  0.00    +0.000 A 
ATOM      7  C   UNL     1       0.009   0.966   0.044  0.00  0.00    +0.000 A 
ATOM      8  C   UNL     1       1.066   0.284  -0.539  0.00  0.00    +0.000 A 
ATOM      9  F   UNL     1       2.072   0.976  -1.090  0.00  0.00    +0.000 F 
ATOM     10  F   UNL     1      -2.062   0.873   1.159  0.00  0.00    +0.000 F 
ENDBRANCH   1   4
BRANCH   2  11
ATOM     11  C   UNL     1       1.083  -5.565   0.080  0.00  0.00    +0.000 A 
ATOM     12  C   UNL     1       2.165  -6.253  -0.484  0.00  0.00    +0.000 A 
ATOM     13  C   UNL     1       2.176  -7.647  -0.502  0.00  0.00    +0.000 A 
ATOM     14  C   UNL     1       1.134  -8.382   0.041  0.00  0.00    +0.000 A 
ATOM     15  C   UNL     1       0.071  -7.700   0.614  0.00  0.00    +0.000 A 
ATOM     16  C   UNL     1       0.036  -6.307   0.644  0.00  0.00    +0.000 A 
ATOM     17  F   UNL     1      -0.941  -8.392   1.154  0.00  0.00    +0.000 F 
ATOM     18  F   UNL     1       3.216  -8.287  -1.053  0.00  0.00    +0.000 F 
ENDBRANCH   2  11
TORSDOF 2
