REMARK  Name = *****
REMARK  6 active torsions:
REMARK  status: ('A' for Active; 'I' for Inactive)
REMARK    1  A    between atoms: C_1  and  C_2
REMARK    2  A    between atoms: C_5  and  C_8
REMARK    3  A    between atoms: C_8  and  N_9
REMARK    4  A    between atoms: N_9  and  C_10
REMARK    5  A    between atoms: C_13  and  C_16
REMARK    6  A    between atoms: C_17  and  C_19
REMARK                            x       y       z     vdW  Elec       q    Type
REMARK                         _______ _______ _______ _____ _____    ______ ____
ROOT
ATOM      1  N   UNL     1      -3.896   1.592  -0.204  0.00  0.00    +0.000 N 
ATOM      2  C   UNL     1      -5.273   1.477  -0.020  0.00  0.00    +0.000 C 
ATOM      3  O   UNL     1      -5.802   0.474   0.467  0.00  0.00    +0.000 OA
ATOM      4  C   UNL     1      -6.160   2.589  -0.535  0.00  0.00    +0.000 C 
ENDROOT
BRANCH   1   5
ATOM      5  C   UNL     1      -3.204   2.834  -0.368  0.00  0.00    +0.000 A 
ATOM      6  C   UNL     1      -3.598   3.979   0.337  0.00  0.00    +0.000 A 
ATOM      7  C   UNL     1      -2.905   5.187   0.197  0.00  0.00    +0.000 A 
ATOM      8  C   UNL     1      -1.788   5.272  -0.638  0.00  0.00    +0.000 A 
ATOM      9  C   UNL     1      -1.387   4.134  -1.341  0.00  0.00    +0.000 A 
ATOM     10  C   UNL     1      -2.079   2.926  -1.196  0.00  0.00    +0.000 A 
ATOM     11  C   UNL     1      -1.069   6.574  -0.821  0.00  0.00    +0.000 C 
ENDBRANCH   1   5
BRANCH   1  12
ATOM     12  C   UNL     1      -3.082   0.382  -0.004  0.00  0.00    +0.000 C 
BRANCH  12  17
ATOM     13  C   UNL     1      -1.874  -2.669  -4.834  0.00  0.00    +0.000 C 
ATOM     14  C   UNL     1      -2.182  -1.859  -3.610  0.00  0.00    +0.000 A 
ATOM     15  C   UNL     1      -1.165  -1.497  -2.721  0.00  0.00    +0.000 A 
ATOM     16  C   UNL     1      -1.461  -0.771  -1.565  0.00  0.00    +0.000 A 
ATOM     17  C   UNL     1      -2.780  -0.389  -1.273  0.00  0.00    +0.000 A 
ATOM     18  C   UNL     1      -3.798  -0.787  -2.149  0.00  0.00    +0.000 A 
ATOM     19  C   UNL     1      -3.502  -1.513  -3.306  0.00  0.00    +0.000 A 
ENDBRANCH  12  17
ENDBRANCH   1  12
TORSDOF 3
