REMARK  Name = *****
REMARK  2 active torsions:
REMARK  status: ('A' for Active; 'I' for Inactive)
REMARK    1  A    between atoms: C_3  and  N_8
REMARK    2  A    between atoms: C_9  and  C_10
REMARK                            x       y       z     vdW  Elec       q    Type
REMARK                         _______ _______ _______ _____ _____    ______ ____
ROOT
ATOM      1  N   UNL     1      -1.897   2.472   0.463  0.00  0.00    +0.000 NA
ATOM      2  C   UNL     1      -1.470   3.501  -0.196  0.00  0.00    +0.000 C 
ENDROOT
BRANCH   2   3
ATOM      3  C   UNL     1      -2.120   4.819  -0.069  0.00  0.00    +0.000 A 
ATOM      4  C   UNL     1      -3.233   4.991   0.763  0.00  0.00    +0.000 A 
ATOM      5  C   UNL     1      -3.825   6.247   0.860  0.00  0.00    +0.000 A 
ATOM      6  C   UNL     1      -3.321   7.325   0.144  0.00  0.00    +0.000 A 
ATOM      7  C   UNL     1      -2.216   7.145  -0.679  0.00  0.00    +0.000 A 
ATOM      8  C   UNL     1      -1.606   5.898  -0.794  0.00  0.00    +0.000 A 
ATOM      9  F   UNL     1      -1.721   8.177  -1.375  0.00  0.00    +0.000 F 
ATOM     10  F   UNL     1      -3.898   8.530   0.244  0.00  0.00    +0.000 F 
ATOM     11  F   UNL     1      -4.890   6.408   1.656  0.00  0.00    +0.000 F 
ENDBRANCH   2   3
BRANCH   1  14
ATOM     12  C   UNL     1      -1.008  -0.881  -0.846  0.00  0.00    +0.000 A 
ATOM     13  C   UNL     1      -1.687   0.324  -0.642  0.00  0.00    +0.000 A 
ATOM     14  C   UNL     1      -1.195   1.276   0.258  0.00  0.00    +0.000 A 
ATOM     15  C   UNL     1      -0.030   1.003   0.975  0.00  0.00    +0.000 A 
ATOM     16  C   UNL     1       0.640  -0.197   0.766  0.00  0.00    +0.000 A 
ATOM     17  C   UNL     1       0.165  -1.140  -0.140  0.00  0.00    +0.000 A 
ATOM     18  F   UNL     1       1.764  -0.451   1.449  0.00  0.00    +0.000 F 
ENDBRANCH   1  14
TORSDOF 2
