REMARK  Name = *****
REMARK  3 active torsions:
REMARK  status: ('A' for Active; 'I' for Inactive)
REMARK    1  A    between atoms: C_4  and  S_7
REMARK    2  A    between atoms: S_7  and  C_8
REMARK    3  A    between atoms: C_8  and  N_10
REMARK                            x       y       z     vdW  Elec       q    Type
REMARK                         _______ _______ _______ _____ _____    ______ ____
ROOT
ATOM      1  C   UNL     1       3.446  -2.328   0.023  0.00  0.00    +0.000 C 
ATOM      2  S   UNL     1       4.120  -2.280   1.567  0.00  0.00    +0.000 S 
ENDROOT
BRANCH   1   3
ATOM      3  N   UNL     1       3.222  -3.490  -0.734  0.00  0.00    +0.000 N 
ATOM      4  C   UNL     1       3.593  -4.829  -0.248  0.00  0.00    +0.000 C 
ATOM      5  C   UNL     1       4.826  -5.334  -0.995  0.00  0.00    +0.000 C 
ATOM      6  C   UNL     1       4.595  -5.320  -2.508  0.00  0.00    +0.000 C 
ATOM      7  C   UNL     1       4.087  -3.958  -2.985  0.00  0.00    +0.000 C 
ATOM      8  C   UNL     1       2.879  -3.504  -2.166  0.00  0.00    +0.000 C 
ENDBRANCH   1   3
BRANCH   1   9
ATOM      9  S   UNL     1       3.006  -0.795  -0.739  0.00  0.00    +0.000 S 
BRANCH   9  13
ATOM     10  C   UNL     1      -1.450   0.306  -0.073  0.00  0.00    +0.000 C 
ATOM     11  C   UNL     1      -1.036  -1.131   0.225  0.00  0.00    +0.000 C 
ATOM     12  C   UNL     1       0.328  -1.465  -0.379  0.00  0.00    +0.000 C 
ATOM     13  C   UNL     1       1.402  -0.470   0.082  0.00  0.00    +0.000 C 
ATOM     14  C   UNL     1       0.980   0.972  -0.233  0.00  0.00    +0.000 C 
ATOM     15  C   UNL     1      -0.384   1.300   0.374  0.00  0.00    +0.000 C 
ENDBRANCH   9  13
ENDBRANCH   1   9
TORSDOF 3
