REMARK  Name = *****
REMARK  2 active torsions:
REMARK  status: ('A' for Active; 'I' for Inactive)
REMARK    1  A    between atoms: C_3  and  C_9
REMARK    2  A    between atoms: C_10  and  C_11
REMARK                            x       y       z     vdW  Elec       q    Type
REMARK                         _______ _______ _______ _____ _____    ______ ____
ROOT
ATOM      1  C   UNL     1      -1.083  -1.200   0.787  0.00  0.00    +0.000 A 
ATOM      2  C   UNL     1       0.133  -1.889   0.804  0.00  0.00    +0.000 A 
ATOM      3  C   UNL     1       1.218  -1.454   0.023  0.00  0.00    +0.000 A 
ATOM      4  C   UNL     1       1.057  -0.294  -0.758  0.00  0.00    +0.000 A 
ATOM      5  C   UNL     1      -0.160   0.395  -0.775  0.00  0.00    +0.000 A 
ATOM      6  C   UNL     1      -1.223  -0.064  -0.004  0.00  0.00    +0.000 A 
ATOM      7 CL   UNL     1      -2.721   0.783  -0.022  0.00  0.00    +0.000 Cl
ATOM      8 CL   UNL     1       2.335   0.330  -1.746  0.00  0.00    +0.000 Cl
ENDROOT
BRANCH   3   9
ATOM      9  C   UNL     1       2.497  -2.184   0.087  0.00  0.00    +0.000 C 
ATOM     10  C   UNL     1       2.587  -3.520  -0.027  0.00  0.00    +0.000 C 
BRANCH  10  11
ATOM     11  C   UNL     1       3.853  -4.266   0.013  0.00  0.00    +0.000 A 
ATOM     12  C   UNL     1       4.925  -3.887   0.824  0.00  0.00    +0.000 A 
ATOM     13  C   UNL     1       6.068  -4.671   0.824  0.00  0.00    +0.000 A 
ATOM     14  N   UNL     1       6.211  -5.793   0.090  0.00  0.00    +0.000 NA
ATOM     15  C   UNL     1       5.160  -6.150  -0.677  0.00  0.00    +0.000 A 
ATOM     16  C   UNL     1       3.975  -5.433  -0.743  0.00  0.00    +0.000 A 
ENDBRANCH  10  11
ENDBRANCH   3   9
TORSDOF 2
