REMARK  Name = *****
REMARK  5 active torsions:
REMARK  status: ('A' for Active; 'I' for Inactive)
REMARK    1  A    between atoms: C_1  and  C_2
REMARK    2  A    between atoms: C_5  and  N_8
REMARK    3  A    between atoms: N_10  and  C_11
REMARK    4  A    between atoms: N_10  and  O_18
REMARK    5  A    between atoms: C_14  and  C_17
REMARK                            x       y       z     vdW  Elec       q    Type
REMARK                         _______ _______ _______ _____ _____    ______ ____
ROOT
ATOM      1  N   UNL     1      -3.139  -0.205   0.584  0.00  0.00    +0.000 NA
ATOM      2  C   UNL     1      -3.785   0.924   0.635  0.00  0.00    +0.000 C 
ATOM      3  N   UNL     1      -5.127   1.031   0.925  0.00  0.00    +0.000 N 
ENDROOT
BRANCH   1   8
ATOM      4  C   UNL     1       2.420   0.130  -0.694  0.00  0.00    +0.000 C 
ATOM      5  C   UNL     1       0.958   0.075  -0.363  0.00  0.00    +0.000 A 
ATOM      6  C   UNL     1       0.528   0.194   0.964  0.00  0.00    +0.000 A 
ATOM      7  C   UNL     1      -0.831   0.105   1.277  0.00  0.00    +0.000 A 
ATOM      8  C   UNL     1      -1.776  -0.104   0.271  0.00  0.00    +0.000 A 
ATOM      9  C   UNL     1      -1.346  -0.255  -1.049  0.00  0.00    +0.000 A 
ATOM     10  C   UNL     1       0.012  -0.167  -1.366  0.00  0.00    +0.000 A 
ENDBRANCH   1   8
BRANCH   3  11
ATOM     11  C   UNL     1      -5.902   2.215   1.022  0.00  0.00    +0.000 A 
ATOM     12  C   UNL     1      -5.363   3.503   0.877  0.00  0.00    +0.000 A 
ATOM     13  C   UNL     1      -6.167   4.647   0.983  0.00  0.00    +0.000 A 
ATOM     14  C   UNL     1      -7.538   4.536   1.226  0.00  0.00    +0.000 A 
ATOM     15  C   UNL     1      -8.088   3.264   1.389  0.00  0.00    +0.000 A 
ATOM     16  C   UNL     1      -7.281   2.125   1.283  0.00  0.00    +0.000 A 
ATOM     17  C   UNL     1      -8.389   5.761   1.375  0.00  0.00    +0.000 C 
ENDBRANCH   3  11
BRANCH   3  18
ATOM     18  O   UNL     1      -5.737  -0.220   1.130  0.00  0.00    +0.000 OA
ATOM     19  H   UNL     1      -5.076  -0.923   1.030  0.00  0.00    +0.000 HD
ENDBRANCH   3  18
TORSDOF 3
