REMARK  Name = *****
REMARK  4 active torsions:
REMARK  status: ('A' for Active; 'I' for Inactive)
REMARK    1  A    between atoms: C_1  and  O_2
REMARK    2  A    between atoms: O_2  and  C_3
REMARK    3  A    between atoms: C_6  and  C_9
REMARK    4  A    between atoms: C_10  and  C_11
REMARK                            x       y       z     vdW  Elec       q    Type
REMARK                         _______ _______ _______ _____ _____    ______ ____
ROOT
ATOM      1  C   UNL     1       4.352   4.368  -3.313  0.00  0.00    +0.000 C 
ATOM      2  C   UNL     1       4.681   5.245  -4.065  0.00  0.00    +0.000 C 
ENDROOT
BRANCH   2   3
ATOM      3  C   UNL     1       5.044   6.283  -4.979  0.00  0.00    +0.000 A 
ATOM      4  C   UNL     1       5.113   7.608  -4.539  0.00  0.00    +0.000 A 
ATOM      5  C   UNL     1       5.449   8.627  -5.436  0.00  0.00    +0.000 A 
ATOM      6  C   UNL     1       5.717   8.326  -6.773  0.00  0.00    +0.000 A 
ATOM      7  C   UNL     1       5.651   7.004  -7.214  0.00  0.00    +0.000 A 
ATOM      8  C   UNL     1       5.316   5.993  -6.317  0.00  0.00    +0.000 A 
ATOM      9  F   UNL     1       5.257   4.730  -6.766  0.00  0.00    +0.000 F 
ENDBRANCH   2   3
BRANCH   1  13
ATOM     10  C   UNL     1       3.043   1.237  -0.781  0.00  0.00    +0.000 A 
ATOM     11  C   UNL     1       2.419   2.485  -0.736  0.00  0.00    +0.000 A 
ATOM     12  C   UNL     1       2.861   3.522  -1.566  0.00  0.00    +0.000 A 
ATOM     13  C   UNL     1       3.930   3.317  -2.441  0.00  0.00    +0.000 A 
ATOM     14  C   UNL     1       4.567   2.077  -2.475  0.00  0.00    +0.000 A 
ATOM     15  C   UNL     1       4.126   1.044  -1.644  0.00  0.00    +0.000 A 
BRANCH  10  17
ATOM     16  C   UNL     1       1.465   0.212   0.666  0.00  0.00    +0.000 C 
ATOM     17  O   UNL     1       2.700   0.142  -0.037  0.00  0.00    +0.000 OA
ENDBRANCH  10  17
ENDBRANCH   1  13
TORSDOF 3
