REMARK  Name = *****
REMARK  4 active torsions:
REMARK  status: ('A' for Active; 'I' for Inactive)
REMARK    1  A    between atoms: C_6  and  C_7
REMARK    2  A    between atoms: C_7  and  S_8
REMARK    3  A    between atoms: S_8  and  C_9
REMARK    4  A    between atoms: C_12  and  C_14
REMARK                            x       y       z     vdW  Elec       q    Type
REMARK                         _______ _______ _______ _____ _____    ______ ____
ROOT
ATOM      1  S   UNL     1       4.564   1.892   0.069  0.00  0.00    +0.000 S 
ENDROOT
BRANCH   1   2
ATOM      2  C   UNL     1       6.278   1.631   0.114  0.00  0.00    +0.000 A 
ATOM      3  N   UNL     1       6.868   0.454   0.133  0.00  0.00    +0.000 NA
ATOM      4  N   UNL     1       8.227   0.686   0.165  0.00  0.00    +0.000 NA
ATOM      5  C   UNL     1       8.383   1.997   0.163  0.00  0.00    +0.000 A 
ATOM      6  O   UNL     1       7.179   2.663   0.131  0.00  0.00    +0.000 OA
BRANCH   5   7
ATOM      7  C   UNL     1       9.618   2.820   0.189  0.00  0.00    +0.000 C 
ATOM      8  F   UNL     1      10.752   2.070   0.215  0.00  0.00    +0.000 F 
ATOM      9  F   UNL     1       9.716   3.629  -0.900  0.00  0.00    +0.000 F 
ATOM     10  F   UNL     1       9.668   3.633   1.279  0.00  0.00    +0.000 F 
ENDBRANCH   5   7
ENDBRANCH   1   2
BRANCH   1  11
ATOM     11  C   UNL     1       3.980   0.173   0.049  0.00  0.00    +0.000 C 
BRANCH  11  17
ATOM     12  C   UNL     1       1.717   0.083   1.178  0.00  0.00    +0.000 A 
ATOM     13  C   UNL     1       0.322   0.036   1.127  0.00  0.00    +0.000 A 
ATOM     14  C   UNL     1      -0.326   0.018  -0.106  0.00  0.00    +0.000 A 
ATOM     15  C   UNL     1       0.409   0.049  -1.289  0.00  0.00    +0.000 A 
ATOM     16  C   UNL     1       1.804   0.096  -1.239  0.00  0.00    +0.000 A 
ATOM     17  C   UNL     1       2.472   0.107  -0.005  0.00  0.00    +0.000 A 
ATOM     18 CL   UNL     1      -2.045  -0.039  -0.168  0.00  0.00    +0.000 Cl
ENDBRANCH  11  17
ENDBRANCH   1  11
TORSDOF 4
