REMARK  Name = *****
REMARK  5 active torsions:
REMARK  status: ('A' for Active; 'I' for Inactive)
REMARK    1  A    between atoms: C_4  and  N_7
REMARK    2  A    between atoms: N_7  and  C_8
REMARK    3  A    between atoms: C_8  and  C_10
REMARK    4  A    between atoms: C_10  and  C_11
REMARK    5  A    between atoms: C_11  and  C_12
REMARK                            x       y       z     vdW  Elec       q    Type
REMARK                         _______ _______ _______ _____ _____    ______ ____
ROOT
ATOM      1  C   UNL     1       3.332  -1.972   0.863  0.00  0.00    +0.000 C 
ATOM      2  S   UNL     1       2.560  -3.179   1.728  0.00  0.00    +0.000 S 
ENDROOT
BRANCH   1   3
ATOM      3  N   UNL     1       2.718  -0.825   0.377  0.00  0.00    +0.000 N 
ATOM      4  H   UNL     1       3.305  -0.168  -0.064  0.00  0.00    +0.000 HD
BRANCH   3   8
ATOM      5  C   UNL     1      -1.103   0.836  -0.688  0.00  0.00    +0.000 C 
ATOM      6  C   UNL     1      -0.938  -0.680  -0.734  0.00  0.00    +0.000 C 
ATOM      7  C   UNL     1       0.533  -1.087  -0.740  0.00  0.00    +0.000 C 
ATOM      8  C   UNL     1       1.293  -0.481   0.448  0.00  0.00    +0.000 C 
ATOM      9  C   UNL     1       1.126   1.044   0.478  0.00  0.00    +0.000 C 
ATOM     10  C   UNL     1      -0.346   1.449   0.486  0.00  0.00    +0.000 C 
ENDBRANCH   3   8
ENDBRANCH   1   3
BRANCH   1  11
ATOM     11  C   UNL     1       4.814  -2.016   0.485  0.00  0.00    +0.000 C 
BRANCH  11  12
ATOM     12  C   UNL     1       5.684  -3.102   1.119  0.00  0.00    +0.000 C 
BRANCH  12  13
ATOM     13  C   UNL     1       7.125  -2.971   0.685  0.00  0.00    +0.000 A 
ATOM     14  C   UNL     1       8.024  -2.195   1.430  0.00  0.00    +0.000 A 
ATOM     15  C   UNL     1       9.349  -2.057   1.017  0.00  0.00    +0.000 A 
ATOM     16  C   UNL     1       9.788  -2.689  -0.145  0.00  0.00    +0.000 A 
ATOM     17  C   UNL     1       8.902  -3.459  -0.896  0.00  0.00    +0.000 A 
ATOM     18  C   UNL     1       7.575  -3.599  -0.484  0.00  0.00    +0.000 A 
ENDBRANCH  12  13
ENDBRANCH  11  12
ENDBRANCH   1  11
TORSDOF 5
