REMARK  Name = *****
REMARK  5 active torsions:
REMARK  status: ('A' for Active; 'I' for Inactive)
REMARK    1  A    between atoms: C_1  and  C_2
REMARK    2  A    between atoms: C_2  and  N_3
REMARK    3  A    between atoms: N_3  and  C_4
REMARK    4  A    between atoms: C_8  and  C_10
REMARK    5  A    between atoms: C_11  and  C_13
REMARK                            x       y       z     vdW  Elec       q    Type
REMARK                         _______ _______ _______ _____ _____    ______ ____
ROOT
ATOM      1  N   UNL     1       2.921   0.676   1.352  0.00  0.00    +0.000 N 
ATOM      2  C   UNL     1       4.281   0.745   1.726  0.00  0.00    +0.000 C 
ATOM      3  O   UNL     1       4.665   1.271   2.777  0.00  0.00    +0.000 OA
ENDROOT
BRANCH   1   4
ATOM      4  C   UNL     1       1.933   1.422   2.111  0.00  0.00    +0.000 A 
ATOM      5  C   UNL     1       2.253   2.658   2.692  0.00  0.00    +0.000 A 
ATOM      6  C   UNL     1       1.304   3.397   3.407  0.00  0.00    +0.000 A 
ATOM      7  C   UNL     1       0.006   2.919   3.549  0.00  0.00    +0.000 A 
ATOM      8  C   UNL     1      -0.356   1.704   2.966  0.00  0.00    +0.000 A 
ATOM      9  C   UNL     1       0.612   0.964   2.262  0.00  0.00    +0.000 A 
ATOM     10  C   UNL     1      -1.742   1.158   3.147  0.00  0.00    +0.000 C 
ENDBRANCH   1   4
BRANCH   2  11
ATOM     11  C   UNL     1       5.340   0.133   0.789  0.00  0.00    +0.000 C 
ATOM     12  C   UNL     1       6.714   0.062   1.488  0.00  0.00    +0.000 C 
ATOM     13  C   UNL     1       7.789  -0.513   0.569  0.00  0.00    +0.000 C 
ATOM     14  C   UNL     1       7.895   0.282  -0.728  0.00  0.00    +0.000 C 
ATOM     15  C   UNL     1       6.546   0.389  -1.429  0.00  0.00    +0.000 C 
ATOM     16  C   UNL     1       5.468   0.950  -0.504  0.00  0.00    +0.000 C 
ENDBRANCH   2  11
BRANCH   1  18
ATOM     17  C   UNL     1       1.664   0.432  -0.812  0.00  0.00    +0.000 C 
ATOM     18  C   UNL     1       2.422  -0.256   0.321  0.00  0.00    +0.000 C 
ENDBRANCH   1  18
TORSDOF 3
