REMARK  Name = *****
REMARK  3 active torsions:
REMARK  status: ('A' for Active; 'I' for Inactive)
REMARK    1  A    between atoms: C_3  and  O_8
REMARK    2  A    between atoms: O_8  and  C_9
REMARK    3  A    between atoms: C_9  and  C_10
REMARK                            x       y       z     vdW  Elec       q    Type
REMARK                         _______ _______ _______ _____ _____    ______ ____
ROOT
ATOM      1  O   UNL     1      -1.920   2.404  -0.008  0.00  0.00    +0.000 OA
ENDROOT
BRANCH   1   4
ATOM      2  C   UNL     1      -1.270  -1.167  -0.078  0.00  0.00    +0.000 A 
ATOM      3  C   UNL     1      -1.908   0.076  -0.053  0.00  0.00    +0.000 A 
ATOM      4  C   UNL     1      -1.167   1.263  -0.030  0.00  0.00    +0.000 A 
ATOM      5  C   UNL     1       0.226   1.197  -0.031  0.00  0.00    +0.000 A 
ATOM      6  C   UNL     1       0.853  -0.047  -0.057  0.00  0.00    +0.000 A 
ATOM      7  C   UNL     1       0.120  -1.228  -0.080  0.00  0.00    +0.000 A 
ATOM      8  F   UNL     1       2.191  -0.104  -0.059  0.00  0.00    +0.000 F 
ENDBRANCH   1   4
BRANCH   1   9
ATOM      9  C   UNL     1      -1.218   3.646   0.003  0.00  0.00    +0.000 C 
BRANCH   9  10
ATOM     10  C   UNL     1      -2.227   4.770   0.040  0.00  0.00    +0.000 A 
ATOM     11  C   UNL     1      -3.133   4.873   1.107  0.00  0.00    +0.000 A 
ATOM     12  C   UNL     1      -4.059   5.917   1.156  0.00  0.00    +0.000 A 
ATOM     13  C   UNL     1      -4.083   6.866   0.137  0.00  0.00    +0.000 A 
ATOM     14  C   UNL     1      -3.191   6.779  -0.930  0.00  0.00    +0.000 A 
ATOM     15  C   UNL     1      -2.265   5.734  -0.978  0.00  0.00    +0.000 A 
ATOM     16 CL   UNL     1      -5.222   8.155   0.195  0.00  0.00    +0.000 Cl
ENDBRANCH   9  10
ENDBRANCH   1   9
TORSDOF 3
