REMARK  Name = *****
REMARK  4 active torsions:
REMARK  status: ('A' for Active; 'I' for Inactive)
REMARK    1  A    between atoms: C_1  and  C_2
REMARK    2  A    between atoms: C_2  and  C_3
REMARK    3  A    between atoms: C_2  and  S_10
REMARK    4  A    between atoms: S_10  and  C_12
REMARK                            x       y       z     vdW  Elec       q    Type
REMARK                         _______ _______ _______ _____ _____    ______ ____
ROOT
ATOM      1  C   UNL     1       1.210   0.345  -0.077  0.00  0.00    +0.000 C 
ATOM      2  C   UNL     1       2.639  -0.200  -0.026  0.00  0.00    +0.000 C 
ENDROOT
BRANCH   2   3
ATOM      3  C   UNL     1       3.132  -0.637   1.346  0.00  0.00    +0.000 A 
ATOM      4  C   UNL     1       4.519  -0.679   1.590  0.00  0.00    +0.000 A 
ATOM      5  C   UNL     1       5.018  -1.092   2.827  0.00  0.00    +0.000 A 
ATOM      6  C   UNL     1       4.135  -1.464   3.830  0.00  0.00    +0.000 A 
ATOM      7  C   UNL     1       2.763  -1.432   3.619  0.00  0.00    +0.000 A 
ATOM      8  C   UNL     1       2.262  -1.020   2.381  0.00  0.00    +0.000 A 
ATOM      9  F   UNL     1       4.611  -1.863   5.016  0.00  0.00    +0.000 F 
ENDBRANCH   2   3
BRANCH   2  10
ATOM     10  S   UNL     1       2.870  -1.463  -1.358  0.00  0.00    +0.000 S 
ATOM     11  O   UNL     1       4.346  -1.668  -1.545  0.00  0.00    +0.000 OA
BRANCH  10  12
ATOM     12  C   UNL     1       2.260  -2.941  -0.518  0.00  0.00    +0.000 A 
ATOM     13  C   UNL     1       0.888  -3.223  -0.512  0.00  0.00    +0.000 A 
ATOM     14  C   UNL     1       0.409  -4.365   0.135  0.00  0.00    +0.000 A 
ATOM     15  C   UNL     1       1.303  -5.227   0.760  0.00  0.00    +0.000 A 
ATOM     16  C   UNL     1       2.669  -4.974   0.744  0.00  0.00    +0.000 A 
ATOM     17  C   UNL     1       3.149  -3.834   0.097  0.00  0.00    +0.000 A 
ATOM     18  F   UNL     1       0.840  -6.319   1.380  0.00  0.00    +0.000 F 
ENDBRANCH  10  12
ENDBRANCH   2  10
TORSDOF 3
