REMARK  Name = *****
REMARK  4 active torsions:
REMARK  status: ('A' for Active; 'I' for Inactive)
REMARK    1  A    between atoms: C_4  and  C_7
REMARK    2  A    between atoms: C_7  and  O_8
REMARK    3  A    between atoms: O_8  and  C_9
REMARK    4  A    between atoms: C_12  and  C_15
REMARK                            x       y       z     vdW  Elec       q    Type
REMARK                         _______ _______ _______ _____ _____    ______ ____
ROOT
ATOM      1  O   UNL     1      -3.605  -0.629  -0.772  0.00  0.00    +0.000 OA
ENDROOT
BRANCH   1   2
ATOM      2  C   UNL     1      -4.964  -0.481  -0.769  0.00  0.00    +0.000 A 
ATOM      3  C   UNL     1      -5.677  -1.644  -1.065  0.00  0.00    +0.000 A 
ATOM      4  C   UNL     1      -7.073  -1.638  -1.099  0.00  0.00    +0.000 A 
ATOM      5  C   UNL     1      -7.782  -0.458  -0.842  0.00  0.00    +0.000 A 
ATOM      6  C   UNL     1      -7.063   0.704  -0.531  0.00  0.00    +0.000 A 
ATOM      7  C   UNL     1      -5.664   0.695  -0.497  0.00  0.00    +0.000 A 
BRANCH   5   8
ATOM      8  C   UNL     1      -9.285  -0.447  -0.866  0.00  0.00    +0.000 C 
ATOM      9 CL   UNL     1      -9.937  -0.776   0.751  0.00  0.00    +0.000 Cl
ENDBRANCH   5   8
ENDBRANCH   1   2
BRANCH   1  10
ATOM     10  C   UNL     1      -2.822   0.542  -0.539  0.00  0.00    +0.000 C 
BRANCH  10  14
ATOM     11  C   UNL     1       1.398  -0.304  -0.930  0.00  0.00    +0.000 A 
ATOM     12  C   UNL     1       0.483  -0.933  -1.773  0.00  0.00    +0.000 A 
ATOM     13  C   UNL     1      -0.882  -0.670  -1.643  0.00  0.00    +0.000 A 
ATOM     14  C   UNL     1      -1.350   0.214  -0.661  0.00  0.00    +0.000 A 
ATOM     15  C   UNL     1      -0.417   0.851   0.172  0.00  0.00    +0.000 A 
ATOM     16  C   UNL     1       0.948   0.589   0.040  0.00  0.00    +0.000 A 
ENDBRANCH  10  14
ENDBRANCH   1  10
TORSDOF 4
