REMARK  Name = *****
REMARK  4 active torsions:
REMARK  status: ('A' for Active; 'I' for Inactive)
REMARK    1  A    between atoms: C_1  and  C_2
REMARK    2  A    between atoms: C_5  and  C_7
REMARK    3  A    between atoms: C_8  and  C_9
REMARK    4  A    between atoms: C_10  and  C_14
REMARK                            x       y       z     vdW  Elec       q    Type
REMARK                         _______ _______ _______ _____ _____    ______ ____
ROOT
ATOM      1  C   UNL     1      -2.945   0.686   0.001  0.00  0.00    +0.000 C 
ATOM      2  C   UNL     1      -4.096  -0.003   0.066  0.00  0.00    +0.000 C 
ENDROOT
BRANCH   1   7
ATOM      3  C   UNL     1       2.274  -0.103  -0.047  0.00  0.00    +0.000 C 
ATOM      4  C   UNL     1       0.799  -0.312  -0.011  0.00  0.00    +0.000 A 
ATOM      5  C   UNL     1       0.103  -1.496   0.073  0.00  0.00    +0.000 A 
ATOM      6  C   UNL     1      -1.308  -1.292   0.088  0.00  0.00    +0.000 A 
ATOM      7  C   UNL     1      -1.668   0.044   0.013  0.00  0.00    +0.000 A 
ATOM      8  S   UNL     1      -0.253   1.031  -0.075  0.00  0.00    +0.000 S 
ENDBRANCH   1   7
BRANCH   2   9
ATOM      9  C   UNL     1      -5.376   0.632   0.036  0.00  0.00    +0.000 A 
ATOM     10  C   UNL     1      -5.854   1.815   0.590  0.00  0.00    +0.000 A 
ATOM     11  C   UNL     1      -7.231   2.055   0.289  0.00  0.00    +0.000 A 
ATOM     12  C   UNL     1      -7.782   1.049  -0.468  0.00  0.00    +0.000 A 
ATOM     13  S   UNL     1      -6.654  -0.183  -0.805  0.00  0.00    +0.000 S 
BRANCH  10  14
ATOM     14  C   UNL     1      -5.076   2.705   1.402  0.00  0.00    +0.000 C 
ATOM     15  N   UNL     1      -4.458   3.440   2.054  0.00  0.00    +0.000 NA
ENDBRANCH  10  14
ENDBRANCH   2   9
TORSDOF 3
