REMARK  Name = *****
REMARK  5 active torsions:
REMARK  status: ('A' for Active; 'I' for Inactive)
REMARK    1  A    between atoms: C_1  and  C_2
REMARK    2  A    between atoms: C_4  and  C_16
REMARK    3  A    between atoms: C_6  and  O_8
REMARK    4  A    between atoms: O_8  and  C_9
REMARK    5  A    between atoms: C_9  and  C_10
REMARK                            x       y       z     vdW  Elec       q    Type
REMARK                         _______ _______ _______ _____ _____    ______ ____
ROOT
ATOM      1  C   UNL     1       2.491   1.160  -0.054  0.00  0.00    +0.000 C 
ATOM      2  C   UNL     1       1.212   0.377  -0.120  0.00  0.00    +0.000 A 
ATOM      3  C   UNL     1      -0.022   1.029  -0.001  0.00  0.00    +0.000 A 
ATOM      4  C   UNL     1      -1.218   0.304  -0.037  0.00  0.00    +0.000 A 
ATOM      5  C   UNL     1      -1.164  -1.090  -0.157  0.00  0.00    +0.000 A 
ATOM      6  C   UNL     1       0.059  -1.758  -0.260  0.00  0.00    +0.000 A 
ATOM      7  C   UNL     1       1.245  -1.021  -0.239  0.00  0.00    +0.000 A 
ATOM      8  C   UNL     1      -2.539   0.998   0.115  0.00  0.00    +0.000 C 
ENDROOT
BRANCH   6   9
ATOM      9  O   UNL     1      -0.044  -3.117  -0.368  0.00  0.00    +0.000 OA
BRANCH   9  10
ATOM     10  C   UNL     1       1.171  -3.857  -0.479  0.00  0.00    +0.000 C 
BRANCH  10  11
ATOM     11  C   UNL     1       0.840  -5.329  -0.545  0.00  0.00    +0.000 A 
ATOM     12  C   UNL     1       1.255  -6.110  -1.633  0.00  0.00    +0.000 A 
ATOM     13  C   UNL     1       0.963  -7.475  -1.677  0.00  0.00    +0.000 A 
ATOM     14  C   UNL     1       0.255  -8.072  -0.636  0.00  0.00    +0.000 A 
ATOM     15  C   UNL     1      -0.162  -7.307   0.451  0.00  0.00    +0.000 A 
ATOM     16  C   UNL     1       0.130  -5.943   0.497  0.00  0.00    +0.000 A 
ENDBRANCH  10  11
ENDBRANCH   9  10
ENDBRANCH   6   9
TORSDOF 3
