REMARK  Name = *****
REMARK  6 active torsions:
REMARK  status: ('A' for Active; 'I' for Inactive)
REMARK    1  A    between atoms: C_1  and  C_2
REMARK    2  A    between atoms: C_6  and  C_8
REMARK    3  A    between atoms: C_9  and  C_10
REMARK    4  A    between atoms: C_11  and  C_18
REMARK    5  A    between atoms: C_13  and  C_17
REMARK    6  A    between atoms: C_15  and  C_16
REMARK                            x       y       z     vdW  Elec       q    Type
REMARK                         _______ _______ _______ _____ _____    ______ ____
ROOT
ATOM      1  C   UNL     1      -1.751  -2.415   0.175  0.00  0.00    +0.000 C 
ATOM      2  C   UNL     1      -2.203  -3.430  -0.579  0.00  0.00    +0.000 C 
ENDROOT
BRANCH   2   3
ATOM      3  C   UNL     1      -2.986  -4.535  -0.006  0.00  0.00    +0.000 A 
ATOM      4  C   UNL     1      -4.393  -4.525  -0.127  0.00  0.00    +0.000 A 
ATOM      5  C   UNL     1      -5.144  -5.563   0.448  0.00  0.00    +0.000 A 
ATOM      6  C   UNL     1      -4.520  -6.612   1.128  0.00  0.00    +0.000 A 
ATOM      7  C   UNL     1      -3.126  -6.620   1.236  0.00  0.00    +0.000 A 
ATOM      8  C   UNL     1      -2.347  -5.597   0.670  0.00  0.00    +0.000 A 
ATOM      9  C   UNL     1      -0.850  -5.655   0.822  0.00  0.00    +0.000 C 
ATOM     10  C   UNL     1      -5.325  -7.715   1.749  0.00  0.00    +0.000 C 
ATOM     11  C   UNL     1      -5.116  -3.410  -0.837  0.00  0.00    +0.000 C 
ENDBRANCH   2   3
BRANCH   1  17
ATOM     12  C   UNL     1      -0.414  -0.106  -3.795  0.00  0.00    +0.000 C 
ATOM     13  C   UNL     1      -0.314  -0.043  -2.277  0.00  0.00    +0.000 C 
ATOM     14  C   UNL     1       1.145   0.021  -1.822  0.00  0.00    +0.000 C 
ATOM     15  C   UNL     1       1.235  -0.033  -0.300  0.00  0.00    +0.000 C 
ATOM     16  C   UNL     1       0.442  -1.218   0.244  0.00  0.00    +0.000 C 
ATOM     17  C   UNL     1      -0.982  -1.219  -0.321  0.00  0.00    +0.000 C 
ATOM     18  O   UNL     1      -0.940  -1.216  -1.751  0.00  0.00    +0.000 OA
ENDBRANCH   1  17
TORSDOF 2
