REMARK  Name = *****
REMARK  4 active torsions:
REMARK  status: ('A' for Active; 'I' for Inactive)
REMARK    1  A    between atoms: C_4  and  C_16
REMARK    2  A    between atoms: C_5  and  C_7
REMARK    3  A    between atoms: C_7  and  O_8
REMARK    4  A    between atoms: O_8  and  C_9
REMARK                            x       y       z     vdW  Elec       q    Type
REMARK                         _______ _______ _______ _____ _____    ______ ____
ROOT
ATOM      1  C   UNL     1       1.379  -0.223   0.164  0.00  0.00    +0.000 A 
ATOM      2  C   UNL     1       0.533  -1.308  -0.032  0.00  0.00    +0.000 A 
ATOM      3  C   UNL     1      -0.841  -1.106  -0.148  0.00  0.00    +0.000 A 
ATOM      4  C   UNL     1      -1.397   0.187  -0.064  0.00  0.00    +0.000 A 
ATOM      5  C   UNL     1      -0.532   1.292   0.124  0.00  0.00    +0.000 A 
ATOM      6  C   UNL     1       0.852   1.066   0.240  0.00  0.00    +0.000 A 
ENDROOT
BRANCH   4   7
ATOM      7  C   UNL     1      -2.896   0.345  -0.214  0.00  0.00    +0.000 C 
ATOM      8  F   UNL     1      -3.576  -0.822  -0.010  0.00  0.00    +0.000 F 
ATOM      9  F   UNL     1      -3.442   1.228   0.668  0.00  0.00    +0.000 F 
ATOM     10  F   UNL     1      -3.267   0.765  -1.455  0.00  0.00    +0.000 F 
ENDBRANCH   4   7
BRANCH   5  11
ATOM     11  C   UNL     1      -1.046   2.716   0.211  0.00  0.00    +0.000 C 
BRANCH  11  12
ATOM     12  O   UNL     1      -1.706   3.023  -1.014  0.00  0.00    +0.000 OA
BRANCH  12  13
ATOM     13  C   UNL     1      -2.277   4.278  -1.023  0.00  0.00    +0.000 A 
ATOM     14  N   UNL     1      -2.075   5.116   0.016  0.00  0.00    +0.000 NA
ATOM     15  C   UNL     1      -2.656   6.333  -0.059  0.00  0.00    +0.000 A 
ATOM     16  C   UNL     1      -3.426   6.751  -1.128  0.00  0.00    +0.000 A 
ATOM     17  C   UNL     1      -3.604   5.860  -2.178  0.00  0.00    +0.000 A 
ATOM     18  C   UNL     1      -3.025   4.600  -2.138  0.00  0.00    +0.000 A 
ATOM     19 CL   UNL     1      -4.550   6.325  -3.538  0.00  0.00    +0.000 Cl
ENDBRANCH  12  13
ENDBRANCH  11  12
ENDBRANCH   5  11
TORSDOF 4
