REMARK  Name = *****
REMARK  3 active torsions:
REMARK  status: ('A' for Active; 'I' for Inactive)
REMARK    1  A    between atoms: C_4  and  C_7
REMARK    2  A    between atoms: C_7  and  C_9
REMARK    3  A    between atoms: C_9  and  C_10
REMARK                            x       y       z     vdW  Elec       q    Type
REMARK                         _______ _______ _______ _____ _____    ______ ____
ROOT
ATOM      1  C   UNL     1      -5.004  -0.146  -0.375  0.00  0.00    +0.000 A 
ATOM      2  C   UNL     1      -5.564  -0.444  -1.622  0.00  0.00    +0.000 A 
ATOM      3  C   UNL     1      -6.770   0.126  -2.027  0.00  0.00    +0.000 A 
ATOM      4  C   UNL     1      -7.441   1.001  -1.185  0.00  0.00    +0.000 A 
ATOM      5  C   UNL     1      -6.909   1.305   0.059  0.00  0.00    +0.000 A 
ATOM      6  C   UNL     1      -5.702   0.734   0.459  0.00  0.00    +0.000 A 
ATOM      7  F   UNL     1      -5.206   1.033   1.667  0.00  0.00    +0.000 F 
ATOM      8  F   UNL     1      -7.555   2.147   0.877  0.00  0.00    +0.000 F 
ATOM      9  F   UNL     1      -8.600   1.549  -1.573  0.00  0.00    +0.000 F 
ATOM     10  F   UNL     1      -7.278  -0.174  -3.230  0.00  0.00    +0.000 F 
ATOM     11  F   UNL     1      -4.927  -1.286  -2.448  0.00  0.00    +0.000 F 
ENDROOT
BRANCH   1  12
ATOM     12  C   UNL     1      -3.704  -0.768   0.062  0.00  0.00    +0.000 C 
BRANCH  12  13
ATOM     13  C   UNL     1      -2.600   0.235   0.340  0.00  0.00    +0.000 C 
ATOM     14  O   UNL     1      -2.077   0.318   1.450  0.00  0.00    +0.000 OA
BRANCH  13  18
ATOM     15  C   UNL     1      -1.240   2.915  -2.718  0.00  0.00    +0.000 A 
ATOM     16  C   UNL     1      -1.770   1.677  -3.082  0.00  0.00    +0.000 A 
ATOM     17  C   UNL     1      -2.213   0.787  -2.100  0.00  0.00    +0.000 A 
ATOM     18  C   UNL     1      -2.133   1.140  -0.749  0.00  0.00    +0.000 A 
ATOM     19  C   UNL     1      -1.585   2.378  -0.389  0.00  0.00    +0.000 A 
ATOM     20  C   UNL     1      -1.143   3.264  -1.373  0.00  0.00    +0.000 A 
ENDBRANCH  13  18
ENDBRANCH  12  13
ENDBRANCH   1  12
TORSDOF 3
