REMARK  Name = *****
REMARK  2 active torsions:
REMARK  status: ('A' for Active; 'I' for Inactive)
REMARK    1  A    between atoms: C_4  and  C_7
REMARK    2  A    between atoms: C_8  and  C_9
REMARK                            x       y       z     vdW  Elec       q    Type
REMARK                         _______ _______ _______ _____ _____    ______ ____
ROOT
ATOM      1  C   UNL     1      -2.794   0.514  -0.218  0.00  0.00    +0.000 C 
ATOM      2  C   UNL     1      -3.374   1.725  -0.258  0.00  0.00    +0.000 C 
ATOM      3  F   UNL     1      -3.569  -0.596  -0.253  0.00  0.00    +0.000 F 
ENDROOT
BRANCH   2   4
ATOM      4  C   UNL     1      -4.822   1.969  -0.357  0.00  0.00    +0.000 A 
ATOM      5  C   UNL     1      -5.765   1.194   0.334  0.00  0.00    +0.000 A 
ATOM      6  C   UNL     1      -7.128   1.484   0.242  0.00  0.00    +0.000 A 
ATOM      7  C   UNL     1      -7.550   2.557  -0.532  0.00  0.00    +0.000 A 
ATOM      8  C   UNL     1      -6.634   3.349  -1.213  0.00  0.00    +0.000 A 
ATOM      9  C   UNL     1      -5.270   3.058  -1.120  0.00  0.00    +0.000 A 
ATOM     10  F   UNL     1      -8.857   2.837  -0.619  0.00  0.00    +0.000 F 
ENDBRANCH   2   4
BRANCH   1  14
ATOM     11  C   UNL     1       1.410  -0.268   0.121  0.00  0.00    +0.000 A 
ATOM     12  C   UNL     1       0.473  -1.182   0.595  0.00  0.00    +0.000 A 
ATOM     13  C   UNL     1      -0.892  -0.910   0.476  0.00  0.00    +0.000 A 
ATOM     14  C   UNL     1      -1.342   0.285  -0.107  0.00  0.00    +0.000 A 
ATOM     15  C   UNL     1      -0.385   1.189  -0.593  0.00  0.00    +0.000 A 
ATOM     16  C   UNL     1       0.982   0.916  -0.475  0.00  0.00    +0.000 A 
ENDBRANCH   1  14
TORSDOF 2
