REMARK  Name = *****
REMARK  4 active torsions:
REMARK  status: ('A' for Active; 'I' for Inactive)
REMARK    1  A    between atoms: C_1  and  C_2
REMARK    2  A    between atoms: C_5  and  C_8
REMARK    3  A    between atoms: C_9  and  C_10
REMARK    4  A    between atoms: C_13  and  N_16
REMARK                            x       y       z     vdW  Elec       q    Type
REMARK                         _______ _______ _______ _____ _____    ______ ____
ROOT
ATOM      1  C   UNL     1      -3.284   0.041  -0.080  0.00  0.00    +0.000 C 
ATOM      2  C   UNL     1      -4.059   1.138  -0.070  0.00  0.00    +0.000 C 
ENDROOT
BRANCH   1   7
ATOM      3  C   UNL     1       2.506   0.012  -0.035  0.00  0.00    +0.000 C 
ATOM      4  C   UNL     1       1.007   0.051  -0.065  0.00  0.00    +0.000 A 
ATOM      5  C   UNL     1       0.304   0.981   0.707  0.00  0.00    +0.000 A 
ATOM      6  C   UNL     1      -1.095   0.995   0.702  0.00  0.00    +0.000 A 
ATOM      7  C   UNL     1      -1.815   0.080  -0.074  0.00  0.00    +0.000 A 
ATOM      8  C   UNL     1      -1.108  -0.870  -0.821  0.00  0.00    +0.000 A 
ATOM      9  C   UNL     1       0.290  -0.884  -0.818  0.00  0.00    +0.000 A 
ENDBRANCH   1   7
BRANCH   2  10
ATOM     10  C   UNL     1      -5.527   1.101  -0.095  0.00  0.00    +0.000 A 
ATOM     11  C   UNL     1      -6.265   0.157   0.628  0.00  0.00    +0.000 A 
ATOM     12  C   UNL     1      -7.665   0.174   0.599  0.00  0.00    +0.000 A 
ATOM     13  C   UNL     1      -8.353   1.164  -0.104  0.00  0.00    +0.000 A 
ATOM     14  C   UNL     1      -7.618   2.076  -0.862  0.00  0.00    +0.000 A 
ATOM     15  C   UNL     1      -6.218   2.064  -0.837  0.00  0.00    +0.000 A 
BRANCH  13  16
ATOM     16  N   UNL     1      -9.746   1.101  -0.231  0.00  0.00    +0.000 N 
ATOM     17  H   UNL     1     -10.260   0.456   0.306  0.00  0.00    +0.000 HD
ATOM     18  H   UNL     1     -10.211   1.702  -0.856  0.00  0.00    +0.000 HD
ENDBRANCH  13  16
ENDBRANCH   2  10
TORSDOF 3
