REMARK  Name = *****
REMARK  2 active torsions:
REMARK  status: ('A' for Active; 'I' for Inactive)
REMARK    1  A    between atoms: C_1  and  C_2
REMARK    2  A    between atoms: C_10  and  C_12
REMARK                            x       y       z     vdW  Elec       q    Type
REMARK                         _______ _______ _______ _____ _____    ______ ____
ROOT
ATOM      1  C   UNL     1       4.046   0.386  -2.966  0.00  0.00    +0.000 C 
ATOM      2  C   UNL     1       3.533   0.116  -1.552  0.00  0.00    +0.000 C 
ATOM      3  C   UNL     1       4.003   1.088  -0.470  0.00  0.00    +0.000 C 
ATOM      4  C   UNL     1       5.521   1.275  -0.386  0.00  0.00    +0.000 C 
ATOM      5  C   UNL     1       5.886   2.257   0.728  0.00  0.00    +0.000 C 
ATOM      6  C   UNL     1       5.161   3.592   0.565  0.00  0.00    +0.000 C 
ATOM      7  C   UNL     1       3.652   3.406   0.435  0.00  0.00    +0.000 C 
ATOM      8  C   UNL     1       3.300   2.422  -0.682  0.00  0.00    +0.000 C 
ATOM      9  O   UNL     1       1.878   2.242  -0.695  0.00  0.00    +0.000 OA
ATOM     10  C   UNL     1       1.384   1.085  -1.195  0.00  0.00    +0.000 C 
ATOM     11  N   UNL     1       2.071   0.076  -1.600  0.00  0.00    +0.000 NA
ENDROOT
BRANCH  10  12
ATOM     12  C   UNL     1      -0.103   1.104  -1.203  0.00  0.00    +0.000 A 
ATOM     13  C   UNL     1      -0.834   2.241  -0.830  0.00  0.00    +0.000 A 
ATOM     14  C   UNL     1      -2.231   2.220  -0.853  0.00  0.00    +0.000 A 
ATOM     15  C   UNL     1      -2.906   1.066  -1.248  0.00  0.00    +0.000 A 
ATOM     16  C   UNL     1      -2.188  -0.069  -1.621  0.00  0.00    +0.000 A 
ATOM     17  C   UNL     1      -0.792  -0.051  -1.600  0.00  0.00    +0.000 A 
ENDBRANCH  10  12
TORSDOF 1
