REMARK  Name = *****
REMARK  5 active torsions:
REMARK  status: ('A' for Active; 'I' for Inactive)
REMARK    1  A    between atoms: C_1  and  C_2
REMARK    2  A    between atoms: C_3  and  O_9
REMARK    3  A    between atoms: C_4  and  C_8
REMARK    4  A    between atoms: O_9  and  C_10
REMARK    5  A    between atoms: C_10  and  C_12
REMARK                            x       y       z     vdW  Elec       q    Type
REMARK                         _______ _______ _______ _____ _____    ______ ____
ROOT
ATOM      1  C   UNL     1       0.867   3.162  -0.431  0.00  0.00    +0.000 C 
ATOM      2  O   UNL     1       1.068   2.854  -1.593  0.00  0.00    +0.000 OA
ENDROOT
BRANCH   1   3
ATOM      3  C   UNL     1       1.044   4.518   0.074  0.00  0.00    +0.000 A 
ATOM      4  C   UNL     1      -0.031   5.213   0.620  0.00  0.00    +0.000 A 
ATOM      5  C   UNL     1       0.146   6.515   1.075  0.00  0.00    +0.000 A 
ATOM      6  C   UNL     1       1.392   7.122   0.983  0.00  0.00    +0.000 A 
ATOM      7  C   UNL     1       2.463   6.428   0.434  0.00  0.00    +0.000 A 
ATOM      8  C   UNL     1       2.291   5.127  -0.024  0.00  0.00    +0.000 A 
ATOM      9  F   UNL     1       3.339   4.461  -0.529  0.00  0.00    +0.000 F 
ATOM     10  F   UNL     1       3.667   7.011   0.353  0.00  0.00    +0.000 F 
ATOM     11  F   UNL     1       1.561   8.375   1.426  0.00  0.00    +0.000 F 
ATOM     12  F   UNL     1      -0.889   7.184   1.602  0.00  0.00    +0.000 F 
ATOM     13  F   UNL     1      -1.242   4.644   0.699  0.00  0.00    +0.000 F 
ENDBRANCH   1   3
BRANCH   1  14
ATOM     14  O   UNL     1       0.504   2.374   0.639  0.00  0.00    +0.000 OA
BRANCH  14  17
ATOM     15  C   UNL     1       2.819   0.656   0.628  0.00  0.00    +0.000 C 
ATOM     16  C   UNL     1       1.438   0.164   0.311  0.00  0.00    +0.000 A 
ATOM     17  C   UNL     1       0.331   1.028   0.288  0.00  0.00    +0.000 A 
ATOM     18  C   UNL     1      -0.965   0.569   0.005  0.00  0.00    +0.000 A 
ATOM     19  C   UNL     1      -1.135  -0.782  -0.319  0.00  0.00    +0.000 A 
ATOM     20  C   UNL     1      -0.042  -1.649  -0.337  0.00  0.00    +0.000 A 
ATOM     21  C   UNL     1       1.235  -1.180  -0.024  0.00  0.00    +0.000 A 
ATOM     22  C   UNL     1      -2.144   1.497   0.018  0.00  0.00    +0.000 C 
ENDBRANCH  14  17
ENDBRANCH   1  14
TORSDOF 3
