REMARK  Name = *****
REMARK  2 active torsions:
REMARK  status: ('A' for Active; 'I' for Inactive)
REMARK    1  A    between atoms: C_4  and  C_6
REMARK    2  A    between atoms: C_7  and  C_10
REMARK                            x       y       z     vdW  Elec       q    Type
REMARK                         _______ _______ _______ _____ _____    ______ ____
ROOT
ATOM      1  C   UNL     1       0.841  -0.943   0.362  0.00  0.00    +0.000 C 
ATOM      2  C   UNL     1       2.018  -1.342  -0.113  0.00  0.00    +0.000 C 
ATOM      3  C   UNL     1       1.050  -2.392   0.239  0.00  0.00    +0.000 C 
ATOM      4  O   UNL     1       1.087  -3.260   1.077  0.00  0.00    +0.000 OA
ENDROOT
BRANCH   1   8
ATOM      5  C   UNL     1      -1.440   0.497  -2.222  0.00  0.00    +0.000 A 
ATOM      6  C   UNL     1      -2.126   0.994  -1.138  0.00  0.00    +0.000 A 
ATOM      7  S   UNL     1      -1.393   0.553   0.339  0.00  0.00    +0.000 S 
ATOM      8  C   UNL     1      -0.139  -0.324  -0.454  0.00  0.00    +0.000 A 
ATOM      9  C   UNL     1      -0.298  -0.262  -1.829  0.00  0.00    +0.000 A 
ENDBRANCH   1   8
BRANCH   2  10
ATOM     10  C   UNL     1       3.227  -1.182   0.611  0.00  0.00    +0.000 A 
ATOM     11  C   UNL     1       3.531  -1.384   1.948  0.00  0.00    +0.000 A 
ATOM     12  C   UNL     1       4.889  -1.091   2.263  0.00  0.00    +0.000 A 
ATOM     13  C   UNL     1       5.593  -0.673   1.158  0.00  0.00    +0.000 A 
ATOM     14  S   UNL     1       4.619  -0.636  -0.245  0.00  0.00    +0.000 S 
ENDBRANCH   2  10
TORSDOF 2
