REMARK  Name = *****
REMARK  4 active torsions:
REMARK  status: ('A' for Active; 'I' for Inactive)
REMARK    1  A    between atoms: C_1  and  C_2
REMARK    2  A    between atoms: C_5  and  N_8
REMARK    3  A    between atoms: C_9  and  C_10
REMARK    4  A    between atoms: C_13  and  C_16
REMARK                            x       y       z     vdW  Elec       q    Type
REMARK                         _______ _______ _______ _____ _____    ______ ____
ROOT
ATOM      1  C   UNL     1      -5.385   0.991  -0.151  0.00  0.00    +0.000 A 
ATOM      2  C   UNL     1      -6.126  -0.055   0.405  0.00  0.00    +0.000 A 
ATOM      3  C   UNL     1      -7.520   0.022   0.441  0.00  0.00    +0.000 A 
ATOM      4  C   UNL     1      -8.187   1.141  -0.083  0.00  0.00    +0.000 A 
ATOM      5  C   UNL     1      -7.428   2.190  -0.631  0.00  0.00    +0.000 A 
ATOM      6  C   UNL     1      -6.033   2.115  -0.669  0.00  0.00    +0.000 A 
ENDROOT
BRANCH   4   7
ATOM      7  C   UNL     1      -9.693   1.234  -0.022  0.00  0.00    +0.000 C 
ATOM      8  F   UNL     1     -10.308   0.021  -0.097  0.00  0.00    +0.000 F 
ATOM      9  F   UNL     1     -10.128   1.805   1.135  0.00  0.00    +0.000 F 
ATOM     10  F   UNL     1     -10.223   1.982  -1.030  0.00  0.00    +0.000 F 
ENDBRANCH   4   7
BRANCH   1  12
ATOM     11  N   UNL     1      -3.251  -0.076   0.278  0.00  0.00    +0.000 NA
ATOM     12  C   UNL     1      -3.911   0.931  -0.200  0.00  0.00    +0.000 C 
BRANCH  11  17
ATOM     13  C   UNL     1       2.442   0.166  -0.158  0.00  0.00    +0.000 C 
ATOM     14  C   UNL     1       0.945   0.130  -0.060  0.00  0.00    +0.000 A 
ATOM     15  C   UNL     1       0.293   0.723   1.027  0.00  0.00    +0.000 A 
ATOM     16  C   UNL     1      -1.099   0.658   1.137  0.00  0.00    +0.000 A 
ATOM     17  C   UNL     1      -1.856   0.001   0.165  0.00  0.00    +0.000 A 
ATOM     18  C   UNL     1      -1.204  -0.617  -0.903  0.00  0.00    +0.000 A 
ATOM     19  C   UNL     1       0.187  -0.555  -1.017  0.00  0.00    +0.000 A 
ENDBRANCH  11  17
ENDBRANCH   1  12
TORSDOF 3
