REMARK  Name = *****
REMARK  4 active torsions:
REMARK  status: ('A' for Active; 'I' for Inactive)
REMARK    1  A    between atoms: C_4  and  C_7
REMARK    2  A    between atoms: C_7  and  N_8
REMARK    3  A    between atoms: N_8  and  O_9
REMARK    4  A    between atoms: O_9  and  C_10
REMARK                            x       y       z     vdW  Elec       q    Type
REMARK                         _______ _______ _______ _____ _____    ______ ____
ROOT
ATOM      1  N   UNL     1      -3.619  -0.789  -0.450  0.00  0.00    +0.000 NA
ENDROOT
BRANCH   1   2
ATOM      2  C   UNL     1      -2.824   0.232  -0.428  0.00  0.00    +0.000 C 
BRANCH   2   6
ATOM      3  C   UNL     1       1.371  -0.116   0.238  0.00  0.00    +0.000 A 
ATOM      4  C   UNL     1       0.582  -1.267   0.202  0.00  0.00    +0.000 A 
ATOM      5  C   UNL     1      -0.793  -1.164  -0.014  0.00  0.00    +0.000 A 
ATOM      6  C   UNL     1      -1.375   0.094  -0.195  0.00  0.00    +0.000 A 
ATOM      7  C   UNL     1      -0.586   1.248  -0.159  0.00  0.00    +0.000 A 
ATOM      8  C   UNL     1       0.789   1.139   0.058  0.00  0.00    +0.000 A 
ENDBRANCH   2   6
ENDBRANCH   1   2
BRANCH   1   9
ATOM      9  O   UNL     1      -4.923  -0.337  -0.698  0.00  0.00    +0.000 OA
BRANCH   9  10
ATOM     10  C   UNL     1      -5.820  -1.381  -0.717  0.00  0.00    +0.000 A 
ATOM     11  C   UNL     1      -5.563  -2.658  -0.213  0.00  0.00    +0.000 A 
ATOM     12  C   UNL     1      -6.552  -3.644  -0.265  0.00  0.00    +0.000 A 
ATOM     13  C   UNL     1      -7.800  -3.355  -0.815  0.00  0.00    +0.000 A 
ATOM     14  C   UNL     1      -8.063  -2.079  -1.312  0.00  0.00    +0.000 A 
ATOM     15  C   UNL     1      -7.076  -1.094  -1.259  0.00  0.00    +0.000 A 
ENDBRANCH   9  10
ENDBRANCH   1   9
TORSDOF 4
