REMARK  Name = *****
REMARK  5 active torsions:
REMARK  status: ('A' for Active; 'I' for Inactive)
REMARK    1  A    between atoms: C_1  and  C_2
REMARK    2  A    between atoms: C_5  and  C_8
REMARK    3  A    between atoms: C_9  and  C_10
REMARK    4  A    between atoms: C_15  and  C_16
REMARK    5  A    between atoms: C_16  and  C_17
REMARK                            x       y       z     vdW  Elec       q    Type
REMARK                         _______ _______ _______ _____ _____    ______ ____
ROOT
ATOM      1  C   UNL     1       6.816   0.439  -0.821  0.00  0.00    +0.000 C 
ATOM      2  C   UNL     1       7.992   0.443  -1.069  0.00  0.00    +0.000 C 
ENDROOT
BRANCH   1   7
ATOM      3  C   UNL     1       1.216   0.247   0.398  0.00  0.00    +0.000 C 
ATOM      4  C   UNL     1       2.685   0.313   0.103  0.00  0.00    +0.000 A 
ATOM      5  C   UNL     1       3.202   1.343  -0.694  0.00  0.00    +0.000 A 
ATOM      6  C   UNL     1       4.565   1.388  -0.996  0.00  0.00    +0.000 A 
ATOM      7  C   UNL     1       5.422   0.399  -0.511  0.00  0.00    +0.000 A 
ATOM      8  C   UNL     1       4.912  -0.638   0.273  0.00  0.00    +0.000 A 
ATOM      9  C   UNL     1       3.549  -0.684   0.573  0.00  0.00    +0.000 A 
ENDBRANCH   1   7
BRANCH   2  10
ATOM     10  C   UNL     1       9.397   0.411  -1.347  0.00  0.00    +0.000 A 
ATOM     11  C   UNL     1      10.121   1.606  -1.270  0.00  0.00    +0.000 A 
ATOM     12  C   UNL     1      11.493   1.617  -1.519  0.00  0.00    +0.000 A 
ATOM     13  C   UNL     1      12.150   0.433  -1.842  0.00  0.00    +0.000 A 
ATOM     14  C   UNL     1      11.436  -0.764  -1.920  0.00  0.00    +0.000 A 
ATOM     15  C   UNL     1      10.050  -0.792  -1.681  0.00  0.00    +0.000 A 
BRANCH  15  16
ATOM     16  C   UNL     1       9.307  -2.108  -1.770  0.00  0.00    +0.000 C 
BRANCH  16  17
ATOM     17  C   UNL     1       8.992  -2.683  -0.453  0.00  0.00    +0.000 C 
ATOM     18  N   UNL     1       8.732  -3.159   0.574  0.00  0.00    +0.000 NA
ENDBRANCH  16  17
ENDBRANCH  15  16
ENDBRANCH   2  10
TORSDOF 4
