REMARK  Name = *****
REMARK  4 active torsions:
REMARK  status: ('A' for Active; 'I' for Inactive)
REMARK    1  A    between atoms: C_1  and  C_2
REMARK    2  A    between atoms: C_2  and  C_3
REMARK    3  A    between atoms: C_2  and  S_8
REMARK    4  A    between atoms: S_8  and  C_9
REMARK                            x       y       z     vdW  Elec       q    Type
REMARK                         _______ _______ _______ _____ _____    ______ ____
ROOT
ATOM      1  C   UNL     1       0.800   0.083   0.037  0.00  0.00    +0.000 C 
ATOM      2  C   UNL     1       2.329   0.084   0.062  0.00  0.00    +0.000 C 
ENDROOT
BRANCH   2   3
ATOM      3  C   UNL     1       2.904   0.760  -1.146  0.00  0.00    +0.000 C 
ATOM      4  C   UNL     1       3.752   0.254  -2.068  0.00  0.00    +0.000 C 
ATOM      5  C   UNL     1       4.040   1.264  -3.074  0.00  0.00    +0.000 C 
ATOM      6  C   UNL     1       3.368   2.391  -2.784  0.00  0.00    +0.000 C 
ATOM      7  C   UNL     1       2.631   2.121  -1.573  0.00  0.00    +0.000 C 
ENDBRANCH   2   3
BRANCH   2   8
ATOM      8  S   UNL     1       2.963   0.915   1.577  0.00  0.00    +0.000 S 
BRANCH   8   9
ATOM      9  C   UNL     1       2.530  -0.289   2.818  0.00  0.00    +0.000 A 
ATOM     10  C   UNL     1       3.119  -1.557   2.835  0.00  0.00    +0.000 A 
ATOM     11  C   UNL     1       2.771  -2.482   3.822  0.00  0.00    +0.000 A 
ATOM     12  C   UNL     1       1.840  -2.141   4.801  0.00  0.00    +0.000 A 
ATOM     13  C   UNL     1       1.261  -0.873   4.799  0.00  0.00    +0.000 A 
ATOM     14  C   UNL     1       1.609   0.053   3.813  0.00  0.00    +0.000 A 
ENDBRANCH   8   9
ENDBRANCH   2   8
TORSDOF 3
