REMARK  Name = *****
REMARK  0 active torsions:
REMARK  status: ('A' for Active; 'I' for Inactive)
REMARK                            x       y       z     vdW  Elec       q    Type
REMARK                         _______ _______ _______ _____ _____    ______ ____
ROOT
ATOM      1  C   UNL     1       0.606   1.122   1.019  0.00  0.00    +0.000 C 
ATOM      2  C   UNL     1       0.618   1.945   2.293  0.00  0.00    +0.000 A 
ATOM      3  C   UNL     1      -0.415   1.704   3.224  0.00  0.00    +0.000 A 
ATOM      4  C   UNL     1      -0.511   2.430   4.410  0.00  0.00    +0.000 A 
ATOM      5  C   UNL     1       0.421   3.419   4.690  0.00  0.00    +0.000 A 
ATOM      6  C   UNL     1       1.445   3.681   3.782  0.00  0.00    +0.000 A 
ATOM      7  C   UNL     1       1.560   2.966   2.571  0.00  0.00    +0.000 A 
ATOM      8  C   UNL     1       2.732   3.310   1.673  0.00  0.00    +0.000 C 
ATOM      9  S   UNL     1       2.247   3.729  -0.017  0.00  0.00    +0.000 S 
ATOM     10  C   UNL     1       2.857   2.404  -0.966  0.00  0.00    +0.000 A 
ATOM     11  C   UNL     1       2.797   1.078  -0.708  0.00  0.00    +0.000 A 
ATOM     12  S   UNL     1       2.164   0.267   0.695  0.00  0.00    +0.000 S 
ATOM     13  S   UNL     1       3.505   0.017  -1.916  0.00  0.00    +0.000 S 
ATOM     14  C   UNL     1       3.983   1.260  -3.041  0.00  0.00    +0.000 A 
ATOM     15  O   UNL     1       4.537   1.028  -4.104  0.00  0.00    +0.000 OA
ATOM     16  S   UNL     1       3.588   2.867  -2.495  0.00  0.00    +0.000 S 
ENDROOT
TORSDOF 0
