REMARK  Name = *****
REMARK  3 active torsions:
REMARK  status: ('A' for Active; 'I' for Inactive)
REMARK    1  A    between atoms: C_1  and  C_2
REMARK    2  A    between atoms: C_5  and  S_8
REMARK    3  A    between atoms: S_8  and  C_10
REMARK                            x       y       z     vdW  Elec       q    Type
REMARK                         _______ _______ _______ _____ _____    ______ ____
ROOT
ATOM      1  S   UNL     1      -3.571   0.120   0.046  0.00  0.00    +0.000 S 
ATOM      2  O   UNL     1      -3.806  -0.231   1.487  0.00  0.00    +0.000 OA
ENDROOT
BRANCH   1   7
ATOM      3  C   UNL     1       2.484  -0.045  -0.826  0.00  0.00    +0.000 C 
ATOM      4  C   UNL     1       1.002   0.028  -0.606  0.00  0.00    +0.000 A 
ATOM      5  C   UNL     1       0.128   0.161  -1.692  0.00  0.00    +0.000 A 
ATOM      6  C   UNL     1      -1.254   0.196  -1.489  0.00  0.00    +0.000 A 
ATOM      7  C   UNL     1      -1.781   0.093  -0.197  0.00  0.00    +0.000 A 
ATOM      8  C   UNL     1      -0.911  -0.062   0.886  0.00  0.00    +0.000 A 
ATOM      9  C   UNL     1       0.471  -0.097   0.683  0.00  0.00    +0.000 A 
ENDBRANCH   1   7
BRANCH   1  10
ATOM     10  C   UNL     1      -3.893   1.867  -0.128  0.00  0.00    +0.000 C 
ATOM     11  C   UNL     1      -4.966   2.458   0.420  0.00  0.00    +0.000 C 
ATOM     12  C   UNL     1      -5.251   3.929   0.261  0.00  0.00    +0.000 C 
ATOM     13  C   UNL     1      -6.348   4.192   1.284  0.00  0.00    +0.000 C 
ATOM     14  C   UNL     1      -7.126   2.886   1.320  0.00  0.00    +0.000 C 
ATOM     15  C   UNL     1      -6.042   1.816   1.258  0.00  0.00    +0.000 C 
ATOM     16  F   UNL     1      -3.062   2.624  -0.882  0.00  0.00    +0.000 F 
ENDBRANCH   1  10
TORSDOF 2
