REMARK  Name = *****
REMARK  3 active torsions:
REMARK  status: ('A' for Active; 'I' for Inactive)
REMARK    1  A    between atoms: C_4  and  S_6
REMARK    2  A    between atoms: S_6  and  S_7
REMARK    3  A    between atoms: S_7  and  C_10
REMARK                            x       y       z     vdW  Elec       q    Type
REMARK                         _______ _______ _______ _____ _____    ______ ____
ROOT
ATOM      1  S   UNL     1       0.556  -4.105  -0.144  0.00  0.00    +0.000 S 
ATOM      2  O   UNL     1       1.244  -4.039  -1.415  0.00  0.00    +0.000 OA
ATOM      3  O   UNL     1       1.270  -3.975   1.111  0.00  0.00    +0.000 OA
ENDROOT
BRANCH   1   4
ATOM      4  C   UNL     1      -0.086  -5.709  -0.096  0.00  0.00    +0.000 A 
ATOM      5  C   UNL     1      -0.900  -6.259  -1.056  0.00  0.00    +0.000 A 
ATOM      6  S   UNL     1      -1.351  -7.861  -0.702  0.00  0.00    +0.000 S 
ATOM      7  C   UNL     1      -0.453  -7.836   0.731  0.00  0.00    +0.000 A 
ATOM      8  C   UNL     1       0.182  -6.642   0.959  0.00  0.00    +0.000 A 
ATOM      9 CL   UNL     1      -0.409  -9.227   1.736  0.00  0.00    +0.000 Cl
ATOM     10 CL   UNL     1      -1.500  -5.557  -2.507  0.00  0.00    +0.000 Cl
ENDBRANCH   1   4
BRANCH   1  11
ATOM     11  S   UNL     1      -1.039  -2.773  -0.130  0.00  0.00    +0.000 S 
BRANCH  11  15
ATOM     12  C   UNL     1       1.087   0.579  -0.403  0.00  0.00    +0.000 A 
ATOM     13  C   UNL     1      -0.221   0.992  -0.381  0.00  0.00    +0.000 A 
ATOM     14  O   UNL     1      -1.051  -0.075  -0.287  0.00  0.00    +0.000 OA
ATOM     15  C   UNL     1      -0.280  -1.209  -0.249  0.00  0.00    +0.000 A 
ATOM     16  C   UNL     1       1.051  -0.835  -0.317  0.00  0.00    +0.000 A 
ENDBRANCH  11  15
ENDBRANCH   1  11
TORSDOF 3
