REMARK  Name = *****
REMARK  3 active torsions:
REMARK  status: ('A' for Active; 'I' for Inactive)
REMARK    1  A    between atoms: C_4  and  C_7
REMARK    2  A    between atoms: C_7  and  C_8
REMARK    3  A    between atoms: C_8  and  C_9
REMARK                            x       y       z     vdW  Elec       q    Type
REMARK                         _______ _______ _______ _____ _____    ______ ____
ROOT
ATOM      1  C   UNL     1      -3.617  -0.907  -0.406  0.00  0.00    +0.000 C 
ATOM      2  F   UNL     1      -3.086  -1.361  -1.580  0.00  0.00    +0.000 F 
ATOM      3  F   UNL     1      -3.331  -1.868   0.523  0.00  0.00    +0.000 F 
ENDROOT
BRANCH   1   4
ATOM      4  C   UNL     1      -5.113  -0.679  -0.525  0.00  0.00    +0.000 A 
ATOM      5  C   UNL     1      -5.679  -0.275  -1.744  0.00  0.00    +0.000 A 
ATOM      6  C   UNL     1      -7.052  -0.044  -1.846  0.00  0.00    +0.000 A 
ATOM      7  C   UNL     1      -7.872  -0.214  -0.732  0.00  0.00    +0.000 A 
ATOM      8  C   UNL     1      -7.324  -0.618   0.484  0.00  0.00    +0.000 A 
ATOM      9  C   UNL     1      -5.951  -0.849   0.588  0.00  0.00    +0.000 A 
ENDBRANCH   1   4
BRANCH   1  10
ATOM     10  C   UNL     1      -2.911   0.400  -0.009  0.00  0.00    +0.000 C 
BRANCH  10  14
ATOM     11  C   UNL     1       1.363  -0.018   0.434  0.00  0.00    +0.000 A 
ATOM     12  C   UNL     1       0.818   0.294  -0.810  0.00  0.00    +0.000 A 
ATOM     13  C   UNL     1      -0.564   0.431  -0.955  0.00  0.00    +0.000 A 
ATOM     14  C   UNL     1      -1.413   0.260   0.147  0.00  0.00    +0.000 A 
ATOM     15  C   UNL     1      -0.855  -0.062   1.392  0.00  0.00    +0.000 A 
ATOM     16  C   UNL     1       0.527  -0.197   1.534  0.00  0.00    +0.000 A 
ENDBRANCH  10  14
ENDBRANCH   1  10
TORSDOF 3
