REMARK  Name = *****
REMARK  5 active torsions:
REMARK  status: ('A' for Active; 'I' for Inactive)
REMARK    1  A    between atoms: C_1  and  C_2
REMARK    2  A    between atoms: C_7  and  C_8
REMARK    3  A    between atoms: C_8  and  N_9
REMARK    4  A    between atoms: N_9  and  C_10
REMARK    5  A    between atoms: C_10  and  C_11
REMARK                            x       y       z     vdW  Elec       q    Type
REMARK                         _______ _______ _______ _____ _____    ______ ____
ROOT
ATOM      1  N   UNL     1       2.193  -2.592  -0.605  0.00  0.00    +0.000 NA
ENDROOT
BRANCH   1   2
ATOM      2  C   UNL     1       1.230  -2.276   0.196  0.00  0.00    +0.000 C 
BRANCH   2   9
ATOM      3  C   UNL     1      -1.022  -1.601   2.038  0.00  0.00    +0.000 C 
ATOM      4  C   UNL     1      -0.627  -0.720   0.887  0.00  0.00    +0.000 A 
ATOM      5  C   UNL     1      -1.344   0.468   0.666  0.00  0.00    +0.000 A 
ATOM      6  C   UNL     1      -1.016   1.318  -0.393  0.00  0.00    +0.000 A 
ATOM      7  C   UNL     1       0.033   0.995  -1.247  0.00  0.00    +0.000 A 
ATOM      8  C   UNL     1       0.756  -0.179  -1.044  0.00  0.00    +0.000 A 
ATOM      9  C   UNL     1       0.434  -1.038   0.017  0.00  0.00    +0.000 A 
ENDBRANCH   2   9
ENDBRANCH   1   2
BRANCH   1  10
ATOM     10  C   UNL     1       2.861  -3.858  -0.268  0.00  0.00    +0.000 C 
BRANCH  10  11
ATOM     11  C   UNL     1       2.097  -5.082  -0.720  0.00  0.00    +0.000 A 
ATOM     12  C   UNL     1       1.514  -5.129  -1.996  0.00  0.00    +0.000 A 
ATOM     13  C   UNL     1       0.827  -6.267  -2.423  0.00  0.00    +0.000 A 
ATOM     14  C   UNL     1       0.729  -7.371  -1.580  0.00  0.00    +0.000 A 
ATOM     15  C   UNL     1       1.313  -7.347  -0.315  0.00  0.00    +0.000 A 
ATOM     16  C   UNL     1       1.999  -6.207   0.112  0.00  0.00    +0.000 A 
ATOM     17 CL   UNL     1      -0.116  -8.775  -2.103  0.00  0.00    +0.000 Cl
ENDBRANCH  10  11
ENDBRANCH   1  10
TORSDOF 4
