REMARK  Name = *****
REMARK  4 active torsions:
REMARK  status: ('A' for Active; 'I' for Inactive)
REMARK    1  A    between atoms: C_1  and  C_2
REMARK    2  A    between atoms: C_8  and  C_18
REMARK    3  A    between atoms: C_9  and  C_10
REMARK    4  A    between atoms: C_11  and  C_12
REMARK                            x       y       z     vdW  Elec       q    Type
REMARK                         _______ _______ _______ _____ _____    ______ ____
ROOT
ATOM      1  C   UNL     1       3.102  -0.791  -1.133  0.00  0.00    +0.000 C 
ATOM      2  C   UNL     1       2.564  -0.044   0.095  0.00  0.00    +0.000 C 
ATOM      3  C   UNL     1       2.989   1.445   0.032  0.00  0.00    +0.000 C 
ATOM      4  C   UNL     1       2.325   2.316   1.104  0.00  0.00    +0.000 C 
ATOM      5  C   UNL     1       3.360   2.393   2.220  0.00  0.00    +0.000 C 
ATOM      6  C   UNL     1       4.395   1.359   1.802  0.00  0.00    +0.000 C 
ATOM      7  O   UNL     1       4.391   1.489   0.366  0.00  0.00    +0.000 OA
ATOM      8  C   UNL     1       3.944  -0.044   2.178  0.00  0.00    +0.000 C 
ATOM      9  C   UNL     1       3.076  -0.706   1.377  0.00  0.00    +0.000 C 
ATOM     10  C   UNL     1       4.508  -0.557   3.475  0.00  0.00    +0.000 C 
ENDROOT
BRANCH   9  11
ATOM     11  C   UNL     1       2.583  -2.003   1.717  0.00  0.00    +0.000 C 
ATOM     12  C   UNL     1       2.166  -3.096   1.989  0.00  0.00    +0.000 C 
BRANCH  12  13
ATOM     13  C   UNL     1       1.679  -4.401   2.312  0.00  0.00    +0.000 A 
ATOM     14  C   UNL     1       2.491  -5.520   2.109  0.00  0.00    +0.000 A 
ATOM     15  C   UNL     1       2.017  -6.794   2.424  0.00  0.00    +0.000 A 
ATOM     16  C   UNL     1       0.732  -6.952   2.943  0.00  0.00    +0.000 A 
ATOM     17  C   UNL     1      -0.080  -5.836   3.147  0.00  0.00    +0.000 A 
ATOM     18  C   UNL     1       0.393  -4.561   2.832  0.00  0.00    +0.000 A 
ENDBRANCH  12  13
ENDBRANCH   9  11
TORSDOF 2
