REMARK  Name = *****
REMARK  6 active torsions:
REMARK  status: ('A' for Active; 'I' for Inactive)
REMARK    1  A    between atoms: C_1  and  C_2
REMARK    2  A    between atoms: C_2  and  O_3
REMARK    3  A    between atoms: O_3  and  C_4
REMARK    4  A    between atoms: C_7  and  C_10
REMARK    5  A    between atoms: C_10  and  C_11
REMARK    6  A    between atoms: C_11  and  C_12
REMARK                            x       y       z     vdW  Elec       q    Type
REMARK                         _______ _______ _______ _____ _____    ______ ____
ROOT
ATOM      1  C   UNL     1       4.315   1.172   0.894  0.00  0.00    +0.000 A 
ATOM      2  C   UNL     1       5.168   0.604  -0.052  0.00  0.00    +0.000 A 
ATOM      3  C   UNL     1       6.555   0.726   0.087  0.00  0.00    +0.000 A 
ATOM      4  C   UNL     1       7.107   1.414   1.175  0.00  0.00    +0.000 A 
ATOM      5  C   UNL     1       6.248   1.987   2.118  0.00  0.00    +0.000 A 
ATOM      6  C   UNL     1       4.864   1.863   1.977  0.00  0.00    +0.000 A 
ENDROOT
BRANCH   1   7
ATOM      7  O   UNL     1       2.949   1.128   0.878  0.00  0.00    +0.000 OA
BRANCH   7   9
ATOM      8  C   UNL     1       0.830   0.521  -0.024  0.00  0.00    +0.000 C 
ATOM      9  C   UNL     1       2.334   0.441  -0.210  0.00  0.00    +0.000 C 
ENDBRANCH   7   9
ENDBRANCH   1   7
BRANCH   4  10
ATOM     10  C   UNL     1       8.602   1.563   1.309  0.00  0.00    +0.000 C 
BRANCH  10  11
ATOM     11  C   UNL     1       9.118   2.785   0.545  0.00  0.00    +0.000 C 
BRANCH  11  12
ATOM     12  C   UNL     1      10.611   2.946   0.695  0.00  0.00    +0.000 A 
ATOM     13  C   UNL     1      11.488   2.277  -0.170  0.00  0.00    +0.000 A 
ATOM     14  C   UNL     1      12.869   2.410  -0.018  0.00  0.00    +0.000 A 
ATOM     15  C   UNL     1      13.386   3.209   1.001  0.00  0.00    +0.000 A 
ATOM     16  C   UNL     1      12.522   3.874   1.869  0.00  0.00    +0.000 A 
ATOM     17  C   UNL     1      11.141   3.741   1.719  0.00  0.00    +0.000 A 
ENDBRANCH  11  12
ENDBRANCH  10  11
ENDBRANCH   4  10
TORSDOF 5
