REMARK  Name = *****
REMARK  6 active torsions:
REMARK  status: ('A' for Active; 'I' for Inactive)
REMARK    1  A    between atoms: C_1  and  C_2
REMARK    2  A    between atoms: C_4  and  O_8
REMARK    3  A    between atoms: O_8  and  C_9
REMARK    4  A    between atoms: C_9  and  O_11
REMARK    5  A    between atoms: O_11  and  C_12
REMARK    6  A    between atoms: C_16  and  C_18
REMARK                            x       y       z     vdW  Elec       q    Type
REMARK                         _______ _______ _______ _____ _____    ______ ____
ROOT
ATOM      1  C   UNL     1      -1.663   3.307   0.922  0.00  0.00    +0.000 C 
ATOM      2  O   UNL     1      -0.935   3.198   1.901  0.00  0.00    +0.000 OA
ENDROOT
BRANCH   1   3
ATOM      3  O   UNL     1      -1.817   2.380  -0.099  0.00  0.00    +0.000 OA
BRANCH   3   7
ATOM      4  C   UNL     1       2.542   0.059  -0.279  0.00  0.00    +0.000 C 
ATOM      5  C   UNL     1       1.061   0.058  -0.040  0.00  0.00    +0.000 A 
ATOM      6  C   UNL     1       0.324   1.242  -0.155  0.00  0.00    +0.000 A 
ATOM      7  C   UNL     1      -1.055   1.218   0.056  0.00  0.00    +0.000 A 
ATOM      8  C   UNL     1      -1.725   0.029   0.331  0.00  0.00    +0.000 A 
ATOM      9  C   UNL     1      -0.997  -1.154   0.429  0.00  0.00    +0.000 A 
ATOM     10  C   UNL     1       0.389  -1.140   0.243  0.00  0.00    +0.000 A 
ENDBRANCH   3   7
ENDBRANCH   1   3
BRANCH   1  11
ATOM     11  O   UNL     1      -2.490   4.383   0.628  0.00  0.00    +0.000 OA
BRANCH  11  12
ATOM     12  C   UNL     1      -2.510   5.430   1.559  0.00  0.00    +0.000 A 
ATOM     13  C   UNL     1      -2.913   5.224   2.877  0.00  0.00    +0.000 A 
ATOM     14  C   UNL     1      -2.979   6.312   3.745  0.00  0.00    +0.000 A 
ATOM     15  C   UNL     1      -2.660   7.594   3.289  0.00  0.00    +0.000 A 
ATOM     16  C   UNL     1      -2.265   7.802   1.960  0.00  0.00    +0.000 A 
ATOM     17  C   UNL     1      -2.210   6.709   1.087  0.00  0.00    +0.000 A 
ATOM     18  C   UNL     1      -1.971   9.186   1.464  0.00  0.00    +0.000 C 
ENDBRANCH  11  12
ENDBRANCH   1  11
TORSDOF 4
