REMARK  Name = *****
REMARK  2 active torsions:
REMARK  status: ('A' for Active; 'I' for Inactive)
REMARK    1  A    between atoms: C_1  and  C_2
REMARK    2  A    between atoms: C_5  and  C_12
REMARK                            x       y       z     vdW  Elec       q    Type
REMARK                         _______ _______ _______ _____ _____    ______ ____
ROOT
ATOM      1  C   UNL     1       0.997   0.188  -0.242  0.00  0.00    +0.000 C 
ATOM      2  C   UNL     1       2.491   0.117  -0.062  0.00  0.00    +0.000 A 
ATOM      3  C   UNL     1       3.192  -1.122  -0.084  0.00  0.00    +0.000 A 
ATOM      4  C   UNL     1       2.566  -2.371  -0.272  0.00  0.00    +0.000 A 
ATOM      5  C   UNL     1       3.314  -3.543  -0.279  0.00  0.00    +0.000 A 
ATOM      6  N   UNL     1       4.648  -3.487  -0.095  0.00  0.00    +0.000 NA
ATOM      7  N   UNL     1       5.280  -2.278   0.087  0.00  0.00    +0.000 NA
ATOM      8  C   UNL     1       4.588  -1.131   0.092  0.00  0.00    +0.000 A 
ATOM      9  C   UNL     1       5.258   0.071   0.277  0.00  0.00    +0.000 A 
ATOM     10  C   UNL     1       4.581   1.289   0.295  0.00  0.00    +0.000 A 
ATOM     11  C   UNL     1       3.202   1.312   0.126  0.00  0.00    +0.000 A 
ENDROOT
BRANCH   5  12
ATOM     12  C   UNL     1       2.732  -4.884  -0.465  0.00  0.00    +0.000 A 
ATOM     13  C   UNL     1       1.623  -5.107  -1.303  0.00  0.00    +0.000 A 
ATOM     14  C   UNL     1       1.078  -6.386  -1.465  0.00  0.00    +0.000 A 
ATOM     15  C   UNL     1       1.634  -7.471  -0.794  0.00  0.00    +0.000 A 
ATOM     16  C   UNL     1       2.736  -7.281   0.034  0.00  0.00    +0.000 A 
ATOM     17  C   UNL     1       3.278  -6.002   0.193  0.00  0.00    +0.000 A 
ENDBRANCH   5  12
TORSDOF 1
