REMARK  Name = *****
REMARK  4 active torsions:
REMARK  status: ('A' for Active; 'I' for Inactive)
REMARK    1  A    between atoms: C_1  and  C_2
REMARK    2  A    between atoms: C_5  and  O_8
REMARK    3  A    between atoms: O_8  and  C_9
REMARK    4  A    between atoms: C_9  and  C_11
REMARK                            x       y       z     vdW  Elec       q    Type
REMARK                         _______ _______ _______ _____ _____    ______ ____
ROOT
ATOM      1  C   UNL     1      -3.928   1.126  -0.513  0.00  0.00    +0.000 C 
ATOM      2  O   UNL     1      -3.447   2.092  -1.085  0.00  0.00    +0.000 OA
ENDROOT
BRANCH   1   3
ATOM      3  C   UNL     1      -5.395   0.923  -0.359  0.00  0.00    +0.000 A 
ATOM      4  C   UNL     1      -5.943  -0.230   0.220  0.00  0.00    +0.000 A 
ATOM      5  C   UNL     1      -7.328  -0.356   0.330  0.00  0.00    +0.000 A 
ATOM      6  C   UNL     1      -8.175   0.652  -0.128  0.00  0.00    +0.000 A 
ATOM      7  C   UNL     1      -7.636   1.800  -0.704  0.00  0.00    +0.000 A 
ATOM      8  C   UNL     1      -6.251   1.935  -0.821  0.00  0.00    +0.000 A 
ATOM      9 CL   UNL     1      -7.999  -1.774   1.038  0.00  0.00    +0.000 Cl
ENDBRANCH   1   3
BRANCH   1  10
ATOM     10  O   UNL     1      -3.249   0.077   0.081  0.00  0.00    +0.000 OA
BRANCH  10  15
ATOM     11  C   UNL     1       2.442  -0.075   0.141  0.00  0.00    +0.000 C 
ATOM     12  C   UNL     1       0.944  -0.006   0.093  0.00  0.00    +0.000 A 
ATOM     13  C   UNL     1       0.274   1.144   0.534  0.00  0.00    +0.000 A 
ATOM     14  C   UNL     1      -1.120   1.202   0.523  0.00  0.00    +0.000 A 
ATOM     15  C   UNL     1      -1.845   0.106   0.060  0.00  0.00    +0.000 A 
ATOM     16  C   UNL     1      -1.199  -1.058  -0.349  0.00  0.00    +0.000 A 
ATOM     17  C   UNL     1       0.196  -1.112  -0.333  0.00  0.00    +0.000 A 
ENDBRANCH  10  15
ENDBRANCH   1  10
TORSDOF 3
