REMARK  Name = *****
REMARK  7 active torsions:
REMARK  status: ('A' for Active; 'I' for Inactive)
REMARK    1  A    between atoms: C_1  and  C_2
REMARK    2  A    between atoms: C_5  and  C_8
REMARK    3  A    between atoms: C_8  and  C_10
REMARK    4  A    between atoms: C_10  and  C_11
REMARK    5  A    between atoms: C_11  and  C_12
REMARK    6  A    between atoms: C_16  and  C_19
REMARK    7  A    between atoms: C_17  and  C_18
REMARK                            x       y       z     vdW  Elec       q    Type
REMARK                         _______ _______ _______ _____ _____    ______ ____
ROOT
ATOM      1  C   UNL     1      -4.030   1.315  -0.054  0.00  0.00    +0.000 C 
ENDROOT
BRANCH   1   2
ATOM      2  C   UNL     1      -3.285  -0.003   0.045  0.00  0.00    +0.000 C 
ATOM      3  O   UNL     1      -3.869  -1.083   0.114  0.00  0.00    +0.000 OA
BRANCH   2   8
ATOM      4  C   UNL     1       2.526  -0.064   0.148  0.00  0.00    +0.000 C 
ATOM      5  C   UNL     1       1.027  -0.039   0.089  0.00  0.00    +0.000 A 
ATOM      6  C   UNL     1       0.343   1.176  -0.030  0.00  0.00    +0.000 A 
ATOM      7  C   UNL     1      -1.056   1.208  -0.050  0.00  0.00    +0.000 A 
ATOM      8  C   UNL     1      -1.789   0.021   0.059  0.00  0.00    +0.000 A 
ATOM      9  C   UNL     1      -1.104  -1.194   0.192  0.00  0.00    +0.000 A 
ATOM     10  C   UNL     1       0.293  -1.223   0.213  0.00  0.00    +0.000 A 
ENDBRANCH   2   8
ENDBRANCH   1   2
BRANCH   1  11
ATOM     11  C   UNL     1      -5.545   1.113  -0.024  0.00  0.00    +0.000 C 
BRANCH  11  12
ATOM     12  C   UNL     1      -6.282   2.434  -0.129  0.00  0.00    +0.000 A 
ATOM     13  C   UNL     1      -6.534   3.135   1.063  0.00  0.00    +0.000 A 
ATOM     14  C   UNL     1      -7.200   4.355   1.047  0.00  0.00    +0.000 A 
ATOM     15  C   UNL     1      -7.633   4.889  -0.162  0.00  0.00    +0.000 A 
ATOM     16  C   UNL     1      -7.401   4.214  -1.371  0.00  0.00    +0.000 A 
ATOM     17  C   UNL     1      -6.693   2.987  -1.366  0.00  0.00    +0.000 A 
ATOM     18  C   UNL     1      -6.448   2.243  -2.657  0.00  0.00    +0.000 C 
ATOM     19  C   UNL     1      -7.908   4.839  -2.644  0.00  0.00    +0.000 C 
ENDBRANCH  11  12
ENDBRANCH   1  11
TORSDOF 4
