REMARK  Name = *****
REMARK  4 active torsions:
REMARK  status: ('A' for Active; 'I' for Inactive)
REMARK    1  A    between atoms: C_4  and  C_7
REMARK    2  A    between atoms: N_8  and  O_9
REMARK    3  A    between atoms: O_9  and  C_10
REMARK    4  A    between atoms: C_10  and  C_11
REMARK                            x       y       z     vdW  Elec       q    Type
REMARK                         _______ _______ _______ _____ _____    ______ ____
ROOT
ATOM      1  O   UNL     1      -3.442  -1.590   0.176  0.00  0.00    +0.000 OA
ENDROOT
BRANCH   1   3
ATOM      2  C   UNL     1      -2.521   0.191  -0.836  0.00  0.00    +0.000 C 
ATOM      3  N   UNL     1      -3.549  -0.606  -0.814  0.00  0.00    +0.000 NA
BRANCH   2   7
ATOM      4  C   UNL     1       1.144   0.151   1.353  0.00  0.00    +0.000 A 
ATOM      5  C   UNL     1       0.564  -1.061   0.976  0.00  0.00    +0.000 A 
ATOM      6  C   UNL     1      -0.640  -1.070   0.268  0.00  0.00    +0.000 A 
ATOM      7  C   UNL     1      -1.270   0.135  -0.051  0.00  0.00    +0.000 A 
ATOM      8  C   UNL     1      -0.676   1.351   0.309  0.00  0.00    +0.000 A 
ATOM      9  C   UNL     1       0.527   1.356   1.017  0.00  0.00    +0.000 A 
ENDBRANCH   2   7
ENDBRANCH   1   3
BRANCH   1  10
ATOM     10  C   UNL     1      -4.562  -2.468   0.080  0.00  0.00    +0.000 C 
BRANCH  10  11
ATOM     11  C   UNL     1      -4.477  -3.480   1.193  0.00  0.00    +0.000 A 
ATOM     12  C   UNL     1      -5.243  -3.283   2.356  0.00  0.00    +0.000 A 
ATOM     13  C   UNL     1      -5.180  -4.186   3.419  0.00  0.00    +0.000 A 
ATOM     14  C   UNL     1      -4.344  -5.297   3.340  0.00  0.00    +0.000 A 
ATOM     15  C   UNL     1      -3.568  -5.500   2.200  0.00  0.00    +0.000 A 
ATOM     16  C   UNL     1      -3.629  -4.596   1.134  0.00  0.00    +0.000 A 
ATOM     17 CL   UNL     1      -2.627  -4.912  -0.238  0.00  0.00    +0.000 Cl
ENDBRANCH  10  11
ENDBRANCH   1  10
TORSDOF 4
