REMARK  Name = *****
REMARK  4 active torsions:
REMARK  status: ('A' for Active; 'I' for Inactive)
REMARK    1  A    between atoms: C_4  and  C_7
REMARK    2  A    between atoms: C_8  and  C_9
REMARK    3  A    between atoms: C_12  and  C_15
REMARK    4  A    between atoms: C_15  and  N_17
REMARK                            x       y       z     vdW  Elec       q    Type
REMARK                         _______ _______ _______ _____ _____    ______ ____
ROOT
ATOM      1  C   UNL     1       2.046   0.004  -0.015  0.00  0.00    +0.000 A 
ATOM      2  C   UNL     1       2.742   1.215  -0.049  0.00  0.00    +0.000 A 
ATOM      3  C   UNL     1       4.140   1.221  -0.055  0.00  0.00    +0.000 A 
ATOM      4  C   UNL     1       4.849   0.013  -0.030  0.00  0.00    +0.000 A 
ATOM      5  C   UNL     1       4.146  -1.200   0.007  0.00  0.00    +0.000 A 
ATOM      6  C   UNL     1       2.748  -1.202   0.015  0.00  0.00    +0.000 A 
ENDROOT
BRANCH   1   8
ATOM      7  C   UNL     1      -0.586   0.003  -0.008  0.00  0.00    +0.000 C 
ATOM      8  C   UNL     1       0.616   0.001  -0.010  0.00  0.00    +0.000 C 
BRANCH   7  12
ATOM      9  C   UNL     1      -4.809   0.027  -0.006  0.00  0.00    +0.000 A 
ATOM     10  C   UNL     1      -4.119  -1.185   0.025  0.00  0.00    +0.000 A 
ATOM     11  C   UNL     1      -2.723  -1.194   0.025  0.00  0.00    +0.000 A 
ATOM     12  C   UNL     1      -2.016   0.011  -0.006  0.00  0.00    +0.000 A 
ATOM     13  C   UNL     1      -2.709   1.223  -0.037  0.00  0.00    +0.000 A 
ATOM     14  C   UNL     1      -4.105   1.231  -0.037  0.00  0.00    +0.000 A 
ENDBRANCH   7  12
ENDBRANCH   1   8
BRANCH   4  15
ATOM     15  C   UNL     1       6.333  -0.000  -0.048  0.00  0.00    +0.000 C 
ATOM     16  S   UNL     1       7.317   1.012   0.843  0.00  0.00    +0.000 S 
BRANCH  15  17
ATOM     17  N   UNL     1       6.916  -0.926  -0.876  0.00  0.00    +0.000 N 
ATOM     18  H   UNL     1       6.353  -1.532  -1.410  0.00  0.00    +0.000 HD
ATOM     19  H   UNL     1       7.897  -0.983  -0.937  0.00  0.00    +0.000 HD
ENDBRANCH  15  17
ENDBRANCH   4  15
TORSDOF 4
