REMARK  Name = *****
REMARK  3 active torsions:
REMARK  status: ('A' for Active; 'I' for Inactive)
REMARK    1  A    between atoms: C_5  and  O_6
REMARK    2  A    between atoms: O_6  and  C_7
REMARK    3  A    between atoms: C_7  and  C_8
REMARK                            x       y       z     vdW  Elec       q    Type
REMARK                         _______ _______ _______ _____ _____    ______ ____
ROOT
ATOM      1  C   UNL     1       1.603   0.510   1.158  0.00  0.00    +0.000 C 
ATOM      2  C   UNL     1       2.824   0.493   2.087  0.00  0.00    +0.000 C 
ATOM      3  C   UNL     1       3.263  -0.989   1.970  0.00  0.00    +0.000 C 
ATOM      4  C   UNL     1       2.964  -1.251   0.496  0.00  0.00    +0.000 C 
ATOM      5  C   UNL     1       3.124  -2.404  -0.157  0.00  0.00    +0.000 C 
ATOM      6  C   UNL     1       2.401   0.043  -0.065  0.00  0.00    +0.000 C 
ATOM      7  C   UNL     1       3.499   1.083  -0.033  0.00  0.00    +0.000 C 
ATOM      8  C   UNL     1       3.757   1.356   1.258  0.00  0.00    +0.000 C 
ENDROOT
BRANCH   5   9
ATOM      9  O   UNL     1       3.618  -3.520   0.461  0.00  0.00    +0.000 OA
BRANCH   9  10
ATOM     10  C   UNL     1       3.505  -4.700  -0.340  0.00  0.00    +0.000 C 
BRANCH  10  11
ATOM     11  C   UNL     1       3.927  -5.903   0.467  0.00  0.00    +0.000 A 
ATOM     12  C   UNL     1       3.412  -6.115   1.755  0.00  0.00    +0.000 A 
ATOM     13  C   UNL     1       3.774  -7.245   2.489  0.00  0.00    +0.000 A 
ATOM     14  C   UNL     1       4.651  -8.180   1.942  0.00  0.00    +0.000 A 
ATOM     15  C   UNL     1       5.163  -7.986   0.661  0.00  0.00    +0.000 A 
ATOM     16  C   UNL     1       4.801  -6.856  -0.075  0.00  0.00    +0.000 A 
ENDBRANCH  10  11
ENDBRANCH   9  10
ENDBRANCH   5   9
TORSDOF 3
