REMARK  Name = *****
REMARK  6 active torsions:
REMARK  status: ('A' for Active; 'I' for Inactive)
REMARK    1  A    between atoms: C_1  and  C_2
REMARK    2  A    between atoms: C_5  and  N_8
REMARK    3  A    between atoms: C_9  and  C_10
REMARK    4  A    between atoms: C_9  and  O_16
REMARK    5  A    between atoms: O_16  and  C_17
REMARK    6  A    between atoms: C_17  and  C_18
REMARK                            x       y       z     vdW  Elec       q    Type
REMARK                         _______ _______ _______ _____ _____    ______ ____
ROOT
ATOM      1  N   UNL     1      -3.387   0.306   0.489  0.00  0.00    +0.000 NA
ATOM      2  C   UNL     1      -4.145   1.134  -0.160  0.00  0.00    +0.000 C 
ENDROOT
BRANCH   1   7
ATOM      3  C   UNL     1       2.301   0.181  -0.028  0.00  0.00    +0.000 C 
ATOM      4  C   UNL     1       0.807   0.245   0.091  0.00  0.00    +0.000 A 
ATOM      5  C   UNL     1       0.207   0.554   1.317  0.00  0.00    +0.000 A 
ATOM      6  C   UNL     1      -1.185   0.579   1.436  0.00  0.00    +0.000 A 
ATOM      7  C   UNL     1      -1.997   0.302   0.334  0.00  0.00    +0.000 A 
ATOM      8  C   UNL     1      -1.398  -0.048  -0.879  0.00  0.00    +0.000 A 
ATOM      9  C   UNL     1      -0.006  -0.073  -1.002  0.00  0.00    +0.000 A 
ENDBRANCH   1   7
BRANCH   2  10
ATOM     10  C   UNL     1      -5.633   1.038  -0.113  0.00  0.00    +0.000 A 
ATOM     11  C   UNL     1      -6.220   0.038   0.677  0.00  0.00    +0.000 A 
ATOM     12  C   UNL     1      -7.609  -0.083   0.752  0.00  0.00    +0.000 A 
ATOM     13  C   UNL     1      -8.425   0.793   0.038  0.00  0.00    +0.000 A 
ATOM     14  C   UNL     1      -7.853   1.789  -0.751  0.00  0.00    +0.000 A 
ATOM     15  C   UNL     1      -6.462   1.912  -0.827  0.00  0.00    +0.000 A 
ENDBRANCH   2  10
BRANCH   2  16
ATOM     16  O   UNL     1      -3.745   2.146  -0.971  0.00  0.00    +0.000 OA
BRANCH  16  17
ATOM     17  C   UNL     1      -2.869   3.118  -0.382  0.00  0.00    +0.000 C 
BRANCH  17  18
ATOM     18  C   UNL     1      -3.116   4.485  -0.963  0.00  0.00    +0.000 C 
ATOM     19  C   UNL     1      -3.849   4.783  -2.044  0.00  0.00    +0.000 C 
ENDBRANCH  17  18
ENDBRANCH  16  17
ENDBRANCH   2  16
TORSDOF 5
