REMARK  Name = *****
REMARK  3 active torsions:
REMARK  status: ('A' for Active; 'I' for Inactive)
REMARK    1  A    between atoms: C_4  and  C_7
REMARK    2  A    between atoms: C_7  and  C_8
REMARK    3  A    between atoms: C_8  and  C_10
REMARK                            x       y       z     vdW  Elec       q    Type
REMARK                         _______ _______ _______ _____ _____    ______ ____
ROOT
ATOM      1  C   UNL     1       2.541   0.043  -0.205  0.00  0.00    +0.000 C 
ATOM      2 BR   UNL     1       3.761  -1.471   0.116  0.00  0.00    +0.000 Br
ENDROOT
BRANCH   1   6
ATOM      3  C   UNL     1      -1.831  -0.455  -0.124  0.00  0.00    +0.000 C 
ATOM      4  C   UNL     1      -0.963  -1.704  -0.050  0.00  0.00    +0.000 C 
ATOM      5  C   UNL     1       0.470  -1.425  -0.498  0.00  0.00    +0.000 C 
ATOM      6  C   UNL     1       1.121  -0.276   0.302  0.00  0.00    +0.000 C 
ATOM      7  C   UNL     1       0.219   0.976   0.216  0.00  0.00    +0.000 C 
ATOM      8  C   UNL     1      -1.212   0.692   0.664  0.00  0.00    +0.000 C 
ENDBRANCH   1   6
BRANCH   1   9
ATOM      9  C   UNL     1       3.193   1.203   0.540  0.00  0.00    +0.000 C 
ATOM     10  O   UNL     1       3.225   1.266   1.770  0.00  0.00    +0.000 OA
BRANCH   9  11
ATOM     11  C   UNL     1       3.844   2.290  -0.244  0.00  0.00    +0.000 A 
ATOM     12  C   UNL     1       3.375   2.691  -1.500  0.00  0.00    +0.000 A 
ATOM     13  C   UNL     1       4.020   3.723  -2.188  0.00  0.00    +0.000 A 
ATOM     14  C   UNL     1       5.124   4.361  -1.623  0.00  0.00    +0.000 A 
ATOM     15  C   UNL     1       5.583   3.976  -0.364  0.00  0.00    +0.000 A 
ATOM     16  C   UNL     1       4.943   2.946   0.326  0.00  0.00    +0.000 A 
ENDBRANCH   9  11
ENDBRANCH   1   9
TORSDOF 3
