REMARK  Name = *****
REMARK  5 active torsions:
REMARK  status: ('A' for Active; 'I' for Inactive)
REMARK    1  A    between atoms: C_1  and  C_2
REMARK    2  A    between atoms: C_5  and  C_8
REMARK    3  A    between atoms: C_8  and  O_9
REMARK    4  A    between atoms: O_9  and  C_10
REMARK    5  A    between atoms: C_15  and  C_16
REMARK                            x       y       z     vdW  Elec       q    Type
REMARK                         _______ _______ _______ _____ _____    ______ ____
ROOT
ATOM      1  C   UNL     1      -3.288  -0.153   0.238  0.00  0.00    +0.000 C 
ENDROOT
BRANCH   1   6
ATOM      2  C   UNL     1       2.472   0.278  -0.547  0.00  0.00    +0.000 C 
ATOM      3  C   UNL     1       0.992   0.154  -0.334  0.00  0.00    +0.000 A 
ATOM      4  C   UNL     1       0.454   0.086   0.955  0.00  0.00    +0.000 A 
ATOM      5  C   UNL     1      -0.927  -0.013   1.143  0.00  0.00    +0.000 A 
ATOM      6  C   UNL     1      -1.795  -0.044   0.044  0.00  0.00    +0.000 A 
ATOM      7  C   UNL     1      -1.254   0.037  -1.246  0.00  0.00    +0.000 A 
ATOM      8  C   UNL     1       0.127   0.135  -1.434  0.00  0.00    +0.000 A 
ENDBRANCH   1   6
BRANCH   1   9
ATOM      9  O   UNL     1      -3.883   1.077  -0.166  0.00  0.00    +0.000 OA
BRANCH   9  10
ATOM     10  C   UNL     1      -5.249   1.170  -0.109  0.00  0.00    +0.000 A 
ATOM     11  C   UNL     1      -6.102   0.172   0.374  0.00  0.00    +0.000 A 
ATOM     12  C   UNL     1      -7.484   0.372   0.395  0.00  0.00    +0.000 A 
ATOM     13  C   UNL     1      -8.025   1.569  -0.065  0.00  0.00    +0.000 A 
ATOM     14  C   UNL     1      -7.184   2.569  -0.548  0.00  0.00    +0.000 A 
ATOM     15  C   UNL     1      -5.794   2.380  -0.578  0.00  0.00    +0.000 A 
ATOM     16  C   UNL     1      -4.903   3.475  -1.094  0.00  0.00    +0.000 C 
ENDBRANCH   9  10
ENDBRANCH   1   9
TORSDOF 3
