REMARK  Name = *****
REMARK  1 active torsions:
REMARK  status: ('A' for Active; 'I' for Inactive)
REMARK    1  A    between atoms: C_10  and  C_12
REMARK                            x       y       z     vdW  Elec       q    Type
REMARK                         _______ _______ _______ _____ _____    ______ ____
ROOT
ATOM      1  C   UNL     1       0.600   1.539   0.794  0.00  0.00    +0.000 C 
ATOM      2  C   UNL     1      -0.531   0.575   0.534  0.00  0.00    +0.000 A 
ATOM      3  C   UNL     1      -1.847   1.069   0.494  0.00  0.00    +0.000 A 
ATOM      4  C   UNL     1      -2.926   0.223   0.239  0.00  0.00    +0.000 A 
ATOM      5  C   UNL     1      -2.706  -1.130   0.012  0.00  0.00    +0.000 A 
ATOM      6  C   UNL     1      -1.407  -1.637   0.040  0.00  0.00    +0.000 A 
ATOM      7  C   UNL     1      -0.307  -0.800   0.304  0.00  0.00    +0.000 A 
ATOM      8  C   UNL     1       1.078  -1.399   0.303  0.00  0.00    +0.000 C 
ATOM      9  S   UNL     1       2.002  -1.011  -1.207  0.00  0.00    +0.000 S 
ATOM     10  C   UNL     1       2.733   0.591  -0.720  0.00  0.00    +0.000 C 
ATOM     11  S   UNL     1       1.519   1.956  -0.711  0.00  0.00    +0.000 S 
ENDROOT
BRANCH  10  12
ATOM     12  C   UNL     1       3.915   0.935  -1.619  0.00  0.00    +0.000 A 
ATOM     13  C   UNL     1       3.763   1.131  -3.004  0.00  0.00    +0.000 A 
ATOM     14  C   UNL     1       4.860   1.448  -3.808  0.00  0.00    +0.000 A 
ATOM     15  C   UNL     1       6.126   1.574  -3.242  0.00  0.00    +0.000 A 
ATOM     16  C   UNL     1       6.297   1.385  -1.873  0.00  0.00    +0.000 A 
ATOM     17  C   UNL     1       5.201   1.068  -1.067  0.00  0.00    +0.000 A 
ENDBRANCH  10  12
TORSDOF 1
