REMARK  Name = *****
REMARK  2 active torsions:
REMARK  status: ('A' for Active; 'I' for Inactive)
REMARK    1  A    between atoms: C_3  and  C_8
REMARK    2  A    between atoms: C_9  and  C_10
REMARK                            x       y       z     vdW  Elec       q    Type
REMARK                         _______ _______ _______ _____ _____    ______ ____
ROOT
ATOM      1  C   UNL     1      -1.962   2.464   0.008  0.00  0.00    +0.000 C 
ATOM      2  C   UNL     1      -1.410   3.688  -0.048  0.00  0.00    +0.000 C 
ENDROOT
BRANCH   2   3
ATOM      3  C   UNL     1      -2.175   4.945  -0.022  0.00  0.00    +0.000 A 
ATOM      4  C   UNL     1      -1.615   6.078   0.590  0.00  0.00    +0.000 A 
ATOM      5  C   UNL     1      -2.283   7.298   0.617  0.00  0.00    +0.000 A 
ATOM      6  C   UNL     1      -3.526   7.395   0.012  0.00  0.00    +0.000 A 
ATOM      7  C   UNL     1      -4.103   6.298  -0.619  0.00  0.00    +0.000 A 
ATOM      8  C   UNL     1      -3.426   5.075  -0.642  0.00  0.00    +0.000 A 
ATOM      9  F   UNL     1      -4.179   8.564   0.028  0.00  0.00    +0.000 F 
ATOM     10  F   UNL     1      -0.408   6.001   1.172  0.00  0.00    +0.000 F 
ENDBRANCH   2   3
BRANCH   1  13
ATOM     11  C   UNL     1      -1.073  -1.140  -0.643  0.00  0.00    +0.000 A 
ATOM     12  C   UNL     1      -1.755   0.080  -0.622  0.00  0.00    +0.000 A 
ATOM     13  C   UNL     1      -1.190   1.212  -0.013  0.00  0.00    +0.000 A 
ATOM     14  C   UNL     1       0.062   1.089   0.602  0.00  0.00    +0.000 A 
ATOM     15  C   UNL     1       0.733  -0.130   0.576  0.00  0.00    +0.000 A 
ATOM     16  C   UNL     1       0.179  -1.244  -0.043  0.00  0.00    +0.000 A 
ATOM     17  F   UNL     1       1.932  -0.234   1.163  0.00  0.00    +0.000 F 
ENDBRANCH   1  13
TORSDOF 2
