REMARK  Name = *****
REMARK  5 active torsions:
REMARK  status: ('A' for Active; 'I' for Inactive)
REMARK    1  A    between atoms: C_3  and  C_9
REMARK    2  A    between atoms: C_5  and  N_7
REMARK    3  A    between atoms: C_10  and  C_11
REMARK    4  A    between atoms: C_10  and  C_13
REMARK    5  A    between atoms: C_16  and  N_19
REMARK                            x       y       z     vdW  Elec       q    Type
REMARK                         _______ _______ _______ _____ _____    ______ ____
ROOT
ATOM      1  C   UNL     1       2.013   2.628   0.333  0.00  0.00    +0.000 C 
ATOM      2  C   UNL     1       1.474   3.784  -0.118  0.00  0.00    +0.000 C 
ENDROOT
BRANCH   1   5
ATOM      3  C   UNL     1       1.633  -1.048  -0.427  0.00  0.00    +0.000 A 
ATOM      4  C   UNL     1       2.165   0.239  -0.289  0.00  0.00    +0.000 A 
ATOM      5  C   UNL     1       1.400   1.286   0.246  0.00  0.00    +0.000 A 
ATOM      6  C   UNL     1       0.095   1.011   0.681  0.00  0.00    +0.000 A 
ATOM      7  C   UNL     1      -0.437  -0.277   0.515  0.00  0.00    +0.000 A 
ATOM      8  C   UNL     1       0.323  -1.312  -0.034  0.00  0.00    +0.000 A 
BRANCH   7   9
ATOM      9  N   UNL     1      -1.754  -0.528   0.896  0.00  0.00    +0.000 NA
ATOM     10  N   UNL     1      -2.780  -0.720   1.203  0.00  0.00    +0.000 NA
ENDBRANCH   7   9
ENDBRANCH   1   5
BRANCH   2  11
ATOM     11  C   UNL     1       2.247   5.049  -0.037  0.00  0.00    +0.000 A 
ATOM     12  C   UNL     1       2.425   5.844  -1.186  0.00  0.00    +0.000 A 
ATOM     13  C   UNL     1       3.126   7.055  -1.127  0.00  0.00    +0.000 A 
ATOM     14  C   UNL     1       3.654   7.482   0.094  0.00  0.00    +0.000 A 
ATOM     15  C   UNL     1       3.492   6.711   1.251  0.00  0.00    +0.000 A 
ATOM     16  C   UNL     1       2.789   5.500   1.179  0.00  0.00    +0.000 A 
BRANCH  14  17
ATOM     17  N   UNL     1       4.345   8.693   0.160  0.00  0.00    +0.000 NA
ATOM     18  N   UNL     1       4.886   9.635   0.214  0.00  0.00    +0.000 NA
ENDBRANCH  14  17
ENDBRANCH   2  11
BRANCH   2  19
ATOM     19  C   UNL     1       0.176   3.809  -0.721  0.00  0.00    +0.000 C 
ATOM     20  N   UNL     1      -0.897   3.758  -1.157  0.00  0.00    +0.000 NA
ENDBRANCH   2  19
TORSDOF 5
