REMARK  Name = *****
REMARK  1 active torsions:
REMARK  status: ('A' for Active; 'I' for Inactive)
REMARK    1  A    between atoms: C_8  and  C_11
REMARK                            x       y       z     vdW  Elec       q    Type
REMARK                         _______ _______ _______ _____ _____    ______ ____
ROOT
ATOM      1  C   UNL     1       0.524   1.309  -0.486  0.00  0.00    +0.000 C 
ATOM      2  C   UNL     1       1.769   1.364   0.389  0.00  0.00    +0.000 C 
ATOM      3  S   UNL     1       2.913   0.011   0.005  0.00  0.00    +0.000 S 
ATOM      4  C   UNL     1       1.778  -1.377   0.280  0.00  0.00    +0.000 C 
ATOM      5  C   UNL     1       0.532  -1.260  -0.588  0.00  0.00    +0.000 C 
ATOM      6  C   UNL     1      -0.283   0.014  -0.331  0.00  0.00    +0.000 C 
ATOM      7  C   UNL     1      -1.514   0.044  -1.178  0.00  0.00    +0.000 C 
ATOM      8  C   UNL     1      -2.546   0.010  -0.331  0.00  0.00    +0.000 C 
ATOM      9  N   UNL     1      -2.126  -0.046   0.977  0.00  0.00    +0.000 NA
ATOM     10  N   UNL     1      -0.865  -0.044   1.041  0.00  0.00    +0.000 NA
ENDROOT
BRANCH   8  11
ATOM     11  C   UNL     1      -3.975   0.002  -0.692  0.00  0.00    +0.000 A 
ATOM     12  C   UNL     1      -4.930  -0.453   0.232  0.00  0.00    +0.000 A 
ATOM     13  C   UNL     1      -6.292  -0.463  -0.084  0.00  0.00    +0.000 A 
ATOM     14  C   UNL     1      -6.722  -0.013  -1.328  0.00  0.00    +0.000 A 
ATOM     15  C   UNL     1      -5.792   0.451  -2.255  0.00  0.00    +0.000 A 
ATOM     16  C   UNL     1      -4.430   0.460  -1.939  0.00  0.00    +0.000 A 
ENDBRANCH   8  11
TORSDOF 1
