REMARK  Name = *****
REMARK  6 active torsions:
REMARK  status: ('A' for Active; 'I' for Inactive)
REMARK    1  A    between atoms: C_1  and  C_2
REMARK    2  A    between atoms: C_3  and  C_9
REMARK    3  A    between atoms: C_4  and  C_8
REMARK    4  A    between atoms: C_9  and  C_10
REMARK    5  A    between atoms: C_10  and  C_11
REMARK    6  A    between atoms: C_11  and  C_13
REMARK                            x       y       z     vdW  Elec       q    Type
REMARK                         _______ _______ _______ _____ _____    ______ ____
ROOT
ATOM      1  C   UNL     1       1.466   3.115  -0.030  0.00  0.00    +0.000 C 
ENDROOT
BRANCH   1   2
ATOM      2  C   UNL     1       1.432   4.621   0.146  0.00  0.00    +0.000 C 
ATOM      3  O   UNL     1       0.382   5.242   0.296  0.00  0.00    +0.000 OA
BRANCH   2   4
ATOM      4  C   UNL     1       2.726   5.373   0.137  0.00  0.00    +0.000 A 
ATOM      5  C   UNL     1       3.960   4.742  -0.080  0.00  0.00    +0.000 A 
ATOM      6  C   UNL     1       5.140   5.492  -0.077  0.00  0.00    +0.000 A 
ATOM      7  C   UNL     1       5.087   6.864   0.141  0.00  0.00    +0.000 A 
ATOM      8  C   UNL     1       3.874   7.506   0.357  0.00  0.00    +0.000 A 
ATOM      9  C   UNL     1       2.692   6.761   0.354  0.00  0.00    +0.000 A 
ATOM     10  F   UNL     1       6.220   7.576   0.143  0.00  0.00    +0.000 F 
ENDBRANCH   2   4
ENDBRANCH   1   2
BRANCH   1  11
ATOM     11  C   UNL     1       0.067   2.502   0.060  0.00  0.00    +0.000 C 
BRANCH  11  14
ATOM     12  C   UNL     1       0.353   0.720   2.446  0.00  0.00    +0.000 C 
ATOM     13  C   UNL     1       0.275   0.161   1.049  0.00  0.00    +0.000 A 
ATOM     14  C   UNL     1       0.108   0.990  -0.089  0.00  0.00    +0.000 A 
ATOM     15  C   UNL     1       0.012   0.393  -1.372  0.00  0.00    +0.000 A 
ATOM     16  C   UNL     1       0.073  -1.004  -1.492  0.00  0.00    +0.000 A 
ATOM     17  C   UNL     1       0.234  -1.811  -0.371  0.00  0.00    +0.000 A 
ATOM     18  C   UNL     1       0.331  -1.232   0.890  0.00  0.00    +0.000 A 
ATOM     19  C   UNL     1      -0.196   1.206  -2.623  0.00  0.00    +0.000 C 
ENDBRANCH  11  14
ENDBRANCH   1  11
TORSDOF 4
