REMARK  Name = *****
REMARK  2 active torsions:
REMARK  status: ('A' for Active; 'I' for Inactive)
REMARK    1  A    between atoms: C_5  and  C_7
REMARK    2  A    between atoms: C_8  and  C_9
REMARK                            x       y       z     vdW  Elec       q    Type
REMARK                         _______ _______ _______ _____ _____    ______ ____
ROOT
ATOM      1  C   UNL     1      -0.525  -1.227   0.030  0.00  0.00    +0.000 A 
ATOM      2  C   UNL     1      -1.301  -0.070   0.063  0.00  0.00    +0.000 A 
ATOM      3  C   UNL     1      -0.688   1.182   0.012  0.00  0.00    +0.000 A 
ATOM      4  C   UNL     1       0.705   1.279  -0.077  0.00  0.00    +0.000 A 
ATOM      5  C   UNL     1       1.491   0.119  -0.115  0.00  0.00    +0.000 A 
ATOM      6  C   UNL     1       0.866  -1.133  -0.059  0.00  0.00    +0.000 A 
ATOM      7 BR   UNL     1       1.465   3.020  -0.144  0.00  0.00    +0.000 Br
ENDROOT
BRANCH   5   8
ATOM      8  C   UNL     1       2.919   0.164  -0.224  0.00  0.00    +0.000 C 
ATOM      9  C   UNL     1       4.114   0.216  -0.333  0.00  0.00    +0.000 C 
BRANCH   9  10
ATOM     10  C   UNL     1       5.532   0.301  -0.484  0.00  0.00    +0.000 A 
ATOM     11  C   UNL     1       6.204   1.500  -0.562  0.00  0.00    +0.000 A 
ATOM     12  S   UNL     1       7.892   1.281  -0.753  0.00  0.00    +0.000 S 
ATOM     13  C   UNL     1       7.726  -0.423  -0.731  0.00  0.00    +0.000 A 
ATOM     14  C   UNL     1       6.413  -0.814  -0.580  0.00  0.00    +0.000 A 
ENDBRANCH   9  10
ENDBRANCH   5   8
TORSDOF 2
