REMARK  Name = *****
REMARK  4 active torsions:
REMARK  status: ('A' for Active; 'I' for Inactive)
REMARK    1  A    between atoms: C_1  and  C_2
REMARK    2  A    between atoms: C_7  and  C_8
REMARK    3  A    between atoms: C_8  and  C_16
REMARK    4  A    between atoms: N_9  and  C_10
REMARK                            x       y       z     vdW  Elec       q    Type
REMARK                         _______ _______ _______ _____ _____    ______ ____
ROOT
ATOM      1  C   UNL     1       1.007  -2.550   0.340  0.00  0.00    +0.000 C 
ATOM      2  N   UNL     1       0.427  -3.629  -0.116  0.00  0.00    +0.000 NA
ENDROOT
BRANCH   1   9
ATOM      3  C   UNL     1       1.426  -0.227  -1.506  0.00  0.00    +0.000 C 
ATOM      4  C   UNL     1       0.524  -0.159  -0.307  0.00  0.00    +0.000 A 
ATOM      5  C   UNL     1      -0.119   1.051  -0.008  0.00  0.00    +0.000 A 
ATOM      6  C   UNL     1      -0.952   1.164   1.109  0.00  0.00    +0.000 A 
ATOM      7  C   UNL     1      -1.147   0.072   1.951  0.00  0.00    +0.000 A 
ATOM      8  C   UNL     1      -0.505  -1.135   1.683  0.00  0.00    +0.000 A 
ATOM      9  C   UNL     1       0.327  -1.248   0.561  0.00  0.00    +0.000 A 
ENDBRANCH   1   9
BRANCH   2  10
ATOM     10  C   UNL     1      -0.936  -3.627  -0.442  0.00  0.00    +0.000 A 
ATOM     11  C   UNL     1      -1.388  -3.109  -1.659  0.00  0.00    +0.000 A 
ATOM     12  C   UNL     1      -2.748  -3.132  -1.977  0.00  0.00    +0.000 A 
ATOM     13  C   UNL     1      -3.662  -3.692  -1.086  0.00  0.00    +0.000 A 
ATOM     14  C   UNL     1      -3.216  -4.239   0.116  0.00  0.00    +0.000 A 
ATOM     15  C   UNL     1      -1.857  -4.213   0.432  0.00  0.00    +0.000 A 
ENDBRANCH   2  10
BRANCH   1  16
ATOM     16  C   UNL     1       2.495  -2.562   0.676  0.00  0.00    +0.000 C 
ATOM     17  F   UNL     1       2.866  -1.550   1.510  0.00  0.00    +0.000 F 
ATOM     18  F   UNL     1       2.886  -3.714   1.289  0.00  0.00    +0.000 F 
ATOM     19  F   UNL     1       3.270  -2.436  -0.437  0.00  0.00    +0.000 F 
ENDBRANCH   1  16
TORSDOF 3
