REMARK  Name = *****
REMARK  2 active torsions:
REMARK  status: ('A' for Active; 'I' for Inactive)
REMARK    1  A    between atoms: C_4  and  C_7
REMARK    2  A    between atoms: C_8  and  C_9
REMARK                            x       y       z     vdW  Elec       q    Type
REMARK                         _______ _______ _______ _____ _____    ______ ____
ROOT
ATOM      1  C   UNL     1      -2.815   0.495  -0.335  0.00  0.00    +0.000 C 
ATOM      2  C   UNL     1      -3.769  -0.452  -0.324  0.00  0.00    +0.000 C 
ENDROOT
BRANCH   1   6
ATOM      3  C   UNL     1       1.367  -0.222   0.201  0.00  0.00    +0.000 A 
ATOM      4  C   UNL     1       0.618  -1.087  -0.594  0.00  0.00    +0.000 A 
ATOM      5  C   UNL     1      -0.750  -0.868  -0.772  0.00  0.00    +0.000 A 
ATOM      6  C   UNL     1      -1.385   0.213  -0.147  0.00  0.00    +0.000 A 
ATOM      7  C   UNL     1      -0.619   1.086   0.637  0.00  0.00    +0.000 A 
ATOM      8  C   UNL     1       0.749   0.866   0.815  0.00  0.00    +0.000 A 
ENDBRANCH   1   6
BRANCH   2   9
ATOM      9  C   UNL     1      -5.179  -0.250  -0.494  0.00  0.00    +0.000 A 
ATOM     10  C   UNL     1      -5.792   0.964  -0.732  0.00  0.00    +0.000 A 
ATOM     11  S   UNL     1      -7.493   0.822  -0.883  0.00  0.00    +0.000 S 
ATOM     12  C   UNL     1      -7.427  -0.867  -0.633  0.00  0.00    +0.000 A 
ATOM     13  C   UNL     1      -6.137  -1.310  -0.439  0.00  0.00    +0.000 A 
ENDBRANCH   2   9
TORSDOF 2
