REMARK  Name = *****
REMARK  3 active torsions:
REMARK  status: ('A' for Active; 'I' for Inactive)
REMARK    1  A    between atoms: C_6  and  C_7
REMARK    2  A    between atoms: C_7  and  N_9
REMARK    3  A    between atoms: N_9  and  C_10
REMARK                            x       y       z     vdW  Elec       q    Type
REMARK                         _______ _______ _______ _____ _____    ______ ____
ROOT
ATOM      1  N   UNL     1      -4.157   0.720   0.374  0.00  0.00    +0.000 N 
ATOM      2  H   UNL     1      -3.691   1.451  -0.093  0.00  0.00    +0.000 HD
ENDROOT
BRANCH   1   3
ATOM      3  C   UNL     1      -5.516   1.001   0.655  0.00  0.00    +0.000 A 
ATOM      4  C   UNL     1      -6.345   0.256   1.493  0.00  0.00    +0.000 A 
ATOM      5  C   UNL     1      -7.669   0.648   1.704  0.00  0.00    +0.000 A 
ATOM      6  C   UNL     1      -8.195   1.780   1.102  0.00  0.00    +0.000 A 
ATOM      7  C   UNL     1      -7.370   2.528   0.282  0.00  0.00    +0.000 A 
ATOM      8  C   UNL     1      -6.045   2.156   0.059  0.00  0.00    +0.000 A 
ATOM      9  F   UNL     1      -7.848   3.632  -0.307  0.00  0.00    +0.000 F 
ATOM     10  F   UNL     1      -8.446  -0.080   2.517  0.00  0.00    +0.000 F 
ENDBRANCH   1   3
BRANCH   1  11
ATOM     11  C   UNL     1      -3.352  -0.384   0.628  0.00  0.00    +0.000 C 
ATOM     12  S   UNL     1      -3.775  -1.893   1.221  0.00  0.00    +0.000 S 
BRANCH  11  18
ATOM     13  C   UNL     1      -1.218   0.870   0.945  0.00  0.00    +0.000 A 
ATOM     14  C   UNL     1       0.102   1.147   0.587  0.00  0.00    +0.000 A 
ATOM     15  C   UNL     1       0.694   0.442  -0.457  0.00  0.00    +0.000 A 
ATOM     16  C   UNL     1      -0.008  -0.538  -1.153  0.00  0.00    +0.000 A 
ATOM     17  C   UNL     1      -1.329  -0.823  -0.801  0.00  0.00    +0.000 A 
ATOM     18  C   UNL     1      -1.931  -0.119   0.252  0.00  0.00    +0.000 A 
ATOM     19  F   UNL     1       1.959   0.712  -0.799  0.00  0.00    +0.000 F 
ENDBRANCH  11  18
ENDBRANCH   1  11
TORSDOF 3
