REMARK  Name = *****
REMARK  1 active torsions:
REMARK  status: ('A' for Active; 'I' for Inactive)
REMARK    1  A    between atoms: C_6  and  C_11
REMARK                            x       y       z     vdW  Elec       q    Type
REMARK                         _______ _______ _______ _____ _____    ______ ____
ROOT
ATOM      1  C   UNL     1       2.693   0.089   0.062  0.00  0.00    +0.000 A 
ATOM      2  C   UNL     1       1.918   1.180   0.193  0.00  0.00    +0.000 A 
ATOM      3  C   UNL     1       0.540   0.725   0.090  0.00  0.00    +0.000 A 
ATOM      4  C   UNL     1      -0.526   1.525   0.180  0.00  0.00    +0.000 A 
ATOM      5  C   UNL     1      -1.924   1.160   0.108  0.00  0.00    +0.000 A 
ATOM      6  C   UNL     1      -2.528  -0.032  -0.086  0.00  0.00    +0.000 A 
ATOM      7  C   UNL     1      -1.853  -1.315  -0.284  0.00  0.00    +0.000 A 
ATOM      8  C   UNL     1      -0.549  -1.621  -0.297  0.00  0.00    +0.000 A 
ATOM      9  C   UNL     1       0.547  -0.714  -0.116  0.00  0.00    +0.000 A 
ATOM     10  C   UNL     1       1.846  -1.075  -0.130  0.00  0.00    +0.000 A 
ENDROOT
BRANCH   6  11
ATOM     11  C   UNL     1      -3.977  -0.070  -0.098  0.00  0.00    +0.000 A 
ATOM     12  C   UNL     1      -4.742   0.531  -1.078  0.00  0.00    +0.000 A 
ATOM     13  S   UNL     1      -6.419   0.305  -0.816  0.00  0.00    +0.000 S 
ATOM     14  C   UNL     1      -6.131  -0.600   0.608  0.00  0.00    +0.000 A 
ATOM     15  C   UNL     1      -4.786  -0.729   0.878  0.00  0.00    +0.000 A 
ENDBRANCH   6  11
TORSDOF 1
