REMARK  Name = *****
REMARK  4 active torsions:
REMARK  status: ('A' for Active; 'I' for Inactive)
REMARK    1  A    between atoms: C_1  and  C_2
REMARK    2  A    between atoms: C_2  and  C_12
REMARK    3  A    between atoms: C_3  and  C_5
REMARK    4  A    between atoms: C_3  and  C_6
REMARK                            x       y       z     vdW  Elec       q    Type
REMARK                         _______ _______ _______ _____ _____    ______ ____
ROOT
ATOM      1  C   UNL     1       0.914   0.398  -0.310  0.00  0.00    +0.000 C 
ATOM      2  C   UNL     1       2.376   0.300   0.045  0.00  0.00    +0.000 C 
ATOM      3  C   UNL     1       3.461   0.916  -0.870  0.00  0.00    +0.000 C 
ATOM      4  O   UNL     1       3.112  -0.478  -0.914  0.00  0.00    +0.000 OA
ATOM      5  C   UNL     1       4.866   1.131  -0.371  0.00  0.00    +0.000 C 
ENDROOT
BRANCH   3   6
ATOM      6  C   UNL     1       3.041   1.796  -2.030  0.00  0.00    +0.000 A 
ATOM      7  C   UNL     1       2.602   3.115  -1.818  0.00  0.00    +0.000 A 
ATOM      8  C   UNL     1       2.220   3.935  -2.883  0.00  0.00    +0.000 A 
ATOM      9  C   UNL     1       2.272   3.451  -4.187  0.00  0.00    +0.000 A 
ATOM     10  C   UNL     1       2.706   2.151  -4.425  0.00  0.00    +0.000 A 
ATOM     11  C   UNL     1       3.088   1.335  -3.357  0.00  0.00    +0.000 A 
ENDBRANCH   3   6
BRANCH   2  12
ATOM     12  C   UNL     1       2.675   0.093   1.516  0.00  0.00    +0.000 A 
ATOM     13  C   UNL     1       2.934  -1.184   2.042  0.00  0.00    +0.000 A 
ATOM     14  C   UNL     1       3.203  -1.373   3.399  0.00  0.00    +0.000 A 
ATOM     15  C   UNL     1       3.214  -0.282   4.264  0.00  0.00    +0.000 A 
ATOM     16  C   UNL     1       2.957   0.994   3.772  0.00  0.00    +0.000 A 
ATOM     17  C   UNL     1       2.689   1.176   2.413  0.00  0.00    +0.000 A 
ENDBRANCH   2  12
TORSDOF 2
