REMARK  Name = *****
REMARK  5 active torsions:
REMARK  status: ('A' for Active; 'I' for Inactive)
REMARK    1  A    between atoms: C_1  and  C_2
REMARK    2  A    between atoms: C_5  and  C_8
REMARK    3  A    between atoms: C_8  and  S_9
REMARK    4  A    between atoms: S_9  and  C_10
REMARK    5  A    between atoms: C_13  and  C_15
REMARK                            x       y       z     vdW  Elec       q    Type
REMARK                         _______ _______ _______ _____ _____    ______ ____
ROOT
ATOM      1  S   UNL     1      -3.937   0.139  -1.877  0.00  0.00    +0.000 S 
ENDROOT
BRANCH   1   2
ATOM      2  C   UNL     1      -5.651   0.226  -1.628  0.00  0.00    +0.000 A 
ATOM      3  N   UNL     1      -6.249   0.283  -0.456  0.00  0.00    +0.000 NA
ATOM      4  N   UNL     1      -7.605   0.342  -0.698  0.00  0.00    +0.000 NA
ATOM      5  C   UNL     1      -7.751   0.317  -2.010  0.00  0.00    +0.000 A 
ATOM      6  O   UNL     1      -6.545   0.243  -2.666  0.00  0.00    +0.000 OA
BRANCH   5   7
ATOM      7  C   UNL     1      -8.980   0.355  -2.842  0.00  0.00    +0.000 C 
ATOM      8  F   UNL     1     -10.118   0.413  -2.101  0.00  0.00    +0.000 F 
ATOM      9  F   UNL     1      -9.003   1.436  -3.669  0.00  0.00    +0.000 F 
ATOM     10  F   UNL     1      -9.093  -0.743  -3.638  0.00  0.00    +0.000 F 
ENDBRANCH   5   7
ENDBRANCH   1   2
BRANCH   1  11
ATOM     11  C   UNL     1      -3.361   0.168  -0.155  0.00  0.00    +0.000 C 
BRANCH  11  16
ATOM     12  C   UNL     1       2.457  -0.082   0.073  0.00  0.00    +0.000 C 
ATOM     13  C   UNL     1       0.959  -0.015   0.047  0.00  0.00    +0.000 A 
ATOM     14  C   UNL     1       0.305   1.218  -0.044  0.00  0.00    +0.000 A 
ATOM     15  C   UNL     1      -1.090   1.278  -0.102  0.00  0.00    +0.000 A 
ATOM     16  C   UNL     1      -1.856   0.104  -0.078  0.00  0.00    +0.000 A 
ATOM     17  C   UNL     1      -1.196  -1.131  -0.011  0.00  0.00    +0.000 A 
ATOM     18  C   UNL     1       0.198  -1.189   0.048  0.00  0.00    +0.000 A 
ENDBRANCH  11  16
ENDBRANCH   1  11
TORSDOF 4
