REMARK  Name = *****
REMARK  2 active torsions:
REMARK  status: ('A' for Active; 'I' for Inactive)
REMARK    1  A    between atoms: C_4  and  O_7
REMARK    2  A    between atoms: O_7  and  C_8
REMARK                            x       y       z     vdW  Elec       q    Type
REMARK                         _______ _______ _______ _____ _____    ______ ____
ROOT
ATOM      1  C   UNL     1      -4.180  -0.811   0.144  0.00  0.00    +0.000 A 
ATOM      2  N   UNL     1      -4.627  -1.978   0.547  0.00  0.00    +0.000 NA
ATOM      3  C   UNL     1      -5.798  -2.309  -0.126  0.00  0.00    +0.000 A 
ATOM      4  C   UNL     1      -6.232  -1.349  -1.046  0.00  0.00    +0.000 A 
ATOM      5  S   UNL     1      -5.131  -0.025  -1.042  0.00  0.00    +0.000 S 
ATOM      6  C   UNL     1      -7.401  -1.521  -1.812  0.00  0.00    +0.000 A 
ATOM      7  C   UNL     1      -8.148  -2.693  -1.644  0.00  0.00    +0.000 A 
ATOM      8  C   UNL     1      -7.745  -3.668  -0.740  0.00  0.00    +0.000 A 
ATOM      9  C   UNL     1      -6.584  -3.474   0.007  0.00  0.00    +0.000 A 
ATOM     10 CL   UNL     1      -6.035  -4.640   1.131  0.00  0.00    +0.000 Cl
ENDROOT
BRANCH   1  11
ATOM     11  O   UNL     1      -3.083  -0.217   0.622  0.00  0.00    +0.000 OA
BRANCH  11  15
ATOM     12  C   UNL     1      -0.311  -2.001   3.166  0.00  0.00    +0.000 A 
ATOM     13  C   UNL     1      -0.818  -2.740   2.097  0.00  0.00    +0.000 A 
ATOM     14  C   UNL     1      -1.757  -2.171   1.234  0.00  0.00    +0.000 A 
ATOM     15  C   UNL     1      -2.202  -0.865   1.452  0.00  0.00    +0.000 A 
ATOM     16  C   UNL     1      -1.676  -0.119   2.509  0.00  0.00    +0.000 A 
ATOM     17  C   UNL     1      -0.737  -0.689   3.370  0.00  0.00    +0.000 A 
ENDBRANCH  11  15
ENDBRANCH   1  11
TORSDOF 2
