REMARK  Name = *****
REMARK  4 active torsions:
REMARK  status: ('A' for Active; 'I' for Inactive)
REMARK    1  A    between atoms: C_1  and  C_2
REMARK    2  A    between atoms: C_5  and  C_8
REMARK    3  A    between atoms: C_9  and  C_10
REMARK    4  A    between atoms: C_9  and  C_12
REMARK                            x       y       z     vdW  Elec       q    Type
REMARK                         _______ _______ _______ _____ _____    ______ ____
ROOT
ATOM      1  C   UNL     1      -3.239   0.059  -0.025  0.00  0.00    +0.000 C 
ATOM      2  C   UNL     1      -3.991   0.222  -1.134  0.00  0.00    +0.000 C 
ENDROOT
BRANCH   1   7
ATOM      3  C   UNL     1       2.525  -0.315  -0.018  0.00  0.00    +0.000 C 
ATOM      4  C   UNL     1       1.029  -0.206  -0.012  0.00  0.00    +0.000 A 
ATOM      5  C   UNL     1       0.397   1.042   0.025  0.00  0.00    +0.000 A 
ATOM      6  C   UNL     1      -0.997   1.130   0.024  0.00  0.00    +0.000 A 
ATOM      7  C   UNL     1      -1.775  -0.031  -0.014  0.00  0.00    +0.000 A 
ATOM      8  C   UNL     1      -1.150  -1.280  -0.050  0.00  0.00    +0.000 A 
ATOM      9  C   UNL     1       0.245  -1.366  -0.049  0.00  0.00    +0.000 A 
ENDBRANCH   1   7
BRANCH   2  10
ATOM     10  C   UNL     1      -5.420   0.305  -0.984  0.00  0.00    +0.000 A 
ATOM     11  C   UNL     1      -6.172   0.892   0.027  0.00  0.00    +0.000 A 
ATOM     12  C   UNL     1      -7.579   0.772  -0.168  0.00  0.00    +0.000 A 
ATOM     13  C   UNL     1      -7.879   0.096  -1.326  0.00  0.00    +0.000 A 
ATOM     14  S   UNL     1      -6.476  -0.391  -2.165  0.00  0.00    +0.000 S 
ENDBRANCH   2  10
BRANCH   2  15
ATOM     15  C   UNL     1      -3.387   0.317  -2.432  0.00  0.00    +0.000 C 
ATOM     16  N   UNL     1      -2.904   0.402  -3.485  0.00  0.00    +0.000 NA
ENDBRANCH   2  15
TORSDOF 3
