REMARK  Name = *****
REMARK  4 active torsions:
REMARK  status: ('A' for Active; 'I' for Inactive)
REMARK    1  A    between atoms: C_1  and  C_2
REMARK    2  A    between atoms: C_6  and  C_7
REMARK    3  A    between atoms: C_7  and  C_8
REMARK    4  A    between atoms: C_8  and  C_9
REMARK                            x       y       z     vdW  Elec       q    Type
REMARK                         _______ _______ _______ _____ _____    ______ ____
ROOT
ATOM      1  C   UNL     1       0.017  -1.658   1.581  0.00  0.00    +0.000 C 
ENDROOT
BRANCH   1   7
ATOM      2  C   UNL     1      -2.428  -1.159  -0.558  0.00  0.00    +0.000 C 
ATOM      3  C   UNL     1      -1.170  -0.417  -0.272  0.00  0.00    +0.000 C 
ATOM      4  C   UNL     1      -0.995   0.908  -0.340  0.00  0.00    +0.000 C 
ATOM      5  C   UNL     1       0.399   1.303   0.011  0.00  0.00    +0.000 C 
ATOM      6  C   UNL     1       1.150  -0.027  -0.053  0.00  0.00    +0.000 C 
ATOM      7  C   UNL     1       0.094  -1.132   0.140  0.00  0.00    +0.000 C 
ENDBRANCH   1   7
BRANCH   1   8
ATOM      8  C   UNL     1       1.234  -2.510   1.957  0.00  0.00    +0.000 C 
BRANCH   8   9
ATOM      9  C   UNL     1       1.109  -3.076   3.350  0.00  0.00    +0.000 A 
ATOM     10  C   UNL     1       0.584  -4.360   3.552  0.00  0.00    +0.000 A 
ATOM     11  C   UNL     1       0.454  -4.875   4.843  0.00  0.00    +0.000 A 
ATOM     12  C   UNL     1       0.842  -4.111   5.942  0.00  0.00    +0.000 A 
ATOM     13  C   UNL     1       1.357  -2.830   5.752  0.00  0.00    +0.000 A 
ATOM     14  C   UNL     1       1.489  -2.314   4.462  0.00  0.00    +0.000 A 
ENDBRANCH   8   9
ENDBRANCH   1   8
TORSDOF 3
