REMARK  Name = *****
REMARK  2 active torsions:
REMARK  status: ('A' for Active; 'I' for Inactive)
REMARK    1  A    between atoms: C_1  and  C_2
REMARK    2  A    between atoms: C_9  and  C_11
REMARK                            x       y       z     vdW  Elec       q    Type
REMARK                         _______ _______ _______ _____ _____    ______ ____
ROOT
ATOM      1  C   UNL     1       1.087  -0.037  -0.023  0.00  0.00    +0.000 C 
ATOM      2  C   UNL     1       2.587   0.020   0.052  0.00  0.00    +0.000 A 
ATOM      3  C   UNL     1       3.336  -1.164  -0.057  0.00  0.00    +0.000 A 
ATOM      4  C   UNL     1       4.718  -1.019  -0.009  0.00  0.00    +0.000 A 
ATOM      5  C   UNL     1       5.382   0.186   0.125  0.00  0.00    +0.000 A 
ATOM      6  C   UNL     1       4.633   1.365   0.218  0.00  0.00    +0.000 A 
ATOM      7  C   UNL     1       3.233   1.264   0.175  0.00  0.00    +0.000 A 
ATOM      8  N   UNL     1       6.737  -0.028   0.136  0.00  0.00    +0.000 NA
ATOM      9  C   UNL     1       6.851  -1.341   0.010  0.00  0.00    +0.000 A 
ATOM     10  O   UNL     1       5.655  -2.005  -0.085  0.00  0.00    +0.000 OA
ENDROOT
BRANCH   9  11
ATOM     11  C   UNL     1       8.070  -2.142  -0.040  0.00  0.00    +0.000 A 
ATOM     12  C   UNL     1       9.316  -1.496   0.052  0.00  0.00    +0.000 A 
ATOM     13  C   UNL     1      10.511  -2.222   0.010  0.00  0.00    +0.000 A 
ATOM     14  C   UNL     1      10.480  -3.608  -0.125  0.00  0.00    +0.000 A 
ATOM     15  C   UNL     1       9.255  -4.264  -0.218  0.00  0.00    +0.000 A 
ATOM     16  C   UNL     1       8.065  -3.534  -0.175  0.00  0.00    +0.000 A 
ATOM     17  F   UNL     1       6.916  -4.220  -0.269  0.00  0.00    +0.000 F 
ENDBRANCH   9  11
TORSDOF 1
