REMARK  Name = *****
REMARK  4 active torsions:
REMARK  status: ('A' for Active; 'I' for Inactive)
REMARK    1  A    between atoms: C_1  and  C_2
REMARK    2  A    between atoms: C_6  and  O_8
REMARK    3  A    between atoms: O_8  and  C_9
REMARK    4  A    between atoms: C_9  and  C_11
REMARK                            x       y       z     vdW  Elec       q    Type
REMARK                         _______ _______ _______ _____ _____    ______ ____
ROOT
ATOM      1  O   UNL     1       2.929   2.030  -2.841  0.00  0.00    +0.000 OA
ENDROOT
BRANCH   1   7
ATOM      2  C   UNL     1       3.927   0.148   1.109  0.00  0.00    +0.000 C 
ATOM      3  C   UNL     1       2.661  -0.058   0.271  0.00  0.00    +0.000 C 
ATOM      4  C   UNL     1       2.709  -1.384  -0.512  0.00  0.00    +0.000 C 
ATOM      5  C   UNL     1       3.479  -1.299  -1.799  0.00  0.00    +0.000 C 
ATOM      6  C   UNL     1       3.833  -0.136  -2.368  0.00  0.00    +0.000 C 
ATOM      7  C   UNL     1       3.486   1.213  -1.797  0.00  0.00    +0.000 C 
ATOM      8  C   UNL     1       2.421   1.114  -0.692  0.00  0.00    +0.000 C 
ENDBRANCH   1   7
BRANCH   1   9
ATOM      9  C   UNL     1       3.799   2.806  -3.529  0.00  0.00    +0.000 C 
ATOM     10  O   UNL     1       5.005   2.871  -3.350  0.00  0.00    +0.000 OA
BRANCH   9  11
ATOM     11  C   UNL     1       3.083   3.595  -4.568  0.00  0.00    +0.000 A 
ATOM     12  C   UNL     1       3.834   4.457  -5.380  0.00  0.00    +0.000 A 
ATOM     13  C   UNL     1       3.209   5.218  -6.369  0.00  0.00    +0.000 A 
ATOM     14  C   UNL     1       1.830   5.123  -6.554  0.00  0.00    +0.000 A 
ATOM     15  C   UNL     1       1.075   4.268  -5.752  0.00  0.00    +0.000 A 
ATOM     16  C   UNL     1       1.697   3.505  -4.761  0.00  0.00    +0.000 A 
ENDBRANCH   9  11
ENDBRANCH   1   9
TORSDOF 3
