REMARK  Name = *****
REMARK  3 active torsions:
REMARK  status: ('A' for Active; 'I' for Inactive)
REMARK    1  A    between atoms: C_1  and  C_2
REMARK    2  A    between atoms: C_2  and  C_11
REMARK    3  A    between atoms: N_3  and  C_4
REMARK                            x       y       z     vdW  Elec       q    Type
REMARK                         _______ _______ _______ _____ _____    ______ ____
ROOT
ATOM      1  C   UNL     1       1.881  -1.667   1.149  0.00  0.00    +0.000 C 
ATOM      2  C   UNL     1       2.849  -0.746   0.436  0.00  0.00    +0.000 C 
ATOM      3  N   UNL     1       3.011  -0.707  -0.843  0.00  0.00    +0.000 NA
ENDROOT
BRANCH   3   4
ATOM      4  C   UNL     1       2.253  -1.553  -1.761  0.00  0.00    +0.000 C 
ATOM      5  C   UNL     1       3.025  -1.650  -3.089  0.00  0.00    +0.000 C 
ATOM      6  C   UNL     1       3.412  -0.325  -3.751  0.00  0.00    +0.000 C 
ATOM      7  C   UNL     1       2.239   0.497  -4.277  0.00  0.00    +0.000 C 
ATOM      8  C   UNL     1       1.345   1.081  -3.186  0.00  0.00    +0.000 C 
ATOM      9  C   UNL     1       0.448   0.081  -2.524  0.00  0.00    +0.000 C 
ATOM     10  C   UNL     1       0.847  -1.045  -1.913  0.00  0.00    +0.000 C 
ENDBRANCH   3   4
BRANCH   2  11
ATOM     11  C   UNL     1       3.659   0.194   1.273  0.00  0.00    +0.000 A 
ATOM     12  C   UNL     1       4.904   0.625   0.796  0.00  0.00    +0.000 A 
ATOM     13  C   UNL     1       5.683   1.504   1.551  0.00  0.00    +0.000 A 
ATOM     14  C   UNL     1       5.218   1.964   2.782  0.00  0.00    +0.000 A 
ATOM     15  C   UNL     1       3.972   1.553   3.255  0.00  0.00    +0.000 A 
ATOM     16  C   UNL     1       3.191   0.672   2.502  0.00  0.00    +0.000 A 
ENDBRANCH   2  11
TORSDOF 2
