REMARK  Name = *****
REMARK  5 active torsions:
REMARK  status: ('A' for Active; 'I' for Inactive)
REMARK    1  A    between atoms: C_1  and  C_2
REMARK    2  A    between atoms: C_4  and  C_18
REMARK    3  A    between atoms: C_6  and  O_8
REMARK    4  A    between atoms: O_8  and  C_9
REMARK    5  A    between atoms: C_9  and  C_11
REMARK                            x       y       z     vdW  Elec       q    Type
REMARK                         _______ _______ _______ _____ _____    ______ ____
ROOT
ATOM      1  O   UNL     1       2.989  -3.139  -2.282  0.00  0.00    +0.000 OA
ENDROOT
BRANCH   1   7
ATOM      2  C   UNL     1       0.917  -0.011   0.156  0.00  0.00    +0.000 C 
ATOM      3  C   UNL     1       2.431  -0.170  -0.007  0.00  0.00    +0.000 C 
ATOM      4  C   UNL     1       3.018   0.891  -0.951  0.00  0.00    +0.000 C 
ATOM      5  C   UNL     1       2.681   0.641  -2.429  0.00  0.00    +0.000 C 
ATOM      6  C   UNL     1       3.089  -0.776  -2.848  0.00  0.00    +0.000 C 
ATOM      7  C   UNL     1       2.460  -1.842  -1.945  0.00  0.00    +0.000 C 
ATOM      8  C   UNL     1       2.807  -1.581  -0.476  0.00  0.00    +0.000 C 
ATOM      9  C   UNL     1       3.363   1.680  -3.317  0.00  0.00    +0.000 C 
ENDBRANCH   1   7
BRANCH   1  10
ATOM     10  C   UNL     1       2.402  -3.776  -3.321  0.00  0.00    +0.000 C 
ATOM     11  O   UNL     1       1.503  -3.339  -4.022  0.00  0.00    +0.000 OA
BRANCH  10  12
ATOM     12  C   UNL     1       3.054  -5.078  -3.572  0.00  0.00    +0.000 A 
ATOM     13  C   UNL     1       3.019  -5.595  -4.876  0.00  0.00    +0.000 A 
ATOM     14  C   UNL     1       3.620  -6.824  -5.162  0.00  0.00    +0.000 A 
ATOM     15  C   UNL     1       4.250  -7.546  -4.149  0.00  0.00    +0.000 A 
ATOM     16  C   UNL     1       4.274  -7.043  -2.848  0.00  0.00    +0.000 A 
ATOM     17  C   UNL     1       3.676  -5.816  -2.564  0.00  0.00    +0.000 A 
ATOM     18  F   UNL     1       3.694  -5.390  -1.292  0.00  0.00    +0.000 F 
ENDBRANCH  10  12
ENDBRANCH   1  10
TORSDOF 3
