REMARK  Name = *****
REMARK  6 active torsions:
REMARK  status: ('A' for Active; 'I' for Inactive)
REMARK    1  A    between atoms: C_1  and  C_2
REMARK    2  A    between atoms: C_2  and  C_3
REMARK    3  A    between atoms: C_2  and  C_4
REMARK    4  A    between atoms: C_5  and  C_9
REMARK    5  A    between atoms: C_9  and  S_10
REMARK    6  A    between atoms: S_10  and  C_11
REMARK                            x       y       z     vdW  Elec       q    Type
REMARK                         _______ _______ _______ _____ _____    ______ ____
ROOT
ATOM      1  C   UNL     1       3.015  -1.152  -1.130  0.00  0.00    +0.000 C 
ATOM      2  C   UNL     1       4.061  -1.178  -1.977  0.00  0.00    +0.000 C 
ATOM      3  C   UNL     1       4.301  -2.563  -2.508  0.00  0.00    +0.000 C 
ATOM      4  C   UNL     1       3.470  -3.436  -1.576  0.00  0.00    +0.000 C 
ATOM      5  C   UNL     1       2.401  -2.518  -0.993  0.00  0.00    +0.000 C 
ENDROOT
BRANCH   1   7
ATOM      6  C   UNL     1       0.938   0.202  -0.700  0.00  0.00    +0.000 C 
ATOM      7  C   UNL     1       2.431   0.039  -0.411  0.00  0.00    +0.000 C 
ATOM      8  C   UNL     1       2.683  -0.049   1.095  0.00  0.00    +0.000 C 
ENDBRANCH   1   7
BRANCH   2   9
ATOM      9  C   UNL     1       4.958  -0.056  -2.401  0.00  0.00    +0.000 C 
BRANCH   9  10
ATOM     10  S   UNL     1       4.545   0.456  -4.100  0.00  0.00    +0.000 S 
BRANCH  10  11
ATOM     11  C   UNL     1       5.492   1.963  -4.230  0.00  0.00    +0.000 A 
ATOM     12  C   UNL     1       6.843   2.031  -3.876  0.00  0.00    +0.000 A 
ATOM     13  C   UNL     1       7.548   3.231  -4.006  0.00  0.00    +0.000 A 
ATOM     14  C   UNL     1       6.909   4.366  -4.500  0.00  0.00    +0.000 A 
ATOM     15  C   UNL     1       5.568   4.303  -4.871  0.00  0.00    +0.000 A 
ATOM     16  C   UNL     1       4.863   3.104  -4.740  0.00  0.00    +0.000 A 
ENDBRANCH  10  11
ENDBRANCH   9  10
ENDBRANCH   2   9
TORSDOF 4
