REMARK  Name = *****
REMARK  3 active torsions:
REMARK  status: ('A' for Active; 'I' for Inactive)
REMARK    1  A    between atoms: C_4  and  C_6
REMARK    2  A    between atoms: C_6  and  O_8
REMARK    3  A    between atoms: O_8  and  C_9
REMARK                            x       y       z     vdW  Elec       q    Type
REMARK                         _______ _______ _______ _____ _____    ______ ____
ROOT
ATOM      1  O   UNL     1      -2.745   1.710   0.974  0.00  0.00    +0.000 OA
ENDROOT
BRANCH   1   2
ATOM      2  C   UNL     1      -3.533   2.166   2.037  0.00  0.00    +0.000 A 
ATOM      3  C   UNL     1      -4.573   1.348   2.471  0.00  0.00    +0.000 A 
ATOM      4  C   UNL     1      -5.405   1.803   3.491  0.00  0.00    +0.000 A 
ATOM      5  C   UNL     1      -5.210   3.064   4.058  0.00  0.00    +0.000 A 
ATOM      6  C   UNL     1      -4.176   3.883   3.598  0.00  0.00    +0.000 A 
ATOM      7  C   UNL     1      -3.337   3.438   2.577  0.00  0.00    +0.000 A 
ATOM      8 CL   UNL     1      -6.690   0.806   4.052  0.00  0.00    +0.000 Cl
ENDBRANCH   1   2
BRANCH   1   9
ATOM      9  C   UNL     1      -1.402   1.497   1.283  0.00  0.00    +0.000 C 
ATOM     10  O   UNL     1      -0.877   1.647   2.377  0.00  0.00    +0.000 OA
BRANCH   9  14
ATOM     11  C   UNL     1       1.331  -0.219   0.495  0.00  0.00    +0.000 C 
ATOM     12  C   UNL     1       0.420  -1.134  -0.303  0.00  0.00    +0.000 C 
ATOM     13  C   UNL     1      -0.954  -0.482  -0.191  0.00  0.00    +0.000 C 
ATOM     14  C   UNL     1      -0.694   1.014   0.028  0.00  0.00    +0.000 C 
ATOM     15  C   UNL     1       0.828   1.168   0.124  0.00  0.00    +0.000 C 
ENDBRANCH   9  14
ENDBRANCH   1   9
TORSDOF 3
