REMARK  Name = *****
REMARK  3 active torsions:
REMARK  status: ('A' for Active; 'I' for Inactive)
REMARK    1  A    between atoms: C_4  and  C_8
REMARK    2  A    between atoms: C_8  and  O_10
REMARK    3  A    between atoms: O_10  and  C_11
REMARK                            x       y       z     vdW  Elec       q    Type
REMARK                         _______ _______ _______ _____ _____    ______ ____
ROOT
ATOM      1  C   UNL     1       1.183   2.380  -0.617  0.00  0.00    +0.000 C 
ATOM      2  O   UNL     1       2.350   2.588  -0.320  0.00  0.00    +0.000 OA
ENDROOT
BRANCH   1   6
ATOM      3  C   UNL     1      -0.805  -1.212   0.584  0.00  0.00    +0.000 A 
ATOM      4  C   UNL     1      -1.559  -0.065   0.338  0.00  0.00    +0.000 A 
ATOM      5  C   UNL     1      -0.921   1.112  -0.054  0.00  0.00    +0.000 A 
ATOM      6  C   UNL     1       0.467   1.154  -0.211  0.00  0.00    +0.000 A 
ATOM      7  C   UNL     1       1.223   0.004   0.053  0.00  0.00    +0.000 A 
ATOM      8  C   UNL     1       0.579  -1.165   0.442  0.00  0.00    +0.000 A 
ATOM      9  F   UNL     1       1.302  -2.265   0.686  0.00  0.00    +0.000 F 
ATOM     10  F   UNL     1      -1.677   2.202  -0.248  0.00  0.00    +0.000 F 
ENDBRANCH   1   6
BRANCH   1  11
ATOM     11  O   UNL     1       0.369   3.160  -1.413  0.00  0.00    +0.000 OA
BRANCH  11  12
ATOM     12  C   UNL     1       0.960   4.345  -1.862  0.00  0.00    +0.000 A 
ATOM     13  C   UNL     1       0.437   5.549  -1.397  0.00  0.00    +0.000 A 
ATOM     14  C   UNL     1       0.976   6.740  -1.871  0.00  0.00    +0.000 A 
ATOM     15  C   UNL     1       2.008   6.743  -2.803  0.00  0.00    +0.000 A 
ATOM     16  C   UNL     1       2.498   5.528  -3.267  0.00  0.00    +0.000 A 
ATOM     17  C   UNL     1       1.979   4.321  -2.813  0.00  0.00    +0.000 A 
ATOM     18  F   UNL     1       3.483   5.521  -4.175  0.00  0.00    +0.000 F 
ATOM     19  F   UNL     1       0.487   7.906  -1.428  0.00  0.00    +0.000 F 
ENDBRANCH  11  12
ENDBRANCH   1  11
TORSDOF 3
