REMARK  Name = *****
REMARK  4 active torsions:
REMARK  status: ('A' for Active; 'I' for Inactive)
REMARK    1  A    between atoms: C_1  and  C_2
REMARK    2  A    between atoms: C_5  and  O_8
REMARK    3  A    between atoms: O_8  and  C_9
REMARK    4  A    between atoms: C_9  and  C_11
REMARK                            x       y       z     vdW  Elec       q    Type
REMARK                         _______ _______ _______ _____ _____    ______ ____
ROOT
ATOM      1  O   UNL     1      -3.206   0.217  -0.104  0.00  0.00    +0.000 OA
ENDROOT
BRANCH   1   6
ATOM      2  C   UNL     1       2.453  -0.033   0.207  0.00  0.00    +0.000 C 
ATOM      3  C   UNL     1       0.959   0.070   0.112  0.00  0.00    +0.000 A 
ATOM      4  C   UNL     1       0.253   0.929   0.965  0.00  0.00    +0.000 A 
ATOM      5  C   UNL     1      -1.140   1.002   0.901  0.00  0.00    +0.000 A 
ATOM      6  C   UNL     1      -1.833   0.218  -0.023  0.00  0.00    +0.000 A 
ATOM      7  C   UNL     1      -1.144  -0.669  -0.848  0.00  0.00    +0.000 A 
ATOM      8  C   UNL     1       0.249  -0.741  -0.782  0.00  0.00    +0.000 A 
ENDBRANCH   1   6
BRANCH   1   9
ATOM      9  C   UNL     1      -3.882   1.428  -0.202  0.00  0.00    +0.000 C 
ATOM     10  C   UNL     1      -3.447   2.476  -0.924  0.00  0.00    +0.000 C 
BRANCH   9  11
ATOM     11  C   UNL     1      -5.181   1.448   0.504  0.00  0.00    +0.000 A 
ATOM     12  C   UNL     1      -6.324   2.031  -0.066  0.00  0.00    +0.000 A 
ATOM     13  C   UNL     1      -7.545   2.028   0.616  0.00  0.00    +0.000 A 
ATOM     14  C   UNL     1      -7.642   1.436   1.873  0.00  0.00    +0.000 A 
ATOM     15  C   UNL     1      -6.520   0.842   2.447  0.00  0.00    +0.000 A 
ATOM     16  C   UNL     1      -5.300   0.845   1.766  0.00  0.00    +0.000 A 
ENDBRANCH   9  11
ENDBRANCH   1   9
TORSDOF 3
