REMARK  Name = *****
REMARK  4 active torsions:
REMARK  status: ('A' for Active; 'I' for Inactive)
REMARK    1  A    between atoms: C_1  and  C_2
REMARK    2  A    between atoms: C_4  and  C_15
REMARK    3  A    between atoms: C_6  and  N_8
REMARK    4  A    between atoms: C_9  and  C_10
REMARK                            x       y       z     vdW  Elec       q    Type
REMARK                         _______ _______ _______ _____ _____    ______ ____
ROOT
ATOM      1  C   UNL     1       2.616   0.974   0.070  0.00  0.00    +0.000 C 
ATOM      2  C   UNL     1       1.310   0.237   0.092  0.00  0.00    +0.000 A 
ATOM      3  C   UNL     1       0.107   0.899  -0.190  0.00  0.00    +0.000 A 
ATOM      4  C   UNL     1      -1.110   0.207  -0.176  0.00  0.00    +0.000 A 
ATOM      5  C   UNL     1      -1.110  -1.169   0.090  0.00  0.00    +0.000 A 
ATOM      6  C   UNL     1       0.082  -1.851   0.342  0.00  0.00    +0.000 A 
ATOM      7  C   UNL     1       1.285  -1.138   0.357  0.00  0.00    +0.000 A 
ATOM      8  C   UNL     1      -2.403   0.912  -0.461  0.00  0.00    +0.000 C 
ENDROOT
BRANCH   6   9
ATOM      9  N   UNL     1       0.040  -3.226   0.620  0.00  0.00    +0.000 NA
ATOM     10  C   UNL     1       0.606  -4.005  -0.247  0.00  0.00    +0.000 C 
BRANCH  10  11
ATOM     11  C   UNL     1       0.641  -5.504  -0.034  0.00  0.00    +0.000 C 
ATOM     12  C   UNL     1       2.056  -5.936   0.240  0.00  0.00    +0.000 C 
ATOM     13  C   UNL     1       2.479  -6.755  -0.737  0.00  0.00    +0.000 C 
ATOM     14  C   UNL     1       1.421  -6.930  -1.702  0.00  0.00    +0.000 C 
ATOM     15  C   UNL     1       0.347  -6.222  -1.322  0.00  0.00    +0.000 C 
ENDBRANCH  10  11
ENDBRANCH   6   9
TORSDOF 2
