REMARK  Name = *****
REMARK  4 active torsions:
REMARK  status: ('A' for Active; 'I' for Inactive)
REMARK    1  A    between atoms: C_1  and  C_2
REMARK    2  A    between atoms: C_4  and  O_8
REMARK    3  A    between atoms: O_8  and  C_9
REMARK    4  A    between atoms: C_9  and  C_11
REMARK                            x       y       z     vdW  Elec       q    Type
REMARK                         _______ _______ _______ _____ _____    ______ ____
ROOT
ATOM      1  C   UNL     1      -1.199   3.754  -0.124  0.00  0.00    +0.000 C 
ATOM      2  O   UNL     1      -0.067   4.030  -0.481  0.00  0.00    +0.000 OA
ENDROOT
BRANCH   1   3
ATOM      3  C   UNL     1      -2.243   4.769   0.097  0.00  0.00    +0.000 A 
ATOM      4  C   UNL     1      -1.939   5.823   0.971  0.00  0.00    +0.000 A 
ATOM      5  C   UNL     1      -2.886   6.817   1.220  0.00  0.00    +0.000 A 
ATOM      6  C   UNL     1      -4.129   6.767   0.591  0.00  0.00    +0.000 A 
ATOM      7  C   UNL     1      -4.425   5.729  -0.296  0.00  0.00    +0.000 A 
ATOM      8  C   UNL     1      -3.482   4.728  -0.550  0.00  0.00    +0.000 A 
ATOM      9 CL   UNL     1      -3.898   3.511  -1.704  0.00  0.00    +0.000 Cl
ENDBRANCH   1   3
BRANCH   1  10
ATOM     10  O   UNL     1      -1.722   2.528   0.249  0.00  0.00    +0.000 OA
BRANCH  10  14
ATOM     11  C   UNL     1       2.522  -0.108   0.398  0.00  0.00    +0.000 C 
ATOM     12  C   UNL     1       1.036   0.003   0.227  0.00  0.00    +0.000 A 
ATOM     13  C   UNL     1       0.396   1.247   0.322  0.00  0.00    +0.000 A 
ATOM     14  C   UNL     1      -0.986   1.328   0.156  0.00  0.00    +0.000 A 
ATOM     15  C   UNL     1      -1.747   0.178  -0.058  0.00  0.00    +0.000 A 
ATOM     16  C   UNL     1      -1.117  -1.062  -0.133  0.00  0.00    +0.000 A 
ATOM     17  C   UNL     1       0.269  -1.149   0.008  0.00  0.00    +0.000 A 
ENDBRANCH  10  14
ENDBRANCH   1  10
TORSDOF 3
