REMARK  Name = *****
REMARK  5 active torsions:
REMARK  status: ('A' for Active; 'I' for Inactive)
REMARK    1  A    between atoms: C_1  and  C_2
REMARK    2  A    between atoms: C_5  and  S_8
REMARK    3  A    between atoms: S_8  and  O_10
REMARK    4  A    between atoms: O_10  and  C_11
REMARK    5  A    between atoms: C_11  and  C_18
REMARK                            x       y       z     vdW  Elec       q    Type
REMARK                         _______ _______ _______ _____ _____    ______ ____
ROOT
ATOM      1  S   UNL     1      -5.714  -0.485  -1.711  0.00  0.00    +0.000 S 
ATOM      2  O   UNL     1      -4.376  -0.416  -2.387  0.00  0.00    +0.000 OA
ENDROOT
BRANCH   1   7
ATOM      3  C   UNL     1      -9.878  -0.266  -6.192  0.00  0.00    +0.000 C 
ATOM      4  C   UNL     1      -8.845  -0.341  -5.106  0.00  0.00    +0.000 A 
ATOM      5  C   UNL     1      -9.183  -0.842  -3.843  0.00  0.00    +0.000 A 
ATOM      6  C   UNL     1      -8.232  -0.884  -2.819  0.00  0.00    +0.000 A 
ATOM      7  C   UNL     1      -6.933  -0.418  -3.046  0.00  0.00    +0.000 A 
ATOM      8  C   UNL     1      -6.597   0.094  -4.303  0.00  0.00    +0.000 A 
ATOM      9  C   UNL     1      -7.548   0.140  -5.324  0.00  0.00    +0.000 A 
ENDBRANCH   1   7
BRANCH   1  10
ATOM     10  O   UNL     1      -6.077   1.005  -1.217  0.00  0.00    +0.000 OA
BRANCH  10  11
ATOM     11  C   UNL     1      -5.479   1.507  -0.005  0.00  0.00    +0.000 C 
ATOM     12  C   UNL     1      -6.049   2.945   0.141  0.00  0.00    +0.000 C 
ATOM     13  C   UNL     1      -6.184   3.405   1.596  0.00  0.00    +0.000 C 
ATOM     14  C   UNL     1      -6.577   2.223   2.487  0.00  0.00    +0.000 C 
ATOM     15  C   UNL     1      -5.416   1.199   2.599  0.00  0.00    +0.000 C 
ATOM     16  C   UNL     1      -5.928   0.672   1.219  0.00  0.00    +0.000 C 
ATOM     17  C   UNL     1      -7.342   1.069   1.762  0.00  0.00    +0.000 C 
ATOM     18  C   UNL     1      -3.949   1.569  -0.111  0.00  0.00    +0.000 C 
ENDBRANCH  10  11
ENDBRANCH   1  10
TORSDOF 3
