REMARK  Name = *****
REMARK  1 active torsions:
REMARK  status: ('A' for Active; 'I' for Inactive)
REMARK    1  A    between atoms: C_5  and  C_6
REMARK                            x       y       z     vdW  Elec       q    Type
REMARK                         _______ _______ _______ _____ _____    ______ ____
ROOT
ATOM      1  C   UNL     1       0.339   0.943  -0.085  0.00  0.00    +0.000 C 
ATOM      2  C   UNL     1      -1.049   0.322   0.173  0.00  0.00    +0.000 C 
ATOM      3  C   UNL     1      -0.359  -0.988  -0.177  0.00  0.00    +0.000 C 
ATOM      4  C   UNL     1      -0.780  -2.132  -0.591  0.00  0.00    +0.000 C 
ATOM      5  C   UNL     1      -1.206  -3.287  -1.011  0.00  0.00    +0.000 C 
ATOM      6  C   UNL     1       1.017  -0.423   0.143  0.00  0.00    +0.000 C 
ENDROOT
BRANCH   5   7
ATOM      7  C   UNL     1      -1.857  -3.511  -2.311  0.00  0.00    +0.000 A 
ATOM      8  C   UNL     1      -2.074  -2.480  -3.236  0.00  0.00    +0.000 A 
ATOM      9  C   UNL     1      -2.697  -2.736  -4.461  0.00  0.00    +0.000 A 
ATOM     10  C   UNL     1      -3.111  -4.027  -4.777  0.00  0.00    +0.000 A 
ATOM     11  C   UNL     1      -2.903  -5.063  -3.870  0.00  0.00    +0.000 A 
ATOM     12  C   UNL     1      -2.280  -4.806  -2.645  0.00  0.00    +0.000 A 
ENDBRANCH   5   7
TORSDOF 1
