REMARK  Name = *****
REMARK  4 active torsions:
REMARK  status: ('A' for Active; 'I' for Inactive)
REMARK    1  A    between atoms: C_1  and  C_2
REMARK    2  A    between atoms: C_4  and  C_9
REMARK    3  A    between atoms: C_5  and  C_8
REMARK    4  A    between atoms: C_11  and  C_12
REMARK                            x       y       z     vdW  Elec       q    Type
REMARK                         _______ _______ _______ _____ _____    ______ ____
ROOT
ATOM      1  C   UNL     1      -2.054   2.313   0.530  0.00  0.00    +0.000 C 
ATOM      2  C   UNL     1      -2.334   3.409  -0.473  0.00  0.00    +0.000 C 
ATOM      3  C   UNL     1      -1.816   3.776   0.888  0.00  0.00    +0.000 C 
ENDROOT
BRANCH   1   7
ATOM      4  C   UNL     1       2.228   0.050   1.972  0.00  0.00    +0.000 C 
ATOM      5  C   UNL     1       1.142   0.208   0.950  0.00  0.00    +0.000 A 
ATOM      6  C   UNL     1       0.095   1.115   1.168  0.00  0.00    +0.000 A 
ATOM      7  C   UNL     1      -0.952   1.304   0.244  0.00  0.00    +0.000 A 
ATOM      8  C   UNL     1      -0.960   0.471  -0.900  0.00  0.00    +0.000 A 
ATOM      9  C   UNL     1       0.087  -0.442  -1.119  0.00  0.00    +0.000 A 
ATOM     10  C   UNL     1       1.127  -0.574  -0.201  0.00  0.00    +0.000 A 
ATOM     11  C   UNL     1      -2.060   0.549  -1.925  0.00  0.00    +0.000 C 
ENDBRANCH   1   7
BRANCH   3  12
ATOM     12  C   UNL     1      -0.433   4.351   1.125  0.00  0.00    +0.000 A 
ATOM     13  C   UNL     1       0.466   4.691   0.100  0.00  0.00    +0.000 A 
ATOM     14  C   UNL     1       1.730   5.224   0.377  0.00  0.00    +0.000 A 
ATOM     15  C   UNL     1       2.126   5.437   1.693  0.00  0.00    +0.000 A 
ATOM     16  C   UNL     1       1.258   5.119   2.731  0.00  0.00    +0.000 A 
ATOM     17  C   UNL     1      -0.003   4.586   2.446  0.00  0.00    +0.000 A 
ENDBRANCH   3  12
TORSDOF 2
