REMARK  Name = *****
REMARK  3 active torsions:
REMARK  status: ('A' for Active; 'I' for Inactive)
REMARK    1  A    between atoms: C_4  and  O_7
REMARK    2  A    between atoms: O_7  and  C_8
REMARK    3  A    between atoms: C_8  and  C_10
REMARK                            x       y       z     vdW  Elec       q    Type
REMARK                         _______ _______ _______ _____ _____    ______ ____
ROOT
ATOM      1  C   UNL     1       3.430  -1.712   0.325  0.00  0.00    +0.000 C 
ATOM      2  O   UNL     1       3.076  -2.332   1.315  0.00  0.00    +0.000 OA
ENDROOT
BRANCH   1   3
ATOM      3  C   UNL     1       4.737  -1.928  -0.351  0.00  0.00    +0.000 A 
ATOM      4  C   UNL     1       5.130  -1.191  -1.474  0.00  0.00    +0.000 A 
ATOM      5  C   UNL     1       6.368  -1.442  -2.056  0.00  0.00    +0.000 A 
ATOM      6  C   UNL     1       7.224  -2.412  -1.546  0.00  0.00    +0.000 A 
ATOM      7  C   UNL     1       6.839  -3.150  -0.428  0.00  0.00    +0.000 A 
ATOM      8  C   UNL     1       5.598  -2.908   0.168  0.00  0.00    +0.000 A 
ATOM      9  F   UNL     1       6.743  -0.736  -3.131  0.00  0.00    +0.000 F 
ENDBRANCH   1   3
BRANCH   1  10
ATOM     10  O   UNL     1       2.719  -0.751  -0.314  0.00  0.00    +0.000 OA
BRANCH  10  14
ATOM     11  C   UNL     1      -1.376   0.359  -0.257  0.00  0.00    +0.000 C 
ATOM     12  C   UNL     1      -1.024  -1.066   0.163  0.00  0.00    +0.000 C 
ATOM     13  C   UNL     1       0.388  -1.447  -0.270  0.00  0.00    +0.000 C 
ATOM     14  C   UNL     1       1.427  -0.444   0.242  0.00  0.00    +0.000 C 
ATOM     15  C   UNL     1       1.068   0.978  -0.196  0.00  0.00    +0.000 C 
ATOM     16  C   UNL     1      -0.342   1.365   0.238  0.00  0.00    +0.000 C 
ENDBRANCH  10  14
ENDBRANCH   1  10
TORSDOF 3
