REMARK  Name = *****
REMARK  5 active torsions:
REMARK  status: ('A' for Active; 'I' for Inactive)
REMARK    1  A    between atoms: C_1  and  O_2
REMARK    2  A    between atoms: O_2  and  C_3
REMARK    3  A    between atoms: C_6  and  C_9
REMARK    4  A    between atoms: C_10  and  C_11
REMARK    5  A    between atoms: C_14  and  C_16
REMARK                            x       y       z     vdW  Elec       q    Type
REMARK                         _______ _______ _______ _____ _____    ______ ____
ROOT
ATOM      1  C   UNL     1       5.564  -3.518   3.096  0.00  0.00    +0.000 C 
ATOM      2  C   UNL     1       5.711  -4.833   2.869  0.00  0.00    +0.000 C 
ENDROOT
BRANCH   1   6
ATOM      3  C   UNL     1       3.214  -0.845   0.701  0.00  0.00    +0.000 A 
ATOM      4  C   UNL     1       2.763  -2.143   0.932  0.00  0.00    +0.000 A 
ATOM      5  C   UNL     1       3.525  -3.028   1.706  0.00  0.00    +0.000 A 
ATOM      6  C   UNL     1       4.753  -2.631   2.251  0.00  0.00    +0.000 A 
ATOM      7  C   UNL     1       5.191  -1.322   2.028  0.00  0.00    +0.000 A 
ATOM      8  C   UNL     1       4.430  -0.441   1.254  0.00  0.00    +0.000 A 
BRANCH   3  10
ATOM      9  C   UNL     1       1.325  -0.248  -0.613  0.00  0.00    +0.000 C 
ATOM     10  O   UNL     1       2.571   0.114  -0.031  0.00  0.00    +0.000 OA
ENDBRANCH   3  10
ENDBRANCH   1   6
BRANCH   2  11
ATOM     11  C   UNL     1       6.510  -5.652   3.711  0.00  0.00    +0.000 A 
ATOM     12  N   UNL     1       6.703  -6.955   3.568  0.00  0.00    +0.000 NA
ATOM     13  N   UNL     1       7.530  -7.380   4.582  0.00  0.00    +0.000 NA
ATOM     14  C   UNL     1       7.813  -6.319   5.307  0.00  0.00    +0.000 A 
ATOM     15  O   UNL     1       7.203  -5.188   4.816  0.00  0.00    +0.000 OA
BRANCH  14  16
ATOM     16  C   UNL     1       8.662  -6.174   6.527  0.00  0.00    +0.000 C 
ATOM     17 CL   UNL     1       9.344  -7.746   7.050  0.00  0.00    +0.000 Cl
ATOM     18 CL   UNL     1      10.026  -5.055   6.196  0.00  0.00    +0.000 Cl
ATOM     19 CL   UNL     1       7.690  -5.509   7.882  0.00  0.00    +0.000 Cl
ENDBRANCH  14  16
ENDBRANCH   2  11
TORSDOF 4
