REMARK  Name = *****
REMARK  4 active torsions:
REMARK  status: ('A' for Active; 'I' for Inactive)
REMARK    1  A    between atoms: C_1  and  C_2
REMARK    2  A    between atoms: C_5  and  C_7
REMARK    3  A    between atoms: C_7  and  C_8
REMARK    4  A    between atoms: C_8  and  C_9
REMARK                            x       y       z     vdW  Elec       q    Type
REMARK                         _______ _______ _______ _____ _____    ______ ____
ROOT
ATOM      1  C   UNL     1       2.409   1.739   0.029  0.00  0.00    +0.000 C 
ENDROOT
BRANCH   1   6
ATOM      2  C   UNL     1      -1.649  -1.164   1.238  0.00  0.00    +0.000 C 
ATOM      3  C   UNL     1      -0.562  -0.440   0.538  0.00  0.00    +0.000 A 
ATOM      4  C   UNL     1      -0.290  -0.440  -0.814  0.00  0.00    +0.000 A 
ATOM      5  O   UNL     1       0.786   0.336  -1.092  0.00  0.00    +0.000 OA
ATOM      6  C   UNL     1       1.222   0.850   0.091  0.00  0.00    +0.000 A 
ATOM      7  C   UNL     1       0.425   0.401   1.122  0.00  0.00    +0.000 A 
ENDBRANCH   1   6
BRANCH   1   8
ATOM      8  C   UNL     1       3.706   0.929  -0.012  0.00  0.00    +0.000 C 
BRANCH   8   9
ATOM      9  C   UNL     1       4.921   1.823  -0.059  0.00  0.00    +0.000 A 
ATOM     10  C   UNL     1       5.531   2.257   1.126  0.00  0.00    +0.000 A 
ATOM     11  C   UNL     1       6.643   3.100   1.080  0.00  0.00    +0.000 A 
ATOM     12  C   UNL     1       7.151   3.519  -0.148  0.00  0.00    +0.000 A 
ATOM     13  C   UNL     1       6.548   3.098  -1.331  0.00  0.00    +0.000 A 
ATOM     14  C   UNL     1       5.436   2.255  -1.288  0.00  0.00    +0.000 A 
ENDBRANCH   8   9
ENDBRANCH   1   8
TORSDOF 3
