REMARK  Name = *****
REMARK  4 active torsions:
REMARK  status: ('A' for Active; 'I' for Inactive)
REMARK    1  A    between atoms: N_2  and  C_3
REMARK    2  A    between atoms: C_7  and  C_9
REMARK    3  A    between atoms: C_9  and  O_11
REMARK    4  A    between atoms: O_11  and  C_12
REMARK                            x       y       z     vdW  Elec       q    Type
REMARK                         _______ _______ _______ _____ _____    ______ ____
ROOT
ATOM      1  C   UNL     1       4.149   1.365  -0.407  0.00  0.00    +0.000 C 
ATOM      2  O   UNL     1       5.288   1.205  -0.817  0.00  0.00    +0.000 OA
ENDROOT
BRANCH   1   7
ATOM      3  C   UNL     1       2.665  -2.084  -0.566  0.00  0.00    +0.000 A 
ATOM      4  C   UNL     1       1.364  -1.891  -0.107  0.00  0.00    +0.000 A 
ATOM      5  C   UNL     1       0.956  -0.610   0.262  0.00  0.00    +0.000 A 
ATOM      6  C   UNL     1       1.851   0.462   0.169  0.00  0.00    +0.000 A 
ATOM      7  C   UNL     1       3.161   0.258  -0.294  0.00  0.00    +0.000 A 
ATOM      8  C   UNL     1       3.570  -1.029  -0.665  0.00  0.00    +0.000 A 
BRANCH   3  10
ATOM      9  C   UNL     1       3.408  -4.439  -1.240  0.00  0.00    +0.000 C 
ATOM     10  N   UNL     1       3.070  -3.360  -0.932  0.00  0.00    +0.000 NA
ENDBRANCH   3  10
ENDBRANCH   1   7
BRANCH   1  11
ATOM     11  O   UNL     1       3.604   2.534   0.007  0.00  0.00    +0.000 OA
BRANCH  11  12
ATOM     12  C   UNL     1       4.467   3.686  -0.039  0.00  0.00    +0.000 C 
ATOM     13  C   UNL     1       5.336   3.733   1.222  0.00  0.00    +0.000 C 
ATOM     14  C   UNL     1       6.150   5.021   1.297  0.00  0.00    +0.000 C 
ATOM     15  C   UNL     1       5.260   6.256   1.192  0.00  0.00    +0.000 C 
ATOM     16  C   UNL     1       4.382   6.214  -0.056  0.00  0.00    +0.000 C 
ATOM     17  C   UNL     1       3.572   4.925  -0.127  0.00  0.00    +0.000 C 
ENDBRANCH  11  12
ENDBRANCH   1  11
TORSDOF 4
