REMARK  Name = *****
REMARK  3 active torsions:
REMARK  status: ('A' for Active; 'I' for Inactive)
REMARK    1  A    between atoms: C_1  and  C_2
REMARK    2  A    between atoms: C_2  and  C_11
REMARK    3  A    between atoms: C_4  and  C_5
REMARK                            x       y       z     vdW  Elec       q    Type
REMARK                         _______ _______ _______ _____ _____    ______ ____
ROOT
ATOM      1  C   UNL     1       0.810   0.203   0.008  0.00  0.00    +0.000 C 
ATOM      2  C   UNL     1       2.316   0.100   0.110  0.00  0.00    +0.000 C 
ATOM      3  C   UNL     1       3.121   0.891  -0.899  0.00  0.00    +0.000 C 
ATOM      4  C   UNL     1       3.124  -0.613  -0.985  0.00  0.00    +0.000 C 
ENDROOT
BRANCH   4   5
ATOM      5  C   UNL     1       2.447  -1.332  -2.129  0.00  0.00    +0.000 A 
ATOM      6  C   UNL     1       2.605  -0.918  -3.462  0.00  0.00    +0.000 A 
ATOM      7  C   UNL     1       1.992  -1.600  -4.516  0.00  0.00    +0.000 A 
ATOM      8  C   UNL     1       1.211  -2.723  -4.258  0.00  0.00    +0.000 A 
ATOM      9  C   UNL     1       1.050  -3.165  -2.949  0.00  0.00    +0.000 A 
ATOM     10  C   UNL     1       1.666  -2.478  -1.900  0.00  0.00    +0.000 A 
ENDBRANCH   4   5
BRANCH   2  11
ATOM     11  C   UNL     1       2.834  -0.005   1.541  0.00  0.00    +0.000 A 
ATOM     12  C   UNL     1       3.011  -1.253   2.163  0.00  0.00    +0.000 A 
ATOM     13  C   UNL     1       3.474  -1.354   3.478  0.00  0.00    +0.000 A 
ATOM     14  C   UNL     1       3.766  -0.203   4.203  0.00  0.00    +0.000 A 
ATOM     15  C   UNL     1       3.593   1.047   3.614  0.00  0.00    +0.000 A 
ATOM     16  C   UNL     1       3.130   1.141   2.299  0.00  0.00    +0.000 A 
ENDBRANCH   2  11
TORSDOF 2
