REMARK  Name = *****
REMARK  3 active torsions:
REMARK  status: ('A' for Active; 'I' for Inactive)
REMARK    1  A    between atoms: C_4  and  C_7
REMARK    2  A    between atoms: C_7  and  S_9
REMARK    3  A    between atoms: S_9  and  C_10
REMARK                            x       y       z     vdW  Elec       q    Type
REMARK                         _______ _______ _______ _____ _____    ______ ____
ROOT
ATOM      1  C   UNL     1       0.389   0.143  -2.107  0.00  0.00    +0.000 C 
ATOM      2  O   UNL     1       0.461   1.274  -2.581  0.00  0.00    +0.000 OA
ENDROOT
BRANCH   1   6
ATOM      3  C   UNL     1       3.220   0.241   0.463  0.00  0.00    +0.000 C 
ATOM      4  C   UNL     1       2.838  -1.010  -0.320  0.00  0.00    +0.000 C 
ATOM      5  C   UNL     1       1.349  -1.329  -0.182  0.00  0.00    +0.000 C 
ATOM      6  C   UNL     1       0.463  -0.143  -0.594  0.00  0.00    +0.000 C 
ATOM      7  C   UNL     1       0.865   1.119   0.196  0.00  0.00    +0.000 C 
ATOM      8  C   UNL     1       2.357   1.434   0.068  0.00  0.00    +0.000 C 
ATOM      9 BR   UNL     1      -1.408  -0.561  -0.060  0.00  0.00    +0.000 Br
ENDBRANCH   1   6
BRANCH   1  10
ATOM     10  S   UNL     1       0.111  -1.236  -3.189  0.00  0.00    +0.000 S 
BRANCH  10  11
ATOM     11  C   UNL     1       1.682  -1.331  -4.023  0.00  0.00    +0.000 A 
ATOM     12  C   UNL     1       2.416  -2.520  -3.957  0.00  0.00    +0.000 A 
ATOM     13  C   UNL     1       3.651  -2.626  -4.601  0.00  0.00    +0.000 A 
ATOM     14  C   UNL     1       4.154  -1.546  -5.324  0.00  0.00    +0.000 A 
ATOM     15  C   UNL     1       3.422  -0.363  -5.408  0.00  0.00    +0.000 A 
ATOM     16  C   UNL     1       2.187  -0.258  -4.764  0.00  0.00    +0.000 A 
ENDBRANCH  10  11
ENDBRANCH   1  10
TORSDOF 3
