REMARK  Name = *****
REMARK  4 active torsions:
REMARK  status: ('A' for Active; 'I' for Inactive)
REMARK    1  A    between atoms: C_1  and  C_2
REMARK    2  A    between atoms: C_2  and  C_4
REMARK    3  A    between atoms: C_6  and  C_11
REMARK    4  A    between atoms: C_12  and  C_13
REMARK                            x       y       z     vdW  Elec       q    Type
REMARK                         _______ _______ _______ _____ _____    ______ ____
ROOT
ATOM      1  C   UNL     1       3.482  -4.810   1.248  0.00  0.00    +0.000 C 
ATOM      2  C   UNL     1       3.624  -5.693   2.251  0.00  0.00    +0.000 C 
ENDROOT
BRANCH   2   3
ATOM      3  C   UNL     1       3.297  -7.128   2.161  0.00  0.00    +0.000 A 
ATOM      4  C   UNL     1       4.027  -8.039   2.940  0.00  0.00    +0.000 A 
ATOM      5  C   UNL     1       3.747  -9.403   2.913  0.00  0.00    +0.000 A 
ATOM      6  C   UNL     1       2.721  -9.885   2.115  0.00  0.00    +0.000 A 
ATOM      7  C   UNL     1       1.973  -9.004   1.351  0.00  0.00    +0.000 A 
ATOM      8  C   UNL     1       2.253  -7.639   1.377  0.00  0.00    +0.000 A 
ATOM      9  F   UNL     1       1.485  -6.818   0.644  0.00  0.00    +0.000 F 
ATOM     10  F   UNL     1       0.971  -9.464   0.589  0.00  0.00    +0.000 F 
ATOM     11  F   UNL     1       2.449 -11.197   2.090  0.00  0.00    +0.000 F 
ATOM     12  F   UNL     1       4.467 -10.249   3.663  0.00  0.00    +0.000 F 
ATOM     13  F   UNL     1       5.021  -7.600   3.729  0.00  0.00    +0.000 F 
ENDBRANCH   2   3
BRANCH   1  16
ATOM     14  C   UNL     1       3.262  -1.076   0.778  0.00  0.00    +0.000 A 
ATOM     15  C   UNL     1       2.978  -2.449   0.725  0.00  0.00    +0.000 A 
ATOM     16  C   UNL     1       3.816  -3.381   1.362  0.00  0.00    +0.000 A 
ATOM     17  C   UNL     1       4.956  -2.909   2.028  0.00  0.00    +0.000 A 
ATOM     18  C   UNL     1       5.247  -1.550   2.087  0.00  0.00    +0.000 A 
ATOM     19  C   UNL     1       4.401  -0.633   1.465  0.00  0.00    +0.000 A 
ATOM     20  F   UNL     1       5.805  -3.763   2.618  0.00  0.00    +0.000 F 
BRANCH  14  22
ATOM     21  C   UNL     1       1.166  -0.513  -0.631  0.00  0.00    +0.000 C 
ATOM     22  C   UNL     1       2.389  -0.056   0.121  0.00  0.00    +0.000 C 
ATOM     23  O   UNL     1       2.678   1.136   0.201  0.00  0.00    +0.000 OA
ENDBRANCH  14  22
ENDBRANCH   1  16
TORSDOF 3
