REMARK  Name = *****
REMARK  4 active torsions:
REMARK  status: ('A' for Active; 'I' for Inactive)
REMARK    1  A    between atoms: C_4  and  C_7
REMARK    2  A    between atoms: C_7  and  C_9
REMARK    3  A    between atoms: C_9  and  C_10
REMARK    4  A    between atoms: C_12  and  C_16
REMARK                            x       y       z     vdW  Elec       q    Type
REMARK                         _______ _______ _______ _____ _____    ______ ____
ROOT
ATOM      1  C   UNL     1      -5.196  -0.121  -0.391  0.00  0.00    +0.000 A 
ATOM      2  C   UNL     1      -6.048  -0.665  -1.366  0.00  0.00    +0.000 A 
ATOM      3  C   UNL     1      -7.375  -0.224  -1.497  0.00  0.00    +0.000 A 
ATOM      4  C   UNL     1      -7.854   0.759  -0.619  0.00  0.00    +0.000 A 
ATOM      5  C   UNL     1      -7.023   1.290   0.366  0.00  0.00    +0.000 A 
ATOM      6  C   UNL     1      -5.705   0.848   0.484  0.00  0.00    +0.000 A 
ENDROOT
BRANCH   3   7
ATOM      7  C   UNL     1      -8.291  -0.820  -2.538  0.00  0.00    +0.000 C 
ATOM      8  F   UNL     1      -7.623  -1.460  -3.539  0.00  0.00    +0.000 F 
ATOM      9  F   UNL     1      -9.147  -1.739  -2.013  0.00  0.00    +0.000 F 
ATOM     10  F   UNL     1      -9.072   0.112  -3.152  0.00  0.00    +0.000 F 
ENDBRANCH   3   7
BRANCH   1  11
ATOM     11  C   UNL     1      -3.779  -0.630  -0.255  0.00  0.00    +0.000 C 
BRANCH  11  12
ATOM     12  C   UNL     1      -2.743   0.455  -0.025  0.00  0.00    +0.000 C 
ATOM     13  O   UNL     1      -2.341   0.711   1.111  0.00  0.00    +0.000 OA
BRANCH  12  17
ATOM     14  C   UNL     1      -1.087   2.721  -3.282  0.00  0.00    +0.000 A 
ATOM     15  C   UNL     1      -0.564   2.835  -1.996  0.00  0.00    +0.000 A 
ATOM     16  C   UNL     1      -1.118   2.092  -0.952  0.00  0.00    +0.000 A 
ATOM     17  C   UNL     1      -2.197   1.226  -1.185  0.00  0.00    +0.000 A 
ATOM     18  C   UNL     1      -2.717   1.121  -2.480  0.00  0.00    +0.000 A 
ATOM     19  C   UNL     1      -2.161   1.868  -3.524  0.00  0.00    +0.000 A 
ENDBRANCH  12  17
ENDBRANCH  11  12
ENDBRANCH   1  11
TORSDOF 4
