REMARK  Name = *****
REMARK  4 active torsions:
REMARK  status: ('A' for Active; 'I' for Inactive)
REMARK    1  A    between atoms: C_1  and  C_2
REMARK    2  A    between atoms: C_5  and  C_8
REMARK    3  A    between atoms: C_10  and  C_11
REMARK    4  A    between atoms: C_10  and  C_13
REMARK                            x       y       z     vdW  Elec       q    Type
REMARK                         _______ _______ _______ _____ _____    ______ ____
ROOT
ATOM      1  C   UNL     1      -3.202  -0.037   0.420  0.00  0.00    +0.000 C 
ATOM      2  C   UNL     1      -4.222   0.894   1.015  0.00  0.00    +0.000 C 
ATOM      3  C   UNL     1      -3.571   1.270  -0.313  0.00  0.00    +0.000 C 
ENDROOT
BRANCH   1   8
ATOM      4  C   UNL     1      -4.700  -5.340  -1.551  0.00  0.00    +0.000 C 
ATOM      5  C   UNL     1      -4.339  -3.971  -1.059  0.00  0.00    +0.000 A 
ATOM      6  C   UNL     1      -3.502  -3.142  -1.810  0.00  0.00    +0.000 A 
ATOM      7  C   UNL     1      -3.144  -1.877  -1.334  0.00  0.00    +0.000 A 
ATOM      8  C   UNL     1      -3.610  -1.398  -0.099  0.00  0.00    +0.000 A 
ATOM      9  C   UNL     1      -4.425  -2.257   0.656  0.00  0.00    +0.000 A 
ATOM     10  C   UNL     1      -4.785  -3.524   0.187  0.00  0.00    +0.000 A 
ENDBRANCH   1   8
BRANCH   3  11
ATOM     11  C   UNL     1      -2.512   2.382  -0.279  0.00  0.00    +0.000 A 
ATOM     12  C   UNL     1      -1.214   2.170  -0.781  0.00  0.00    +0.000 A 
ATOM     13  C   UNL     1      -0.252   3.183  -0.761  0.00  0.00    +0.000 A 
ATOM     14  C   UNL     1      -0.569   4.435  -0.244  0.00  0.00    +0.000 A 
ATOM     15  C   UNL     1      -1.848   4.676   0.249  0.00  0.00    +0.000 A 
ATOM     16  C   UNL     1      -2.808   3.660   0.228  0.00  0.00    +0.000 A 
ENDBRANCH   3  11
BRANCH   3  17
ATOM     17  C   UNL     1      -4.453   1.190  -1.470  0.00  0.00    +0.000 C 
ATOM     18  N   UNL     1      -5.158   1.146  -2.391  0.00  0.00    +0.000 NA
ENDBRANCH   3  17
TORSDOF 3
