REMARK  Name = *****
REMARK  2 active torsions:
REMARK  status: ('A' for Active; 'I' for Inactive)
REMARK    1  A    between atoms: C_2  and  C_11
REMARK    2  A    between atoms: C_3  and  C_4
REMARK                            x       y       z     vdW  Elec       q    Type
REMARK                         _______ _______ _______ _____ _____    ______ ____
ROOT
ATOM      1  C   UNL     1      -0.005   0.653   0.052  0.00  0.00    +0.000 C 
ATOM      2  C   UNL     1       0.768  -0.628   0.231  0.00  0.00    +0.000 C 
ATOM      3  C   UNL     1      -0.686  -0.663  -0.233  0.00  0.00    +0.000 C 
ENDROOT
BRANCH   3   4
ATOM      4  C   UNL     1      -1.763  -1.225   0.690  0.00  0.00    +0.000 A 
ATOM      5  C   UNL     1      -2.481  -0.388   1.570  0.00  0.00    +0.000 A 
ATOM      6  C   UNL     1      -3.473  -0.878   2.427  0.00  0.00    +0.000 A 
ATOM      7  C   UNL     1      -3.791  -2.230   2.422  0.00  0.00    +0.000 A 
ATOM      8  C   UNL     1      -3.126  -3.085   1.550  0.00  0.00    +0.000 A 
ATOM      9  C   UNL     1      -2.133  -2.588   0.693  0.00  0.00    +0.000 A 
ATOM     10 BR   UNL     1      -1.341  -3.839  -0.499  0.00  0.00    +0.000 Br
ENDBRANCH   3   4
BRANCH   2  11
ATOM     11  C   UNL     1       1.890  -0.985  -0.722  0.00  0.00    +0.000 A 
ATOM     12  C   UNL     1       2.718  -0.013  -1.311  0.00  0.00    +0.000 A 
ATOM     13  C   UNL     1       3.760  -0.362  -2.176  0.00  0.00    +0.000 A 
ATOM     14  C   UNL     1       4.008  -1.700  -2.464  0.00  0.00    +0.000 A 
ATOM     15  C   UNL     1       3.220  -2.685  -1.879  0.00  0.00    +0.000 A 
ATOM     16  C   UNL     1       2.180  -2.328  -1.016  0.00  0.00    +0.000 A 
ENDBRANCH   2  11
TORSDOF 2
