REMARK  Name = *****
REMARK  4 active torsions:
REMARK  status: ('A' for Active; 'I' for Inactive)
REMARK    1  A    between atoms: C_4  and  C_7
REMARK    2  A    between atoms: C_7  and  C_8
REMARK    3  A    between atoms: C_8  and  C_11
REMARK    4  A    between atoms: C_11  and  C_12
REMARK                            x       y       z     vdW  Elec       q    Type
REMARK                         _______ _______ _______ _____ _____    ______ ____
ROOT
ATOM      1  C   UNL     1      -3.561  -0.694   0.373  0.00  0.00    +0.000 C 
ATOM      2  C   UNL     1      -2.988  -1.973   0.757  0.00  0.00    +0.000 C 
ATOM      3  C   UNL     1      -3.498  -1.219   1.723  0.00  0.00    +0.000 C 
ENDROOT
BRANCH   1   4
ATOM      4  C   UNL     1      -2.595   0.406  -0.060  0.00  0.00    +0.000 C 
BRANCH   4   8
ATOM      5  C   UNL     1      -1.120   2.826   3.198  0.00  0.00    +0.000 A 
ATOM      6  C   UNL     1      -0.342   1.787   2.692  0.00  0.00    +0.000 A 
ATOM      7  C   UNL     1      -0.818   1.007   1.638  0.00  0.00    +0.000 A 
ATOM      8  C   UNL     1      -2.079   1.260   1.078  0.00  0.00    +0.000 A 
ATOM      9  C   UNL     1      -2.856   2.304   1.599  0.00  0.00    +0.000 A 
ATOM     10  C   UNL     1      -2.377   3.084   2.653  0.00  0.00    +0.000 A 
ENDBRANCH   4   8
ENDBRANCH   1   4
BRANCH   1  11
ATOM     11  C   UNL     1      -4.927  -0.682  -0.299  0.00  0.00    +0.000 C 
BRANCH  11  12
ATOM     12  C   UNL     1      -4.842  -0.783  -1.808  0.00  0.00    +0.000 A 
ATOM     13  C   UNL     1      -4.354  -1.940  -2.431  0.00  0.00    +0.000 A 
ATOM     14  C   UNL     1      -4.277  -2.021  -3.823  0.00  0.00    +0.000 A 
ATOM     15  C   UNL     1      -4.696  -0.951  -4.609  0.00  0.00    +0.000 A 
ATOM     16  C   UNL     1      -5.195   0.201  -4.004  0.00  0.00    +0.000 A 
ATOM     17  C   UNL     1      -5.270   0.284  -2.613  0.00  0.00    +0.000 A 
ENDBRANCH  11  12
ENDBRANCH   1  11
TORSDOF 4
