REMARK  Name = *****
REMARK  5 active torsions:
REMARK  status: ('A' for Active; 'I' for Inactive)
REMARK    1  A    between atoms: C_1  and  C_2
REMARK    2  A    between atoms: C_3  and  C_9
REMARK    3  A    between atoms: C_9  and  C_10
REMARK    4  A    between atoms: C_10  and  C_11
REMARK    5  A    between atoms: C_11  and  C_12
REMARK                            x       y       z     vdW  Elec       q    Type
REMARK                         _______ _______ _______ _____ _____    ______ ____
ROOT
ATOM      1  C   UNL     1      -0.257  -2.397  -0.311  0.00  0.00    +0.000 C 
ENDROOT
BRANCH   1   4
ATOM      2  C   UNL     1      -0.167  -0.645   2.224  0.00  0.00    +0.000 C 
ATOM      3  C   UNL     1      -0.232  -0.108   0.815  0.00  0.00    +0.000 C 
ATOM      4  C   UNL     1      -0.280  -0.885  -0.291  0.00  0.00    +0.000 C 
ATOM      5  C   UNL     1      -0.302  -0.233  -1.649  0.00  0.00    +0.000 C 
ATOM      6  O   UNL     1      -0.386  -0.913  -2.671  0.00  0.00    +0.000 OA
ATOM      7  C   UNL     1      -0.138   1.266  -1.733  0.00  0.00    +0.000 C 
ATOM      8  C   UNL     1      -0.804   1.945  -0.554  0.00  0.00    +0.000 C 
ATOM      9  C   UNL     1      -0.255   1.405   0.759  0.00  0.00    +0.000 C 
ENDBRANCH   1   4
BRANCH   1  10
ATOM     10  C   UNL     1      -1.671  -2.986  -0.317  0.00  0.00    +0.000 C 
BRANCH  10  11
ATOM     11  C   UNL     1      -1.630  -4.517  -0.346  0.00  0.00    +0.000 C 
BRANCH  11  12
ATOM     12  C   UNL     1      -3.022  -5.169  -0.465  0.00  0.00    +0.000 C 
ATOM     13  C   UNL     1      -3.908  -4.886   0.760  0.00  0.00    +0.000 C 
ATOM     14  C   UNL     1      -5.252  -5.607   0.675  0.00  0.00    +0.000 C 
ATOM     15  C   UNL     1      -5.079  -7.106   0.458  0.00  0.00    +0.000 C 
ATOM     16  C   UNL     1      -4.215  -7.394  -0.764  0.00  0.00    +0.000 C 
ATOM     17  C   UNL     1      -2.866  -6.685  -0.675  0.00  0.00    +0.000 C 
ENDBRANCH  11  12
ENDBRANCH  10  11
ENDBRANCH   1  10
TORSDOF 4
