REMARK  Name = *****
REMARK  3 active torsions:
REMARK  status: ('A' for Active; 'I' for Inactive)
REMARK    1  A    between atoms: N_5  and  N_8
REMARK    2  A    between atoms: N_8  and  C_9
REMARK    3  A    between atoms: C_9  and  C_10
REMARK                            x       y       z     vdW  Elec       q    Type
REMARK                         _______ _______ _______ _____ _____    ______ ____
ROOT
ATOM      1  C   UNL     1       3.024  -1.639  -1.429  0.00  0.00    +0.000 C 
ENDROOT
BRANCH   1   2
ATOM      2  C   UNL     1       3.441  -2.282  -2.695  0.00  0.00    +0.000 A 
ATOM      3  C   UNL     1       4.792  -2.451  -3.024  0.00  0.00    +0.000 A 
ATOM      4  C   UNL     1       5.143  -3.066  -4.232  0.00  0.00    +0.000 A 
ATOM      5  C   UNL     1       4.152  -3.512  -5.110  0.00  0.00    +0.000 A 
ATOM      6  C   UNL     1       2.809  -3.342  -4.780  0.00  0.00    +0.000 A 
ATOM      7  C   UNL     1       2.449  -2.731  -3.581  0.00  0.00    +0.000 A 
ATOM      8 CL   UNL     1       1.591  -3.892  -5.863  0.00  0.00    +0.000 Cl
ATOM      9 CL   UNL     1       6.085  -1.926  -2.005  0.00  0.00    +0.000 Cl
ENDBRANCH   1   2
BRANCH   1  10
ATOM     10  N   UNL     1       1.770  -1.453  -1.149  0.00  0.00    +0.000 NA
BRANCH  10  15
ATOM     11  C   UNL     1      -0.619   1.036  -0.855  0.00  0.00    +0.000 C 
ATOM     12  C   UNL     1      -1.538   0.003  -0.210  0.00  0.00    +0.000 C 
ATOM     13  C   UNL     1      -0.906  -1.359   0.059  0.00  0.00    +0.000 C 
ATOM     14  C   UNL     1       0.421  -1.337   0.826  0.00  0.00    +0.000 C 
ATOM     15  N   UNL     1       1.567  -0.844   0.050  0.00  0.00    +0.000 NA
ATOM     16  C   UNL     1       1.733   0.616   0.108  0.00  0.00    +0.000 C 
ATOM     17  C   UNL     1       0.481   1.496   0.096  0.00  0.00    +0.000 C 
ENDBRANCH  10  15
ENDBRANCH   1  10
TORSDOF 3
