REMARK  Name = *****
REMARK  4 active torsions:
REMARK  status: ('A' for Active; 'I' for Inactive)
REMARK    1  A    between atoms: C_6  and  C_7
REMARK    2  A    between atoms: C_7  and  O_8
REMARK    3  A    between atoms: O_8  and  C_9
REMARK    4  A    between atoms: C_9  and  C_11
REMARK                            x       y       z     vdW  Elec       q    Type
REMARK                         _______ _______ _______ _____ _____    ______ ____
ROOT
ATOM      1  O   UNL     1      -3.977   1.387   0.137  0.00  0.00    +0.000 OA
ENDROOT
BRANCH   1   2
ATOM      2  C   UNL     1      -5.289   1.495  -0.183  0.00  0.00    +0.000 C 
ATOM      3  O   UNL     1      -6.046   0.575  -0.448  0.00  0.00    +0.000 OA
BRANCH   2   4
ATOM      4  C   UNL     1      -5.712   2.923  -0.163  0.00  0.00    +0.000 A 
ATOM      5  C   UNL     1      -4.840   3.963   0.194  0.00  0.00    +0.000 A 
ATOM      6  C   UNL     1      -5.290   5.287   0.204  0.00  0.00    +0.000 A 
ATOM      7  C   UNL     1      -6.609   5.576  -0.142  0.00  0.00    +0.000 A 
ATOM      8  C   UNL     1      -7.484   4.552  -0.499  0.00  0.00    +0.000 A 
ATOM      9  C   UNL     1      -7.037   3.227  -0.509  0.00  0.00    +0.000 A 
ATOM     10 CL   UNL     1      -7.159   7.205  -0.127  0.00  0.00    +0.000 Cl
ENDBRANCH   2   4
ENDBRANCH   1   2
BRANCH   1  11
ATOM     11  C   UNL     1      -3.451   0.055   0.146  0.00  0.00    +0.000 C 
BRANCH  11  17
ATOM     12  C   UNL     1      -3.307  -1.261  -2.008  0.00  0.00    +0.000 A 
ATOM     13  C   UNL     1      -2.692  -1.550  -3.228  0.00  0.00    +0.000 A 
ATOM     14  C   UNL     1      -1.572  -0.827  -3.620  0.00  0.00    +0.000 A 
ATOM     15  C   UNL     1      -1.056   0.183  -2.817  0.00  0.00    +0.000 A 
ATOM     16  C   UNL     1      -1.667   0.472  -1.596  0.00  0.00    +0.000 A 
ATOM     17  C   UNL     1      -2.796  -0.252  -1.178  0.00  0.00    +0.000 A 
ATOM     18  F   UNL     1      -0.982  -1.107  -4.789  0.00  0.00    +0.000 F 
ENDBRANCH  11  17
ENDBRANCH   1  11
TORSDOF 4
