REMARK  Name = *****
REMARK  3 active torsions:
REMARK  status: ('A' for Active; 'I' for Inactive)
REMARK    1  A    between atoms: C_4  and  C_7
REMARK    2  A    between atoms: C_8  and  C_9
REMARK    3  A    between atoms: C_8  and  C_11
REMARK                            x       y       z     vdW  Elec       q    Type
REMARK                         _______ _______ _______ _____ _____    ______ ____
ROOT
ATOM      1  C   UNL     1      -2.862   0.278  -0.203  0.00  0.00    +0.000 C 
ATOM      2  C   UNL     1      -3.715  -0.759  -0.329  0.00  0.00    +0.000 C 
ENDROOT
BRANCH   1   6
ATOM      3  C   UNL     1       1.357  -0.019   0.293  0.00  0.00    +0.000 A 
ATOM      4  C   UNL     1       0.811   0.076  -0.986  0.00  0.00    +0.000 A 
ATOM      5  C   UNL     1      -0.571   0.179  -1.150  0.00  0.00    +0.000 A 
ATOM      6  C   UNL     1      -1.411   0.188  -0.032  0.00  0.00    +0.000 A 
ATOM      7  C   UNL     1      -0.860   0.095   1.250  0.00  0.00    +0.000 A 
ATOM      8  C   UNL     1       0.523  -0.009   1.411  0.00  0.00    +0.000 A 
ENDBRANCH   1   6
BRANCH   2   9
ATOM      9  C   UNL     1      -5.158  -0.477  -0.480  0.00  0.00    +0.000 A 
ATOM     10  C   UNL     1      -5.628   0.338  -1.522  0.00  0.00    +0.000 A 
ATOM     11  C   UNL     1      -6.992   0.610  -1.654  0.00  0.00    +0.000 A 
ATOM     12  C   UNL     1      -7.902   0.068  -0.748  0.00  0.00    +0.000 A 
ATOM     13  C   UNL     1      -7.450  -0.749   0.286  0.00  0.00    +0.000 A 
ATOM     14  C   UNL     1      -6.086  -1.021   0.419  0.00  0.00    +0.000 A 
ENDBRANCH   2   9
BRANCH   2  15
ATOM     15  C   UNL     1      -3.216  -2.170  -0.284  0.00  0.00    +0.000 C 
ATOM     16  O   UNL     1      -3.951  -3.149  -0.358  0.00  0.00    +0.000 OA
ENDBRANCH   2  15
TORSDOF 3
