REMARK  Name = *****
REMARK  3 active torsions:
REMARK  status: ('A' for Active; 'I' for Inactive)
REMARK    1  A    between atoms: C_4  and  C_7
REMARK    2  A    between atoms: C_7  and  O_8
REMARK    3  A    between atoms: O_8  and  C_9
REMARK                            x       y       z     vdW  Elec       q    Type
REMARK                         _______ _______ _______ _____ _____    ______ ____
ROOT
ATOM      1  O   UNL     1      -3.595  -0.776  -0.091  0.00  0.00    +0.000 OA
ENDROOT
BRANCH   1   2
ATOM      2  C   UNL     1      -4.953  -0.718  -0.254  0.00  0.00    +0.000 A 
ATOM      3  C   UNL     1      -5.709   0.450  -0.382  0.00  0.00    +0.000 A 
ATOM      4  C   UNL     1      -7.099   0.376  -0.539  0.00  0.00    +0.000 A 
ATOM      5  C   UNL     1      -7.742  -0.861  -0.569  0.00  0.00    +0.000 A 
ATOM      6  C   UNL     1      -6.996  -2.029  -0.440  0.00  0.00    +0.000 A 
ATOM      7  C   UNL     1      -5.614  -1.950  -0.283  0.00  0.00    +0.000 A 
ATOM      8  F   UNL     1      -4.918  -3.091  -0.164  0.00  0.00    +0.000 F 
ENDBRANCH   1   2
BRANCH   1   9
ATOM      9  C   UNL     1      -2.873   0.453  -0.156  0.00  0.00    +0.000 C 
BRANCH   9  13
ATOM     10  C   UNL     1       1.397  -0.173   0.091  0.00  0.00    +0.000 A 
ATOM     11  C   UNL     1       0.584  -1.161  -0.461  0.00  0.00    +0.000 A 
ATOM     12  C   UNL     1      -0.797  -0.971  -0.534  0.00  0.00    +0.000 A 
ATOM     13  C   UNL     1      -1.385   0.204  -0.044  0.00  0.00    +0.000 A 
ATOM     14  C   UNL     1      -0.552   1.197   0.497  0.00  0.00    +0.000 A 
ATOM     15  C   UNL     1       0.829   1.006   0.568  0.00  0.00    +0.000 A 
ENDBRANCH   9  13
ENDBRANCH   1   9
TORSDOF 3
