REMARK  Name = *****
REMARK  4 active torsions:
REMARK  status: ('A' for Active; 'I' for Inactive)
REMARK    1  A    between atoms: C_4  and  C_7
REMARK    2  A    between atoms: C_7  and  N_8
REMARK    3  A    between atoms: N_8  and  C_9
REMARK    4  A    between atoms: C_12  and  C_15
REMARK                            x       y       z     vdW  Elec       q    Type
REMARK                         _______ _______ _______ _____ _____    ______ ____
ROOT
ATOM      1  C   UNL     1       5.413   0.319  -0.726  0.00  0.00    +0.000 A 
ATOM      2  C   UNL     1       6.012   1.567  -0.846  0.00  0.00    +0.000 A 
ATOM      3  C   UNL     1       7.392   1.640  -1.043  0.00  0.00    +0.000 A 
ATOM      4  C   UNL     1       8.167   0.468  -1.112  0.00  0.00    +0.000 A 
ATOM      5  C   UNL     1       7.530  -0.781  -0.995  0.00  0.00    +0.000 A 
ATOM      6  C   UNL     1       6.150  -0.857  -0.798  0.00  0.00    +0.000 A 
ENDROOT
BRANCH   4   7
ATOM      7  C   UNL     1       9.656   0.552  -1.350  0.00  0.00    +0.000 C 
ATOM      8  F   UNL     1      10.231   1.630  -0.745  0.00  0.00    +0.000 F 
ATOM      9  F   UNL     1      10.337  -0.536  -0.893  0.00  0.00    +0.000 F 
ATOM     10  F   UNL     1       9.964   0.658  -2.672  0.00  0.00    +0.000 F 
ENDBRANCH   4   7
BRANCH   1  11
ATOM     11  N   UNL     1       4.044   0.245  -0.535  0.00  0.00    +0.000 NA
BRANCH  11  12
ATOM     12  C   UNL     1       2.942   0.185  -0.382  0.00  0.00    +0.000 C 
BRANCH  12  16
ATOM     13  C   UNL     1      -1.237  -0.043   0.184  0.00  0.00    +0.000 A 
ATOM     14  C   UNL     1      -0.611   1.201   0.102  0.00  0.00    +0.000 A 
ATOM     15  C   UNL     1       0.770   1.277  -0.084  0.00  0.00    +0.000 A 
ATOM     16  C   UNL     1       1.527   0.108  -0.189  0.00  0.00    +0.000 A 
ATOM     17  C   UNL     1       0.899  -1.137  -0.107  0.00  0.00    +0.000 A 
ATOM     18  C   UNL     1      -0.483  -1.212   0.079  0.00  0.00    +0.000 A 
ENDBRANCH  12  16
ENDBRANCH  11  12
ENDBRANCH   1  11
TORSDOF 4
