REMARK  Name = *****
REMARK  3 active torsions:
REMARK  status: ('A' for Active; 'I' for Inactive)
REMARK    1  A    between atoms: C_1  and  C_2
REMARK    2  A    between atoms: C_4  and  N_8
REMARK    3  A    between atoms: C_9  and  C_10
REMARK                            x       y       z     vdW  Elec       q    Type
REMARK                         _______ _______ _______ _____ _____    ______ ____
ROOT
ATOM      1  C   UNL     1       2.522  -0.112  -0.411  0.00  0.00    +0.000 C 
ATOM      2  C   UNL     1       1.063   0.004  -0.087  0.00  0.00    +0.000 A 
ATOM      3  C   UNL     1       0.417   1.246  -0.160  0.00  0.00    +0.000 A 
ATOM      4  C   UNL     1      -0.950   1.360   0.112  0.00  0.00    +0.000 A 
ATOM      5  C   UNL     1      -1.684   0.214   0.422  0.00  0.00    +0.000 A 
ATOM      6  C   UNL     1      -1.056  -1.031   0.483  0.00  0.00    +0.000 A 
ATOM      7  C   UNL     1       0.312  -1.135   0.228  0.00  0.00    +0.000 A 
ENDROOT
BRANCH   4   8
ATOM      8  N   UNL     1      -1.589   2.605   0.037  0.00  0.00    +0.000 NA
ATOM      9  C   UNL     1      -1.547   3.321   1.117  0.00  0.00    +0.000 C 
BRANCH   9  10
ATOM     10  C   UNL     1      -2.169   4.622   1.159  0.00  0.00    +0.000 A 
ATOM     11  C   UNL     1      -2.863   5.285   0.167  0.00  0.00    +0.000 A 
ATOM     12  C   UNL     1      -3.329   6.562   0.595  0.00  0.00    +0.000 A 
ATOM     13  C   UNL     1      -2.972   6.829   1.898  0.00  0.00    +0.000 A 
ATOM     14  S   UNL     1      -2.084   5.544   2.596  0.00  0.00    +0.000 S 
ENDBRANCH   9  10
ENDBRANCH   4   8
TORSDOF 2
