REMARK  Name = *****
REMARK  2 active torsions:
REMARK  status: ('A' for Active; 'I' for Inactive)
REMARK    1  A    between atoms: C_3  and  C_7
REMARK    2  A    between atoms: C_8  and  C_9
REMARK                            x       y       z     vdW  Elec       q    Type
REMARK                         _______ _______ _______ _____ _____    ______ ____
ROOT
ATOM      1  C   UNL     1      -2.849   0.261  -0.306  0.00  0.00    +0.000 C 
ATOM      2  C   UNL     1      -3.743  -0.741  -0.335  0.00  0.00    +0.000 C 
ENDROOT
BRANCH   1   5
ATOM      3  C   UNL     1       0.747  -1.304  -0.096  0.00  0.00    +0.000 C 
ATOM      4  C   UNL     1      -0.791  -1.256   0.006  0.00  0.00    +0.000 C 
ATOM      5  C   UNL     1      -1.411   0.124  -0.101  0.00  0.00    +0.000 C 
ATOM      6  C   UNL     1      -0.642   1.225   0.000  0.00  0.00    +0.000 C 
ATOM      7  C   UNL     1       0.778   1.157   0.238  0.00  0.00    +0.000 C 
ATOM      8  C   UNL     1       1.440  -0.006   0.190  0.00  0.00    +0.000 C 
ENDBRANCH   1   5
BRANCH   2   9
ATOM      9  C   UNL     1      -5.186  -0.540  -0.536  0.00  0.00    +0.000 A 
ATOM     10  C   UNL     1      -5.689   0.368  -1.477  0.00  0.00    +0.000 A 
ATOM     11  C   UNL     1      -7.067   0.509  -1.663  0.00  0.00    +0.000 A 
ATOM     12  C   UNL     1      -7.955  -0.264  -0.917  0.00  0.00    +0.000 A 
ATOM     13  C   UNL     1      -7.466  -1.182   0.010  0.00  0.00    +0.000 A 
ATOM     14  C   UNL     1      -6.088  -1.324   0.195  0.00  0.00    +0.000 A 
ENDBRANCH   2   9
TORSDOF 2
