REMARK  Name = *****
REMARK  4 active torsions:
REMARK  status: ('A' for Active; 'I' for Inactive)
REMARK    1  A    between atoms: C_1  and  C_2
REMARK    2  A    between atoms: C_2  and  C_4
REMARK    3  A    between atoms: C_4  and  C_12
REMARK    4  A    between atoms: C_5  and  C_6
REMARK                            x       y       z     vdW  Elec       q    Type
REMARK                         _______ _______ _______ _____ _____    ______ ____
ROOT
ATOM      1  C   UNL     1       3.449  -0.583  -1.338  0.00  0.00    +0.000 C 
ATOM      2  C   UNL     1       2.686  -0.448  -2.441  0.00  0.00    +0.000 C 
ENDROOT
BRANCH   2   3
ATOM      3  C   UNL     1       1.220  -0.381  -2.479  0.00  0.00    +0.000 A 
ATOM      4  C   UNL     1       0.602   0.747  -3.031  0.00  0.00    +0.000 A 
ATOM      5  C   UNL     1      -0.791   0.831  -3.088  0.00  0.00    +0.000 A 
ATOM      6  C   UNL     1      -1.574  -0.215  -2.601  0.00  0.00    +0.000 A 
ATOM      7  C   UNL     1      -0.965  -1.347  -2.062  0.00  0.00    +0.000 A 
ATOM      8  C   UNL     1       0.427  -1.433  -2.005  0.00  0.00    +0.000 A 
ENDBRANCH   2   3
BRANCH   1   9
ATOM      9  C   UNL     1       4.920  -0.659  -1.441  0.00  0.00    +0.000 A 
ATOM     10  C   UNL     1       5.645   0.310  -2.152  0.00  0.00    +0.000 A 
ATOM     11  C   UNL     1       7.039   0.242  -2.232  0.00  0.00    +0.000 A 
ATOM     12  C   UNL     1       7.724  -0.793  -1.599  0.00  0.00    +0.000 A 
ATOM     13  C   UNL     1       7.018  -1.758  -0.884  0.00  0.00    +0.000 A 
ATOM     14  C   UNL     1       5.625  -1.690  -0.804  0.00  0.00    +0.000 A 
ENDBRANCH   1   9
BRANCH   1  16
ATOM     15  C   UNL     1       2.274   0.594   0.615  0.00  0.00    +0.000 C 
ATOM     16  C   UNL     1       2.797  -0.680   0.006  0.00  0.00    +0.000 C 
ATOM     17  O   UNL     1       2.720  -1.760   0.591  0.00  0.00    +0.000 OA
ENDBRANCH   1  16
TORSDOF 3
