REMARK  Name = *****
REMARK  5 active torsions:
REMARK  status: ('A' for Active; 'I' for Inactive)
REMARK    1  A    between atoms: C_1  and  C_2
REMARK    2  A    between atoms: C_7  and  C_8
REMARK    3  A    between atoms: C_8  and  S_9
REMARK    4  A    between atoms: C_8  and  N_11
REMARK    5  A    between atoms: N_11  and  C_12
REMARK                            x       y       z     vdW  Elec       q    Type
REMARK                         _______ _______ _______ _____ _____    ______ ____
ROOT
ATOM      1  C   UNL     1       0.782  -2.559  -0.519  0.00  0.00    +0.000 C 
ENDROOT
BRANCH   1   8
ATOM      2  C   UNL     1       1.660  -0.122  -1.968  0.00  0.00    +0.000 C 
ATOM      3  C   UNL     1       0.707  -0.064  -0.808  0.00  0.00    +0.000 A 
ATOM      4  C   UNL     1       0.250   1.182  -0.353  0.00  0.00    +0.000 A 
ATOM      5  C   UNL     1      -0.636   1.269   0.723  0.00  0.00    +0.000 A 
ATOM      6  C   UNL     1      -1.074   0.113   1.367  0.00  0.00    +0.000 A 
ATOM      7  C   UNL     1      -0.622  -1.134   0.941  0.00  0.00    +0.000 A 
ATOM      8  C   UNL     1       0.264  -1.223  -0.143  0.00  0.00    +0.000 A 
ENDBRANCH   1   8
BRANCH   1   9
ATOM      9  S   UNL     1      -0.225  -3.625  -1.251  0.00  0.00    +0.000 S 
ATOM     10  O   UNL     1      -1.604  -3.121  -1.507  0.00  0.00    +0.000 OA
ENDBRANCH   1   9
BRANCH   1  11
ATOM     11  N   UNL     1       2.100  -2.767  -0.141  0.00  0.00    +0.000 N 
ATOM     12  H   UNL     1       2.472  -2.049   0.419  0.00  0.00    +0.000 HD
BRANCH  11  13
ATOM     13  C   UNL     1       3.010  -3.814  -0.408  0.00  0.00    +0.000 A 
ATOM     14  C   UNL     1       2.844  -4.801  -1.380  0.00  0.00    +0.000 A 
ATOM     15  C   UNL     1       3.822  -5.785  -1.571  0.00  0.00    +0.000 A 
ATOM     16  C   UNL     1       4.980  -5.788  -0.799  0.00  0.00    +0.000 A 
ATOM     17  C   UNL     1       5.168  -4.799   0.159  0.00  0.00    +0.000 A 
ATOM     18  C   UNL     1       4.192  -3.816   0.348  0.00  0.00    +0.000 A 
ENDBRANCH  11  13
ENDBRANCH   1  11
TORSDOF 4
