REMARK  Name = *****
REMARK  2 active torsions:
REMARK  status: ('A' for Active; 'I' for Inactive)
REMARK    1  A    between atoms: C_1  and  C_2
REMARK    2  A    between atoms: C_2  and  C_12
REMARK                            x       y       z     vdW  Elec       q    Type
REMARK                         _______ _______ _______ _____ _____    ______ ____
ROOT
ATOM      1  C   UNL     1       1.007   0.221   0.026  0.00  0.00    +0.000 C 
ATOM      2  C   UNL     1       2.545   0.087  -0.058  0.00  0.00    +0.000 C 
ATOM      3  C   UNL     1       3.154   1.307   0.688  0.00  0.00    +0.000 C 
ATOM      4  C   UNL     1       4.646   1.286   0.957  0.00  0.00    +0.000 A 
ATOM      5  C   UNL     1       5.288   2.513   1.209  0.00  0.00    +0.000 A 
ATOM      6  C   UNL     1       6.653   2.565   1.484  0.00  0.00    +0.000 A 
ATOM      7  C   UNL     1       7.396   1.392   1.520  0.00  0.00    +0.000 A 
ATOM      8  C   UNL     1       6.769   0.168   1.289  0.00  0.00    +0.000 A 
ATOM      9  C   UNL     1       5.389   0.093   1.022  0.00  0.00    +0.000 A 
ATOM     10  C   UNL     1       4.806  -1.272   0.749  0.00  0.00    +0.000 C 
ATOM     11  S   UNL     1       3.012  -1.401   0.934  0.00  0.00    +0.000 S 
ENDROOT
BRANCH   2  12
ATOM     12  C   UNL     1       2.938  -0.080  -1.538  0.00  0.00    +0.000 A 
ATOM     13  C   UNL     1       3.718   0.864  -2.229  0.00  0.00    +0.000 A 
ATOM     14  C   UNL     1       4.054   0.686  -3.575  0.00  0.00    +0.000 A 
ATOM     15  C   UNL     1       3.612  -0.437  -4.267  0.00  0.00    +0.000 A 
ATOM     16  C   UNL     1       2.833  -1.384  -3.613  0.00  0.00    +0.000 A 
ATOM     17  C   UNL     1       2.499  -1.206  -2.268  0.00  0.00    +0.000 A 
ENDBRANCH   2  12
TORSDOF 1
