REMARK  Name = *****
REMARK  3 active torsions:
REMARK  status: ('A' for Active; 'I' for Inactive)
REMARK    1  A    between atoms: C_1  and  N_2
REMARK    2  A    between atoms: N_2  and  C_3
REMARK    3  A    between atoms: N_2  and  C_9
REMARK                            x       y       z     vdW  Elec       q    Type
REMARK                         _______ _______ _______ _____ _____    ______ ____
ROOT
ATOM      1  C   UNL     1       1.455   1.425  -0.371  0.00  0.00    +0.000 C 
ATOM      2  N   UNL     1       2.780   0.826  -0.215  0.00  0.00    +0.000 N 
ENDROOT
BRANCH   2   3
ATOM      3  C   UNL     1       3.384   0.023  -1.175  0.00  0.00    +0.000 C 
ATOM      4  C   UNL     1       3.068  -0.285  -2.443  0.00  0.00    +0.000 C 
ATOM      5  C   UNL     1       1.910   0.208  -3.266  0.00  0.00    +0.000 C 
ATOM      6  C   UNL     1       2.008  -0.593  -4.560  0.00  0.00    +0.000 C 
ATOM      7  C   UNL     1       3.493  -0.880  -4.704  0.00  0.00    +0.000 C 
ATOM      8  C   UNL     1       3.930  -1.198  -3.281  0.00  0.00    +0.000 C 
ENDBRANCH   2   3
BRANCH   2   9
ATOM      9  C   UNL     1       3.358   0.991   1.073  0.00  0.00    +0.000 A 
ATOM     10  C   UNL     1       2.599   0.879   2.250  0.00  0.00    +0.000 A 
ATOM     11  C   UNL     1       3.184   1.042   3.510  0.00  0.00    +0.000 A 
ATOM     12  C   UNL     1       4.544   1.319   3.619  0.00  0.00    +0.000 A 
ATOM     13  C   UNL     1       5.319   1.429   2.469  0.00  0.00    +0.000 A 
ATOM     14  C   UNL     1       4.731   1.264   1.211  0.00  0.00    +0.000 A 
ENDBRANCH   2   9
TORSDOF 2
