REMARK  Name = *****
REMARK  3 active torsions:
REMARK  status: ('A' for Active; 'I' for Inactive)
REMARK    1  A    between atoms: C_1  and  C_2
REMARK    2  A    between atoms: C_5  and  C_8
REMARK    3  A    between atoms: C_9  and  C_10
REMARK                            x       y       z     vdW  Elec       q    Type
REMARK                         _______ _______ _______ _____ _____    ______ ____
ROOT
ATOM      1  C   UNL     1      -3.255  -0.019  -0.041  0.00  0.00    +0.000 C 
ATOM      2  C   UNL     1      -4.043   1.053  -0.228  0.00  0.00    +0.000 C 
ENDROOT
BRANCH   1   7
ATOM      3  C   UNL     1       2.535   0.033  -0.012  0.00  0.00    +0.000 C 
ATOM      4  C   UNL     1       1.036   0.047  -0.044  0.00  0.00    +0.000 A 
ATOM      5  C   UNL     1       0.321   1.095   0.545  0.00  0.00    +0.000 A 
ATOM      6  C   UNL     1      -1.077   1.091   0.542  0.00  0.00    +0.000 A 
ATOM      7  C   UNL     1      -1.786   0.038  -0.048  0.00  0.00    +0.000 A 
ATOM      8  C   UNL     1      -1.069  -1.025  -0.608  0.00  0.00    +0.000 A 
ATOM      9  C   UNL     1       0.329  -1.021  -0.607  0.00  0.00    +0.000 A 
ENDBRANCH   1   7
BRANCH   2  10
ATOM     10  C   UNL     1      -5.497   1.044  -0.210  0.00  0.00    +0.000 C 
ATOM     11  C   UNL     1      -6.239   0.048  -0.730  0.00  0.00    +0.000 C 
ATOM     12  C   UNL     1      -7.737   0.024  -0.783  0.00  0.00    +0.000 C 
ATOM     13  C   UNL     1      -8.347   1.409  -0.618  0.00  0.00    +0.000 C 
ATOM     14  C   UNL     1      -7.714   2.150   0.546  0.00  0.00    +0.000 C 
ATOM     15  C   UNL     1      -6.212   2.233   0.380  0.00  0.00    +0.000 C 
ATOM     16  O   UNL     1      -5.585   3.213   0.782  0.00  0.00    +0.000 OA
ENDBRANCH   2  10
TORSDOF 2
