REMARK  Name = *****
REMARK  3 active torsions:
REMARK  status: ('A' for Active; 'I' for Inactive)
REMARK    1  A    between atoms: C_4  and  C_7
REMARK    2  A    between atoms: C_8  and  C_9
REMARK    3  A    between atoms: C_14  and  N_15
REMARK                            x       y       z     vdW  Elec       q    Type
REMARK                         _______ _______ _______ _____ _____    ______ ____
ROOT
ATOM      1  C   UNL     1      -5.174  -0.189  -0.353  0.00  0.00    +0.000 A 
ATOM      2  C   UNL     1      -5.916  -0.446   0.811  0.00  0.00    +0.000 A 
ATOM      3  C   UNL     1      -7.280  -0.169   0.859  0.00  0.00    +0.000 A 
ATOM      4  C   UNL     1      -7.916   0.356  -0.260  0.00  0.00    +0.000 A 
ATOM      5  C   UNL     1      -7.187   0.615  -1.424  0.00  0.00    +0.000 A 
ATOM      6  C   UNL     1      -5.803   0.376  -1.491  0.00  0.00    +0.000 A 
ENDROOT
BRANCH   6   7
ATOM      7  N   UNL     1      -5.067   0.581  -2.693  0.00  0.00    +0.000 N 
ATOM      8  I   UNL     1      -5.408   2.172  -3.848  0.00  0.00    +0.000 I 
ATOM      9  H   UNL     1      -4.379  -0.072  -2.958  0.00  0.00    +0.000 HD
ENDBRANCH   6   7
BRANCH   1  11
ATOM     10  C   UNL     1      -2.807   0.435  -0.173  0.00  0.00    +0.000 C 
ATOM     11  C   UNL     1      -3.741  -0.518  -0.316  0.00  0.00    +0.000 C 
BRANCH  10  15
ATOM     12  C   UNL     1       1.420  -0.209  -0.016  0.00  0.00    +0.000 A 
ATOM     13  C   UNL     1       0.630  -1.038  -0.808  0.00  0.00    +0.000 A 
ATOM     14  C   UNL     1      -0.754  -0.846  -0.863  0.00  0.00    +0.000 A 
ATOM     15  C   UNL     1      -1.362   0.173  -0.118  0.00  0.00    +0.000 A 
ATOM     16  C   UNL     1      -0.554   1.011   0.662  0.00  0.00    +0.000 A 
ATOM     17  C   UNL     1       0.829   0.817   0.718  0.00  0.00    +0.000 A 
ENDBRANCH  10  15
ENDBRANCH   1  11
TORSDOF 3
