REMARK  Name = *****
REMARK  1 active torsions:
REMARK  status: ('A' for Active; 'I' for Inactive)
REMARK    1  A    between atoms: C_6  and  C_11
REMARK                            x       y       z     vdW  Elec       q    Type
REMARK                         _______ _______ _______ _____ _____    ______ ____
ROOT
ATOM      1  C   UNL     1       2.452  -0.696  -0.016  0.00  0.00    +0.000 A 
ATOM      2  C   UNL     1       2.446   0.686  -0.178  0.00  0.00    +0.000 A 
ATOM      3  C   UNL     1       1.234   1.379  -0.212  0.00  0.00    +0.000 A 
ATOM      4  C   UNL     1       0.012   0.698  -0.083  0.00  0.00    +0.000 A 
ATOM      5  C   UNL     1      -1.217   1.381  -0.114  0.00  0.00    +0.000 A 
ATOM      6  C   UNL     1      -2.446   0.707   0.015  0.00  0.00    +0.000 A 
ATOM      7  C   UNL     1      -2.412  -0.686   0.175  0.00  0.00    +0.000 A 
ATOM      8  C   UNL     1      -1.200  -1.383   0.208  0.00  0.00    +0.000 A 
ATOM      9  C   UNL     1       0.020  -0.704   0.082  0.00  0.00    +0.000 A 
ATOM     10  C   UNL     1       1.246  -1.388   0.114  0.00  0.00    +0.000 A 
ENDROOT
BRANCH   6  11
ATOM     11  C   UNL     1      -3.723   1.443  -0.008  0.00  0.00    +0.000 A 
ATOM     12  C   UNL     1      -3.919   2.571   0.810  0.00  0.00    +0.000 A 
ATOM     13  C   UNL     1      -5.128   3.276   0.796  0.00  0.00    +0.000 A 
ATOM     14  C   UNL     1      -6.167   2.867  -0.036  0.00  0.00    +0.000 A 
ATOM     15  C   UNL     1      -5.998   1.752  -0.852  0.00  0.00    +0.000 A 
ATOM     16  C   UNL     1      -4.791   1.054  -0.833  0.00  0.00    +0.000 A 
ATOM     17  F   UNL     1      -4.670  -0.011  -1.642  0.00  0.00    +0.000 F 
ENDBRANCH   6  11
TORSDOF 1
