REMARK  Name = *****
REMARK  4 active torsions:
REMARK  status: ('A' for Active; 'I' for Inactive)
REMARK    1  A    between atoms: C_4  and  C_6
REMARK    2  A    between atoms: C_6  and  S_7
REMARK    3  A    between atoms: S_7  and  C_8
REMARK    4  A    between atoms: C_8  and  C_9
REMARK                            x       y       z     vdW  Elec       q    Type
REMARK                         _______ _______ _______ _____ _____    ______ ____
ROOT
ATOM      1  S   UNL     1       1.741  -3.480   0.038  0.00  0.00    +0.000 S 
ENDROOT
BRANCH   1   2
ATOM      2  C   UNL     1       0.095  -2.710  -0.023  0.00  0.00    +0.000 C 
BRANCH   2   6
ATOM      3  C   UNL     1       0.534   1.021  -0.518  0.00  0.00    +0.000 A 
ATOM      4  C   UNL     1       0.176   1.129   0.807  0.00  0.00    +0.000 A 
ATOM      5  S   UNL     1      -0.142  -0.395   1.513  0.00  0.00    +0.000 S 
ATOM      6  C   UNL     1       0.203  -1.218   0.048  0.00  0.00    +0.000 A 
ATOM      7  C   UNL     1       0.547  -0.334  -0.957  0.00  0.00    +0.000 A 
ENDBRANCH   2   6
ENDBRANCH   1   2
BRANCH   1   8
ATOM      8  C   UNL     1       1.214  -5.220  -0.002  0.00  0.00    +0.000 C 
BRANCH   8   9
ATOM      9  C   UNL     1       2.399  -6.134  -0.012  0.00  0.00    +0.000 A 
ATOM     10  C   UNL     1       3.207  -6.504   1.047  0.00  0.00    +0.000 A 
ATOM     11  C   UNL     1       4.239  -7.405   0.656  0.00  0.00    +0.000 A 
ATOM     12  C   UNL     1       4.184  -7.698  -0.688  0.00  0.00    +0.000 A 
ATOM     13  S   UNL     1       2.895  -6.891  -1.469  0.00  0.00    +0.000 S 
ENDBRANCH   8   9
ENDBRANCH   1   8
TORSDOF 4
