REMARK  Name = *****
REMARK  4 active torsions:
REMARK  status: ('A' for Active; 'I' for Inactive)
REMARK    1  A    between atoms: C_4  and  C_7
REMARK    2  A    between atoms: C_7  and  O_8
REMARK    3  A    between atoms: O_8  and  C_9
REMARK    4  A    between atoms: C_9  and  C_11
REMARK                            x       y       z     vdW  Elec       q    Type
REMARK                         _______ _______ _______ _____ _____    ______ ____
ROOT
ATOM      1  O   UNL     1      -1.259   1.448   2.716  0.00  0.00    +0.000 OA
ENDROOT
BRANCH   1   2
ATOM      2  C   UNL     1      -2.437   0.828   2.458  0.00  0.00    +0.000 C 
ATOM      3  O   UNL     1      -2.578  -0.155   1.749  0.00  0.00    +0.000 OA
BRANCH   2   4
ATOM      4  C   UNL     1      -3.557   1.507   3.161  0.00  0.00    +0.000 A 
ATOM      5  C   UNL     1      -3.374   2.673   3.918  0.00  0.00    +0.000 A 
ATOM      6  C   UNL     1      -4.462   3.273   4.557  0.00  0.00    +0.000 A 
ATOM      7  C   UNL     1      -5.735   2.714   4.444  0.00  0.00    +0.000 A 
ATOM      8  C   UNL     1      -5.925   1.556   3.691  0.00  0.00    +0.000 A 
ATOM      9  C   UNL     1      -4.840   0.954   3.051  0.00  0.00    +0.000 A 
ENDBRANCH   2   4
ENDBRANCH   1   2
BRANCH   1  10
ATOM     10  C   UNL     1      -0.105   0.890   2.054  0.00  0.00    +0.000 C 
BRANCH  10  14
ATOM     11  C   UNL     1       2.768   2.850   0.344  0.00  0.00    +0.000 C 
ATOM     12  C   UNL     1       1.606   3.542   1.042  0.00  0.00    +0.000 C 
ATOM     13  S   UNL     1      -0.004   3.123   0.320  0.00  0.00    +0.000 S 
ATOM     14  C   UNL     1      -0.021   1.308   0.574  0.00  0.00    +0.000 C 
ATOM     15  S   UNL     1       1.376   0.520  -0.302  0.00  0.00    +0.000 S 
ATOM     16  C   UNL     1       2.780   1.337   0.507  0.00  0.00    +0.000 C 
ENDBRANCH  10  14
ENDBRANCH   1  10
TORSDOF 4
