REMARK  Name = *****
REMARK  3 active torsions:
REMARK  status: ('A' for Active; 'I' for Inactive)
REMARK    1  A    between atoms: C_5  and  C_7
REMARK    2  A    between atoms: C_7  and  O_9
REMARK    3  A    between atoms: O_9  and  C_10
REMARK                            x       y       z     vdW  Elec       q    Type
REMARK                         _______ _______ _______ _____ _____    ______ ____
ROOT
ATOM      1  C   UNL     1       0.903  -2.202  -0.651  0.00  0.00    +0.000 C 
ATOM      2  O   UNL     1       0.456  -3.333  -0.524  0.00  0.00    +0.000 OA
ENDROOT
BRANCH   1   7
ATOM      3  C   UNL     1      -1.941   0.006   0.449  0.00  0.00    +0.000 A 
ATOM      4  C   UNL     1      -1.288   1.203   0.741  0.00  0.00    +0.000 A 
ATOM      5  C   UNL     1       0.096   1.295   0.590  0.00  0.00    +0.000 A 
ATOM      6  C   UNL     1       0.822   0.193   0.139  0.00  0.00    +0.000 A 
ATOM      7  C   UNL     1       0.178  -1.005  -0.171  0.00  0.00    +0.000 A 
ATOM      8  C   UNL     1      -1.212  -1.097  -0.003  0.00  0.00    +0.000 A 
ATOM      9  F   UNL     1       2.153   0.318   0.042  0.00  0.00    +0.000 F 
ENDBRANCH   1   7
BRANCH   1  10
ATOM     10  O   UNL     1       2.062  -1.826  -1.298  0.00  0.00    +0.000 OA
BRANCH  10  11
ATOM     11  C   UNL     1       2.798  -2.902  -1.800  0.00  0.00    +0.000 A 
ATOM     12  C   UNL     1       2.407  -3.528  -2.984  0.00  0.00    +0.000 A 
ATOM     13  C   UNL     1       3.186  -4.567  -3.493  0.00  0.00    +0.000 A 
ATOM     14  C   UNL     1       4.349  -4.954  -2.823  0.00  0.00    +0.000 A 
ATOM     15  C   UNL     1       4.744  -4.308  -1.650  0.00  0.00    +0.000 A 
ATOM     16  C   UNL     1       3.968  -3.268  -1.137  0.00  0.00    +0.000 A 
ATOM     17 CL   UNL     1       5.310  -6.234  -3.455  0.00  0.00    +0.000 Cl
ENDBRANCH  10  11
ENDBRANCH   1  10
TORSDOF 3
