REMARK  Name = *****
REMARK  3 active torsions:
REMARK  status: ('A' for Active; 'I' for Inactive)
REMARK    1  A    between atoms: C_4  and  N_7
REMARK    2  A    between atoms: N_7  and  C_8
REMARK    3  A    between atoms: C_8  and  C_10
REMARK                            x       y       z     vdW  Elec       q    Type
REMARK                         _______ _______ _______ _____ _____    ______ ____
ROOT
ATOM      1  N   UNL     1       2.797  -0.416   0.366  0.00  0.00    +0.000 N 
ATOM      2  H   UNL     1       3.212   0.096  -0.366  0.00  0.00    +0.000 HD
ENDROOT
BRANCH   1   6
ATOM      3  C   UNL     1      -1.343   0.161  -0.639  0.00  0.00    +0.000 C 
ATOM      4  C   UNL     1      -0.904  -1.218  -0.157  0.00  0.00    +0.000 C 
ATOM      5  C   UNL     1       0.611  -1.388  -0.236  0.00  0.00    +0.000 C 
ATOM      6  C   UNL     1       1.346  -0.274   0.522  0.00  0.00    +0.000 C 
ATOM      7  C   UNL     1       0.902   1.107   0.021  0.00  0.00    +0.000 C 
ATOM      8  C   UNL     1      -0.613   1.276   0.104  0.00  0.00    +0.000 C 
ENDBRANCH   1   6
BRANCH   1   9
ATOM      9  C   UNL     1       3.649  -1.193   1.138  0.00  0.00    +0.000 C 
ATOM     10  S   UNL     1       3.207  -2.042   2.516  0.00  0.00    +0.000 S 
BRANCH   9  11
ATOM     11  C   UNL     1       5.052  -1.199   0.634  0.00  0.00    +0.000 A 
ATOM     12  C   UNL     1       5.711   0.021   0.430  0.00  0.00    +0.000 A 
ATOM     13  C   UNL     1       7.018   0.032  -0.059  0.00  0.00    +0.000 A 
ATOM     14  C   UNL     1       7.666  -1.170  -0.345  0.00  0.00    +0.000 A 
ATOM     15  C   UNL     1       7.011  -2.386  -0.143  0.00  0.00    +0.000 A 
ATOM     16  C   UNL     1       5.704  -2.404   0.346  0.00  0.00    +0.000 A 
ENDBRANCH   9  11
ENDBRANCH   1   9
TORSDOF 3
