REMARK  Name = *****
REMARK  3 active torsions:
REMARK  status: ('A' for Active; 'I' for Inactive)
REMARK    1  A    between atoms: C_5  and  O_7
REMARK    2  A    between atoms: O_7  and  C_8
REMARK    3  A    between atoms: C_8  and  C_10
REMARK                            x       y       z     vdW  Elec       q    Type
REMARK                         _______ _______ _______ _____ _____    ______ ____
ROOT
ATOM      1  C   UNL     1      -3.098  -2.256  -0.356  0.00  0.00    +0.000 C 
ATOM      2  O   UNL     1      -3.596  -1.946   0.714  0.00  0.00    +0.000 OA
ENDROOT
BRANCH   1   3
ATOM      3  C   UNL     1      -3.797  -3.082  -1.377  0.00  0.00    +0.000 A 
ATOM      4  C   UNL     1      -4.961  -3.764  -0.994  0.00  0.00    +0.000 A 
ATOM      5  C   UNL     1      -5.655  -4.548  -1.921  0.00  0.00    +0.000 A 
ATOM      6  C   UNL     1      -5.190  -4.645  -3.231  0.00  0.00    +0.000 A 
ATOM      7  C   UNL     1      -4.037  -3.966  -3.624  0.00  0.00    +0.000 A 
ATOM      8  C   UNL     1      -3.339  -3.184  -2.698  0.00  0.00    +0.000 A 
ATOM      9 CL   UNL     1      -6.045  -5.607  -4.372  0.00  0.00    +0.000 Cl
ENDBRANCH   1   3
BRANCH   1  10
ATOM     10  O   UNL     1      -1.854  -1.938  -0.786  0.00  0.00    +0.000 OA
BRANCH  10  15
ATOM     11  C   UNL     1      -0.329   1.265   0.444  0.00  0.00    +0.000 C 
ATOM     12  C   UNL     1       1.039   0.970  -0.176  0.00  0.00    +0.000 C 
ATOM     13  C   UNL     1       1.319  -0.498  -0.311  0.00  0.00    +0.000 C 
ATOM     14  C   UNL     1       0.373  -1.440  -0.171  0.00  0.00    +0.000 C 
ATOM     15  C   UNL     1      -1.073  -1.131   0.110  0.00  0.00    +0.000 C 
ATOM     16  C   UNL     1      -1.406   0.349  -0.130  0.00  0.00    +0.000 C 
ENDBRANCH  10  15
ENDBRANCH   1  10
TORSDOF 3
