REMARK  Name = *****
REMARK  3 active torsions:
REMARK  status: ('A' for Active; 'I' for Inactive)
REMARK    1  A    between atoms: C_4  and  C_7
REMARK    2  A    between atoms: C_7  and  O_8
REMARK    3  A    between atoms: O_8  and  C_9
REMARK                            x       y       z     vdW  Elec       q    Type
REMARK                         _______ _______ _______ _____ _____    ______ ____
ROOT
ATOM      1  O   UNL     1      -3.502  -0.348  -1.480  0.00  0.00    +0.000 OA
ENDROOT
BRANCH   1   2
ATOM      2  C   UNL     1      -4.796  -0.500  -1.061  0.00  0.00    +0.000 A 
ATOM      3  C   UNL     1      -5.828   0.366  -1.444  0.00  0.00    +0.000 A 
ATOM      4  C   UNL     1      -7.133   0.123  -1.008  0.00  0.00    +0.000 A 
ATOM      5  C   UNL     1      -7.408  -0.990  -0.209  0.00  0.00    +0.000 A 
ATOM      6  C   UNL     1      -6.378  -1.861   0.146  0.00  0.00    +0.000 A 
ATOM      7  C   UNL     1      -5.074  -1.625  -0.282  0.00  0.00    +0.000 A 
ATOM      8 CL   UNL     1      -6.724  -3.238   1.118  0.00  0.00    +0.000 Cl
ATOM      9 CL   UNL     1      -5.546   1.727  -2.464  0.00  0.00    +0.000 Cl
ENDBRANCH   1   2
BRANCH   1  10
ATOM     10  C   UNL     1      -2.828   0.711  -0.782  0.00  0.00    +0.000 C 
BRANCH  10  14
ATOM     11  C   UNL     1       1.060  -0.563   0.608  0.00  0.00    +0.000 A 
ATOM     12  C   UNL     1       0.559  -1.054  -0.595  0.00  0.00    +0.000 A 
ATOM     13  C   UNL     1      -0.700  -0.653  -1.045  0.00  0.00    +0.000 A 
ATOM     14  C   UNL     1      -1.479   0.236  -0.290  0.00  0.00    +0.000 A 
ATOM     15  C   UNL     1      -0.957   0.734   0.913  0.00  0.00    +0.000 A 
ATOM     16  C   UNL     1       0.304   0.333   1.361  0.00  0.00    +0.000 A 
ENDBRANCH  10  14
ENDBRANCH   1  10
TORSDOF 3
