REMARK  Name = *****
REMARK  5 active torsions:
REMARK  status: ('A' for Active; 'I' for Inactive)
REMARK    1  A    between atoms: C_1  and  C_2
REMARK    2  A    between atoms: C_5  and  C_8
REMARK    3  A    between atoms: C_8  and  O_9
REMARK    4  A    between atoms: O_9  and  C_10
REMARK    5  A    between atoms: C_14  and  C_16
REMARK                            x       y       z     vdW  Elec       q    Type
REMARK                         _______ _______ _______ _____ _____    ______ ____
ROOT
ATOM      1  O   UNL     1      -3.852   1.337  -0.155  0.00  0.00    +0.000 OA
ENDROOT
BRANCH   1   2
ATOM      2  C   UNL     1      -5.208   1.496  -0.096  0.00  0.00    +0.000 A 
ATOM      3  C   UNL     1      -6.149   0.477   0.039  0.00  0.00    +0.000 A 
ATOM      4  C   UNL     1      -7.512   0.783   0.085  0.00  0.00    +0.000 A 
ATOM      5  C   UNL     1      -7.942   2.109  -0.003  0.00  0.00    +0.000 A 
ATOM      6  C   UNL     1      -7.008   3.142  -0.139  0.00  0.00    +0.000 A 
ATOM      7  C   UNL     1      -5.642   2.823  -0.185  0.00  0.00    +0.000 A 
BRANCH   6   8
ATOM      8  C   UNL     1      -7.419   4.581  -0.236  0.00  0.00    +0.000 C 
ATOM      9  O   UNL     1      -6.526   5.422  -0.330  0.00  0.00    +0.000 OA
ATOM     10 CL   UNL     1      -9.120   5.005  -0.211  0.00  0.00    +0.000 Cl
ENDBRANCH   6   8
ENDBRANCH   1   2
BRANCH   1  11
ATOM     11  C   UNL     1      -3.340   0.010  -0.025  0.00  0.00    +0.000 C 
BRANCH  11  16
ATOM     12  C   UNL     1       2.492   0.027  -0.020  0.00  0.00    +0.000 C 
ATOM     13  C   UNL     1       0.993   0.046  -0.049  0.00  0.00    +0.000 A 
ATOM     14  C   UNL     1       0.281   1.004   0.679  0.00  0.00    +0.000 A 
ATOM     15  C   UNL     1      -1.116   1.003   0.677  0.00  0.00    +0.000 A 
ATOM     16  C   UNL     1      -1.829   0.042  -0.053  0.00  0.00    +0.000 A 
ATOM     17  C   UNL     1      -1.113  -0.933  -0.759  0.00  0.00    +0.000 A 
ATOM     18  C   UNL     1       0.285  -0.932  -0.756  0.00  0.00    +0.000 A 
ENDBRANCH  11  16
ENDBRANCH   1  11
TORSDOF 4
