REMARK  Name = *****
REMARK  6 active torsions:
REMARK  status: ('A' for Active; 'I' for Inactive)
REMARK    1  A    between atoms: C_1  and  C_2
REMARK    2  A    between atoms: C_2  and  C_3
REMARK    3  A    between atoms: C_2  and  O_9
REMARK    4  A    between atoms: O_9  and  C_10
REMARK    5  A    between atoms: C_10  and  S_11
REMARK    6  A    between atoms: S_11  and  C_12
REMARK                            x       y       z     vdW  Elec       q    Type
REMARK                         _______ _______ _______ _____ _____    ______ ____
ROOT
ATOM      1  O   UNL     1       2.379   0.730   1.345  0.00  0.00    +0.000 OA
ENDROOT
BRANCH   1   3
ATOM      2  C   UNL     1       0.617   0.141  -0.194  0.00  0.00    +0.000 C 
ATOM      3  C   UNL     1       2.119   0.119   0.078  0.00  0.00    +0.000 C 
BRANCH   3   4
ATOM      4  C   UNL     1       2.868   0.870  -1.007  0.00  0.00    +0.000 A 
ATOM      5  C   UNL     1       3.058   2.259  -0.938  0.00  0.00    +0.000 A 
ATOM      6  C   UNL     1       3.729   2.938  -1.957  0.00  0.00    +0.000 A 
ATOM      7  C   UNL     1       4.213   2.239  -3.060  0.00  0.00    +0.000 A 
ATOM      8  C   UNL     1       4.026   0.861  -3.147  0.00  0.00    +0.000 A 
ATOM      9  C   UNL     1       3.356   0.180  -2.128  0.00  0.00    +0.000 A 
ENDBRANCH   3   4
ENDBRANCH   1   3
BRANCH   1  10
ATOM     10  C   UNL     1       2.414  -0.210   2.414  0.00  0.00    +0.000 C 
BRANCH  10  11
ATOM     11  S   UNL     1       2.574   0.648   4.007  0.00  0.00    +0.000 S 
BRANCH  11  12
ATOM     12  C   UNL     1       2.571  -0.777   5.074  0.00  0.00    +0.000 A 
ATOM     13  C   UNL     1       3.764  -1.450   5.356  0.00  0.00    +0.000 A 
ATOM     14  C   UNL     1       3.757  -2.570   6.190  0.00  0.00    +0.000 A 
ATOM     15  C   UNL     1       2.561  -3.018   6.748  0.00  0.00    +0.000 A 
ATOM     16  C   UNL     1       1.370  -2.344   6.477  0.00  0.00    +0.000 A 
ATOM     17  C   UNL     1       1.376  -1.224   5.644  0.00  0.00    +0.000 A 
ENDBRANCH  11  12
ENDBRANCH  10  11
ENDBRANCH   1  10
TORSDOF 5
