REMARK  Name = *****
REMARK  4 active torsions:
REMARK  status: ('A' for Active; 'I' for Inactive)
REMARK    1  A    between atoms: C_4  and  C_7
REMARK    2  A    between atoms: C_7  and  O_9
REMARK    3  A    between atoms: O_9  and  C_10
REMARK    4  A    between atoms: C_10  and  C_11
REMARK                            x       y       z     vdW  Elec       q    Type
REMARK                         _______ _______ _______ _____ _____    ______ ____
ROOT
ATOM      1  O   UNL     1      -0.208  -2.276   2.445  0.00  0.00    +0.000 OA
ENDROOT
BRANCH   1   2
ATOM      2  C   UNL     1      -0.949  -1.258   1.921  0.00  0.00    +0.000 C 
ATOM      3  O   UNL     1      -1.544  -0.425   2.591  0.00  0.00    +0.000 OA
BRANCH   2   7
ATOM      4  C   UNL     1      -3.872  -1.875  -0.555  0.00  0.00    +0.000 C 
ATOM      5  C   UNL     1      -3.535  -0.512   0.038  0.00  0.00    +0.000 C 
ATOM      6  S   UNL     1      -1.853   0.058  -0.384  0.00  0.00    +0.000 S 
ATOM      7  C   UNL     1      -0.869  -1.289   0.394  0.00  0.00    +0.000 C 
ATOM      8  C   UNL     1      -1.225  -2.654  -0.198  0.00  0.00    +0.000 C 
ATOM      9  S   UNL     1      -2.914  -3.244   0.173  0.00  0.00    +0.000 S 
ENDBRANCH   2   7
ENDBRANCH   1   2
BRANCH   1  10
ATOM     10  C   UNL     1      -0.238  -2.409   3.872  0.00  0.00    +0.000 C 
BRANCH  10  11
ATOM     11  C   UNL     1      -0.851  -3.742   4.215  0.00  0.00    +0.000 A 
ATOM     12  C   UNL     1      -0.043  -4.867   4.434  0.00  0.00    +0.000 A 
ATOM     13  C   UNL     1      -0.617  -6.101   4.747  0.00  0.00    +0.000 A 
ATOM     14  C   UNL     1      -2.002  -6.220   4.833  0.00  0.00    +0.000 A 
ATOM     15  C   UNL     1      -2.820  -5.116   4.603  0.00  0.00    +0.000 A 
ATOM     16  C   UNL     1      -2.246  -3.880   4.291  0.00  0.00    +0.000 A 
ATOM     17 CL   UNL     1      -2.707  -7.740   5.224  0.00  0.00    +0.000 Cl
ENDBRANCH  10  11
ENDBRANCH   1  10
TORSDOF 4
