REMARK  Name = *****
REMARK  5 active torsions:
REMARK  status: ('A' for Active; 'I' for Inactive)
REMARK    1  A    between atoms: C_1  and  C_2
REMARK    2  A    between atoms: C_2  and  N_3
REMARK    3  A    between atoms: N_3  and  C_4
REMARK    4  A    between atoms: N_3  and  C_11
REMARK    5  A    between atoms: C_4  and  C_5
REMARK                            x       y       z     vdW  Elec       q    Type
REMARK                         _______ _______ _______ _____ _____    ______ ____
ROOT
ATOM      1  N   UNL     1       2.990  -0.195   1.228  0.00  0.00    +0.000 N 
ENDROOT
BRANCH   1   2
ATOM      2  C   UNL     1       4.327   0.050   1.623  0.00  0.00    +0.000 A 
ATOM      3  C   UNL     1       5.035   1.205   1.260  0.00  0.00    +0.000 A 
ATOM      4  C   UNL     1       6.349   1.409   1.693  0.00  0.00    +0.000 A 
ATOM      5  C   UNL     1       6.973   0.462   2.501  0.00  0.00    +0.000 A 
ATOM      6  C   UNL     1       6.284  -0.688   2.876  0.00  0.00    +0.000 A 
ATOM      7  C   UNL     1       4.972  -0.888   2.441  0.00  0.00    +0.000 A 
ENDBRANCH   1   2
BRANCH   1   9
ATOM      8  C   UNL     1       1.594  -0.722  -0.726  0.00  0.00    +0.000 C 
ATOM      9  C   UNL     1       2.701   0.165  -0.169  0.00  0.00    +0.000 C 
ENDBRANCH   1   9
BRANCH   1  10
ATOM     10  C   UNL     1       2.036   0.340   2.224  0.00  0.00    +0.000 C 
BRANCH  10  11
ATOM     11  C   UNL     1       1.768  -0.648   3.339  0.00  0.00    +0.000 A 
ATOM     12  C   UNL     1       2.069  -0.322   4.670  0.00  0.00    +0.000 A 
ATOM     13  C   UNL     1       1.809  -1.229   5.698  0.00  0.00    +0.000 A 
ATOM     14  C   UNL     1       1.245  -2.471   5.409  0.00  0.00    +0.000 A 
ATOM     15  C   UNL     1       0.944  -2.808   4.091  0.00  0.00    +0.000 A 
ATOM     16  C   UNL     1       1.203  -1.902   3.061  0.00  0.00    +0.000 A 
ENDBRANCH  10  11
ENDBRANCH   1  10
TORSDOF 4
