REMARK  Name = *****
REMARK  4 active torsions:
REMARK  status: ('A' for Active; 'I' for Inactive)
REMARK    1  A    between atoms: C_4  and  C_7
REMARK    2  A    between atoms: C_7  and  S_8
REMARK    3  A    between atoms: S_8  and  C_9
REMARK    4  A    between atoms: C_14  and  C_15
REMARK                            x       y       z     vdW  Elec       q    Type
REMARK                         _______ _______ _______ _____ _____    ______ ____
ROOT
ATOM      1  S   UNL     1      -3.639  -1.143  -0.802  0.00  0.00    +0.000 S 
ENDROOT
BRANCH   1   2
ATOM      2  C   UNL     1      -5.346  -0.609  -0.824  0.00  0.00    +0.000 A 
ATOM      3  C   UNL     1      -6.148  -0.985   0.265  0.00  0.00    +0.000 A 
ATOM      4  C   UNL     1      -7.488  -0.597   0.336  0.00  0.00    +0.000 A 
ATOM      5  C   UNL     1      -8.047   0.169  -0.683  0.00  0.00    +0.000 A 
ATOM      6  C   UNL     1      -7.267   0.541  -1.777  0.00  0.00    +0.000 A 
ATOM      7  C   UNL     1      -5.921   0.150  -1.857  0.00  0.00    +0.000 A 
BRANCH   7   8
ATOM      8  C   UNL     1      -5.152   0.566  -3.053  0.00  0.00    +0.000 C 
ATOM      9  O   UNL     1      -5.624   1.325  -3.894  0.00  0.00    +0.000 OA
ENDBRANCH   7   8
ENDBRANCH   1   2
BRANCH   1  10
ATOM     10  C   UNL     1      -2.933   0.231   0.169  0.00  0.00    +0.000 C 
BRANCH  10  14
ATOM     11  C   UNL     1       1.343  -0.180   0.549  0.00  0.00    +0.000 A 
ATOM     12  C   UNL     1       0.804   0.528  -0.523  0.00  0.00    +0.000 A 
ATOM     13  C   UNL     1      -0.580   0.664  -0.646  0.00  0.00    +0.000 A 
ATOM     14  C   UNL     1      -1.439   0.095   0.307  0.00  0.00    +0.000 A 
ATOM     15  C   UNL     1      -0.883  -0.623   1.376  0.00  0.00    +0.000 A 
ATOM     16  C   UNL     1       0.501  -0.757   1.497  0.00  0.00    +0.000 A 
ENDBRANCH  10  14
ENDBRANCH   1  10
TORSDOF 4
