REMARK  Name = *****
REMARK  3 active torsions:
REMARK  status: ('A' for Active; 'I' for Inactive)
REMARK    1  A    between atoms: C_1  and  O_2
REMARK    2  A    between atoms: O_2  and  N_3
REMARK    3  A    between atoms: C_11  and  C_12
REMARK                            x       y       z     vdW  Elec       q    Type
REMARK                         _______ _______ _______ _____ _____    ______ ____
ROOT
ATOM      1  N   UNL     1       3.198   1.093  -0.605  0.00  0.00    +0.000 N 
ATOM      2  C   UNL     1       3.042   2.434  -0.885  0.00  0.00    +0.000 A 
ATOM      3  C   UNL     1       2.292   3.433  -0.243  0.00  0.00    +0.000 A 
ATOM      4  C   UNL     1       2.313   4.720  -0.789  0.00  0.00    +0.000 A 
ATOM      5  C   UNL     1       3.060   5.002  -1.930  0.00  0.00    +0.000 A 
ATOM      6  C   UNL     1       3.816   4.002  -2.552  0.00  0.00    +0.000 A 
ATOM      7  C   UNL     1       3.811   2.699  -2.019  0.00  0.00    +0.000 A 
ATOM      8  C   UNL     1       4.473   1.490  -2.365  0.00  0.00    +0.000 A 
ATOM      9  C   UNL     1       4.110   0.507  -1.458  0.00  0.00    +0.000 A 
ENDROOT
BRANCH   9  10
ATOM     10  C   UNL     1       4.610  -0.865  -1.348  0.00  0.00    +0.000 A 
ATOM     11  C   UNL     1       5.993  -1.096  -1.309  0.00  0.00    +0.000 A 
ATOM     12  C   UNL     1       6.498  -2.396  -1.221  0.00  0.00    +0.000 A 
ATOM     13  C   UNL     1       5.625  -3.480  -1.177  0.00  0.00    +0.000 A 
ATOM     14  C   UNL     1       4.249  -3.265  -1.224  0.00  0.00    +0.000 A 
ATOM     15  C   UNL     1       3.745  -1.965  -1.313  0.00  0.00    +0.000 A 
ENDBRANCH   9  10
BRANCH   1  17
ATOM     16  C   UNL     1       1.242   0.164   0.183  0.00  0.00    +0.000 C 
ATOM     17  O   UNL     1       2.604   0.445   0.491  0.00  0.00    +0.000 OA
ENDBRANCH   1  17
TORSDOF 2
