REMARK  Name = *****
REMARK  4 active torsions:
REMARK  status: ('A' for Active; 'I' for Inactive)
REMARK    1  A    between atoms: C_1  and  C_2
REMARK    2  A    between atoms: C_5  and  O_8
REMARK    3  A    between atoms: O_8  and  C_9
REMARK    4  A    between atoms: C_9  and  C_10
REMARK                            x       y       z     vdW  Elec       q    Type
REMARK                         _______ _______ _______ _____ _____    ______ ____
ROOT
ATOM      1  O   UNL     1      -2.657   0.159  -0.741  0.00  0.00    +0.000 OA
ENDROOT
BRANCH   1   6
ATOM      2  C   UNL     1       2.614  -0.674   1.195  0.00  0.00    +0.000 C 
ATOM      3  C   UNL     1       1.228  -0.412   0.686  0.00  0.00    +0.000 A 
ATOM      4  C   UNL     1       0.550   0.761   1.035  0.00  0.00    +0.000 A 
ATOM      5  C   UNL     1      -0.753   0.996   0.581  0.00  0.00    +0.000 A 
ATOM      6  C   UNL     1      -1.399   0.053  -0.216  0.00  0.00    +0.000 A 
ATOM      7  C   UNL     1      -0.728  -1.124  -0.555  0.00  0.00    +0.000 A 
ATOM      8  C   UNL     1       0.572  -1.361  -0.103  0.00  0.00    +0.000 A 
ENDBRANCH   1   6
BRANCH   1   9
ATOM      9  C   UNL     1      -3.469   1.272  -0.360  0.00  0.00    +0.000 C 
BRANCH   9  10
ATOM     10  C   UNL     1      -3.179   2.533  -1.146  0.00  0.00    +0.000 A 
ATOM     11  C   UNL     1      -2.678   2.480  -2.456  0.00  0.00    +0.000 A 
ATOM     12  C   UNL     1      -2.440   3.656  -3.167  0.00  0.00    +0.000 A 
ATOM     13  C   UNL     1      -2.709   4.896  -2.593  0.00  0.00    +0.000 A 
ATOM     14  C   UNL     1      -3.225   4.961  -1.299  0.00  0.00    +0.000 A 
ATOM     15  C   UNL     1      -3.463   3.786  -0.582  0.00  0.00    +0.000 A 
ATOM     16 CL   UNL     1      -1.811   3.576  -4.767  0.00  0.00    +0.000 Cl
ENDBRANCH   9  10
ENDBRANCH   1   9
TORSDOF 3
