REMARK  Name = *****
REMARK  2 active torsions:
REMARK  status: ('A' for Active; 'I' for Inactive)
REMARK    1  A    between atoms: C_6  and  C_7
REMARK    2  A    between atoms: N_8  and  C_9
REMARK                            x       y       z     vdW  Elec       q    Type
REMARK                         _______ _______ _______ _____ _____    ______ ____
ROOT
ATOM      1  C   UNL     1      -3.274  -1.526  -0.202  0.00  0.00    +0.000 C 
ATOM      2  N   UNL     1      -3.376  -2.747   0.219  0.00  0.00    +0.000 NA
ENDROOT
BRANCH   1   8
ATOM      3  C   UNL     1      -1.966   0.545  -0.568  0.00  0.00    +0.000 A 
ATOM      4  C   UNL     1      -0.775   1.271  -0.487  0.00  0.00    +0.000 A 
ATOM      5  C   UNL     1       0.359   0.671   0.053  0.00  0.00    +0.000 A 
ATOM      6  C   UNL     1       0.314  -0.642   0.510  0.00  0.00    +0.000 A 
ATOM      7  C   UNL     1      -0.864  -1.375   0.435  0.00  0.00    +0.000 A 
ATOM      8  C   UNL     1      -2.007  -0.778  -0.106  0.00  0.00    +0.000 A 
ATOM      9  F   UNL     1       1.411  -1.211   1.028  0.00  0.00    +0.000 F 
ATOM     10  F   UNL     1       1.498   1.373   0.128  0.00  0.00    +0.000 F 
ENDBRANCH   1   8
BRANCH   2  11
ATOM     11  C   UNL     1      -4.633  -3.349   0.074  0.00  0.00    +0.000 A 
ATOM     12  C   UNL     1      -4.896  -4.159  -1.033  0.00  0.00    +0.000 A 
ATOM     13  C   UNL     1      -6.138  -4.772  -1.161  0.00  0.00    +0.000 A 
ATOM     14  C   UNL     1      -7.126  -4.602  -0.201  0.00  0.00    +0.000 A 
ATOM     15  C   UNL     1      -6.850  -3.809   0.903  0.00  0.00    +0.000 A 
ATOM     16  C   UNL     1      -5.615  -3.186   1.053  0.00  0.00    +0.000 A 
ATOM     17  F   UNL     1      -7.790  -3.639   1.842  0.00  0.00    +0.000 F 
ATOM     18  F   UNL     1      -6.386  -5.541  -2.230  0.00  0.00    +0.000 F 
ENDBRANCH   2  11
TORSDOF 2
