REMARK  Name = *****
REMARK  2 active torsions:
REMARK  status: ('A' for Active; 'I' for Inactive)
REMARK    1  A    between atoms: C_4  and  N_7
REMARK    2  A    between atoms: C_8  and  C_9
REMARK                            x       y       z     vdW  Elec       q    Type
REMARK                         _______ _______ _______ _____ _____    ______ ____
ROOT
ATOM      1  C   UNL     1      -5.030  -0.167  -0.528  0.00  0.00    +0.000 A 
ATOM      2  C   UNL     1      -5.551   0.911  -1.246  0.00  0.00    +0.000 A 
ATOM      3  C   UNL     1      -6.922   0.999  -1.477  0.00  0.00    +0.000 A 
ATOM      4  C   UNL     1      -7.779   0.019  -0.996  0.00  0.00    +0.000 A 
ATOM      5  C   UNL     1      -7.267  -1.054  -0.282  0.00  0.00    +0.000 A 
ATOM      6  C   UNL     1      -5.899  -1.147  -0.047  0.00  0.00    +0.000 A 
ATOM      7  F   UNL     1      -5.426  -2.194   0.645  0.00  0.00    +0.000 F 
ATOM      8  F   UNL     1      -8.090  -2.004   0.184  0.00  0.00    +0.000 F 
ATOM      9  F   UNL     1      -9.096   0.108  -1.221  0.00  0.00    +0.000 F 
ATOM     10  F   UNL     1      -7.418   2.038  -2.164  0.00  0.00    +0.000 F 
ATOM     11  F   UNL     1      -4.763   1.884  -1.722  0.00  0.00    +0.000 F 
ENDROOT
BRANCH   1  13
ATOM     12  N   UNL     1      -2.707   0.495  -0.713  0.00  0.00    +0.000 NA
ATOM     13  C   UNL     1      -3.594  -0.324  -0.249  0.00  0.00    +0.000 C 
BRANCH  12  17
ATOM     14  C   UNL     1       1.290  -0.283   0.325  0.00  0.00    +0.000 A 
ATOM     15  C   UNL     1       0.694  -0.991  -0.718  0.00  0.00    +0.000 A 
ATOM     16  C   UNL     1      -0.634  -0.734  -1.065  0.00  0.00    +0.000 A 
ATOM     17  C   UNL     1      -1.376   0.222  -0.365  0.00  0.00    +0.000 A 
ATOM     18  C   UNL     1      -0.766   0.939   0.666  0.00  0.00    +0.000 A 
ATOM     19  C   UNL     1       0.562   0.685   1.015  0.00  0.00    +0.000 A 
ENDBRANCH  12  17
ENDBRANCH   1  13
TORSDOF 2
