REMARK  Name = *****
REMARK  4 active torsions:
REMARK  status: ('A' for Active; 'I' for Inactive)
REMARK    1  A    between atoms: C_1  and  C_2
REMARK    2  A    between atoms: C_5  and  S_8
REMARK    3  A    between atoms: S_8  and  C_10
REMARK    4  A    between atoms: C_10  and  C_11
REMARK                            x       y       z     vdW  Elec       q    Type
REMARK                         _______ _______ _______ _____ _____    ______ ____
ROOT
ATOM      1  S   UNL     1      -3.793  -0.188   0.143  0.00  0.00    +0.000 S 
ATOM      2  O   UNL     1      -4.119  -0.582   1.557  0.00  0.00    +0.000 OA
ENDROOT
BRANCH   1   7
ATOM      3  C   UNL     1       2.315  -0.019  -0.108  0.00  0.00    +0.000 C 
ATOM      4  C   UNL     1       0.818  -0.087  -0.031  0.00  0.00    +0.000 A 
ATOM      5  C   UNL     1       0.068  -0.452  -1.156  0.00  0.00    +0.000 A 
ATOM      6  C   UNL     1      -1.327  -0.491  -1.094  0.00  0.00    +0.000 A 
ATOM      7  C   UNL     1      -1.988  -0.143   0.088  0.00  0.00    +0.000 A 
ATOM      8  C   UNL     1      -1.243   0.218   1.214  0.00  0.00    +0.000 A 
ATOM      9  C   UNL     1       0.152   0.256   1.151  0.00  0.00    +0.000 A 
ENDBRANCH   1   7
BRANCH   1  10
ATOM     10  C   UNL     1      -4.110   1.624  -0.016  0.00  0.00    +0.000 C 
ATOM     11 CL   UNL     1      -5.832   1.974   0.370  0.00  0.00    +0.000 Cl
BRANCH  10  12
ATOM     12  C   UNL     1      -3.709   2.184  -1.404  0.00  0.00    +0.000 C 
ATOM     13  C   UNL     1      -3.762   3.726  -1.424  0.00  0.00    +0.000 C 
ATOM     14  C   UNL     1      -3.292   4.288  -2.765  0.00  0.00    +0.000 C 
ATOM     15  C   UNL     1      -4.087   3.705  -3.928  0.00  0.00    +0.000 C 
ATOM     16  C   UNL     1      -4.056   2.180  -3.918  0.00  0.00    +0.000 C 
ATOM     17  C   UNL     1      -4.528   1.612  -2.579  0.00  0.00    +0.000 C 
ENDBRANCH  10  12
ENDBRANCH   1  10
TORSDOF 3
