REMARK  Name = *****
REMARK  3 active torsions:
REMARK  status: ('A' for Active; 'I' for Inactive)
REMARK    1  A    between atoms: C_5  and  C_17
REMARK    2  A    between atoms: C_6  and  C_11
REMARK    3  A    between atoms: C_17  and  S_18
REMARK                            x       y       z     vdW  Elec       q    Type
REMARK                         _______ _______ _______ _____ _____    ______ ____
ROOT
ATOM      1  C   UNL     1      -2.477   0.842  -0.524  0.00  0.00    +0.000 C 
ATOM      2  C   UNL     1      -2.616  -0.411   0.326  0.00  0.00    +0.000 C 
ATOM      3  C   UNL     1      -1.483  -1.392   0.028  0.00  0.00    +0.000 C 
ATOM      4  C   UNL     1      -0.106  -0.759  -0.026  0.00  0.00    +0.000 A 
ATOM      5  C   UNL     1       1.071  -1.553  -0.007  0.00  0.00    +0.000 A 
ATOM      6  C   UNL     1       2.312  -0.890  -0.087  0.00  0.00    +0.000 A 
ATOM      7  N   UNL     1       2.424   0.458  -0.179  0.00  0.00    +0.000 NA
ATOM      8  C   UNL     1       1.290   1.180  -0.214  0.00  0.00    +0.000 A 
ATOM      9  C   UNL     1       0.014   0.636  -0.161  0.00  0.00    +0.000 A 
ATOM     10  C   UNL     1      -1.175   1.559  -0.183  0.00  0.00    +0.000 C 
ENDROOT
BRANCH   6  11
ATOM     11  C   UNL     1       3.614  -1.573  -0.068  0.00  0.00    +0.000 A 
ATOM     12  C   UNL     1       4.075  -2.296  -1.181  0.00  0.00    +0.000 A 
ATOM     13  C   UNL     1       5.312  -2.945  -1.152  0.00  0.00    +0.000 A 
ATOM     14  C   UNL     1       6.113  -2.867  -0.015  0.00  0.00    +0.000 A 
ATOM     15  C   UNL     1       5.684  -2.134   1.089  0.00  0.00    +0.000 A 
ATOM     16  C   UNL     1       4.445  -1.489   1.060  0.00  0.00    +0.000 A 
ENDBRANCH   6  11
BRANCH   5  17
ATOM     17  C   UNL     1       1.004  -3.056   0.144  0.00  0.00    +0.000 C 
BRANCH  17  18
ATOM     18  S   UNL     1       1.032  -3.581   1.883  0.00  0.00    +0.000 S 
ATOM     19  H   UNL     1       2.197  -3.180   2.459  0.00  0.00    +0.000 HD
ENDBRANCH  17  18
ENDBRANCH   5  17
TORSDOF 3
