REMARK  Name = *****
REMARK  1 active torsions:
REMARK  status: ('A' for Active; 'I' for Inactive)
REMARK    1  A    between atoms: C_4  and  C_7
REMARK                            x       y       z     vdW  Elec       q    Type
REMARK                         _______ _______ _______ _____ _____    ______ ____
ROOT
ATOM      1  C   UNL     1      -2.814   0.447  -0.130  0.00  0.00    +0.000 A 
ATOM      2  C   UNL     1      -3.463   0.874  -1.287  0.00  0.00    +0.000 A 
ATOM      3  N   UNL     1      -4.827   1.014  -1.065  0.00  0.00    +0.000 N 
ATOM      4  C   UNL     1      -5.811   1.414  -1.968  0.00  0.00    +0.000 A 
ATOM      5  C   UNL     1      -7.089   1.489  -1.560  0.00  0.00    +0.000 A 
ATOM      6  C   UNL     1      -7.409   1.149  -0.183  0.00  0.00    +0.000 A 
ATOM      7  C   UNL     1      -6.459   0.762   0.692  0.00  0.00    +0.000 A 
ATOM      8  C   UNL     1      -5.101   0.681   0.263  0.00  0.00    +0.000 A 
ATOM      9  P   UNL     1      -3.801   0.220   1.226  0.00  0.00    +0.000 P 
ENDROOT
BRANCH   1  13
ATOM     10  C   UNL     1       1.403  -0.149  -0.067  0.00  0.00    +0.000 A 
ATOM     11  C   UNL     1       0.879   1.122  -0.296  0.00  0.00    +0.000 A 
ATOM     12  C   UNL     1      -0.504   1.316  -0.312  0.00  0.00    +0.000 A 
ATOM     13  C   UNL     1      -1.374   0.237  -0.094  0.00  0.00    +0.000 A 
ATOM     14  C   UNL     1      -0.837  -1.038   0.131  0.00  0.00    +0.000 A 
ATOM     15  C   UNL     1       0.547  -1.228   0.146  0.00  0.00    +0.000 A 
ENDBRANCH   1  13
TORSDOF 1
