REMARK  Name = *****
REMARK  3 active torsions:
REMARK  status: ('A' for Active; 'I' for Inactive)
REMARK    1  A    between atoms: C_2  and  C_3
REMARK    2  A    between atoms: C_3  and  C_12
REMARK    3  A    between atoms: C_5  and  C_6
REMARK                            x       y       z     vdW  Elec       q    Type
REMARK                         _______ _______ _______ _____ _____    ______ ____
ROOT
ATOM      1  C   UNL     1       3.531   0.118   0.004  0.00  0.00    +0.000 C 
ATOM      2  C   UNL     1       4.354   0.889  -1.020  0.00  0.00    +0.000 C 
ATOM      3  C   UNL     1       4.320  -0.611  -1.104  0.00  0.00    +0.000 C 
ENDROOT
BRANCH   3   4
ATOM      4  C   UNL     1       3.632  -1.310  -2.257  0.00  0.00    +0.000 A 
ATOM      5  C   UNL     1       3.833  -0.909  -3.589  0.00  0.00    +0.000 A 
ATOM      6  C   UNL     1       3.217  -1.575  -4.653  0.00  0.00    +0.000 A 
ATOM      7  C   UNL     1       2.392  -2.668  -4.406  0.00  0.00    +0.000 A 
ATOM      8  C   UNL     1       2.187  -3.096  -3.098  0.00  0.00    +0.000 A 
ATOM      9  C   UNL     1       2.805  -2.426  -2.039  0.00  0.00    +0.000 A 
ENDBRANCH   3   4
BRANCH   1  10
ATOM     10  C   UNL     1       4.103   0.003   1.424  0.00  0.00    +0.000 A 
ATOM     11  C   UNL     1       4.280  -1.249   2.041  0.00  0.00    +0.000 A 
ATOM     12  C   UNL     1       4.790  -1.358   3.337  0.00  0.00    +0.000 A 
ATOM     13  C   UNL     1       5.128  -0.212   4.050  0.00  0.00    +0.000 A 
ATOM     14  C   UNL     1       4.952   1.041   3.470  0.00  0.00    +0.000 A 
ATOM     15  C   UNL     1       4.442   1.145   2.173  0.00  0.00    +0.000 A 
ENDBRANCH   1  10
BRANCH   1  17
ATOM     16  C   UNL     1       0.906   0.380  -0.281  0.00  0.00    +0.000 C 
ATOM     17  C   UNL     1       2.094   0.260  -0.154  0.00  0.00    +0.000 C 
ENDBRANCH   1  17
TORSDOF 3
