REMARK  Name = *****
REMARK  2 active torsions:
REMARK  status: ('A' for Active; 'I' for Inactive)
REMARK    1  A    between atoms: C_7  and  S_8
REMARK    2  A    between atoms: S_8  and  C_9
REMARK                            x       y       z     vdW  Elec       q    Type
REMARK                         _______ _______ _______ _____ _____    ______ ____
ROOT
ATOM      1  C   UNL     1      -1.445   0.843   0.067  0.00  0.00    +0.000 C 
ATOM      2  C   UNL     1      -0.254   1.372  -0.729  0.00  0.00    +0.000 C 
ATOM      3  C   UNL     1       1.064   1.006  -0.051  0.00  0.00    +0.000 C 
ATOM      4  C   UNL     1       1.137  -0.424   0.391  0.00  0.00    +0.000 C 
ATOM      5  C   UNL     1      -0.120  -1.251   0.506  0.00  0.00    +0.000 C 
ATOM      6  C   UNL     1      -1.449  -0.683   0.106  0.00  0.00    +0.000 C 
ATOM      7  C   UNL     1       0.903  -1.560  -0.573  0.00  0.00    +0.000 C 
ENDROOT
BRANCH   7   8
ATOM      8  S   UNL     1       1.854  -3.019  -0.455  0.00  0.00    +0.000 S 
BRANCH   8   9
ATOM      9  C   UNL     1       3.070  -2.654  -1.708  0.00  0.00    +0.000 A 
ATOM     10  C   UNL     1       4.011  -1.636  -1.524  0.00  0.00    +0.000 A 
ATOM     11  C   UNL     1       4.959  -1.366  -2.514  0.00  0.00    +0.000 A 
ATOM     12  C   UNL     1       4.973  -2.116  -3.689  0.00  0.00    +0.000 A 
ATOM     13  C   UNL     1       4.044  -3.139  -3.874  0.00  0.00    +0.000 A 
ATOM     14  C   UNL     1       3.096  -3.409  -2.885  0.00  0.00    +0.000 A 
ENDBRANCH   8   9
ENDBRANCH   7   8
TORSDOF 2
