REMARK  Name = *****
REMARK  3 active torsions:
REMARK  status: ('A' for Active; 'I' for Inactive)
REMARK    1  A    between atoms: C_4  and  O_7
REMARK    2  A    between atoms: O_7  and  C_8
REMARK    3  A    between atoms: C_8  and  C_10
REMARK                            x       y       z     vdW  Elec       q    Type
REMARK                         _______ _______ _______ _____ _____    ______ ____
ROOT
ATOM      1  C   UNL     1      -3.643  -0.837  -0.157  0.00  0.00    +0.000 C 
ATOM      2  O   UNL     1      -3.299  -1.999  -0.304  0.00  0.00    +0.000 OA
ENDROOT
BRANCH   1   3
ATOM      3  C   UNL     1      -5.062  -0.426  -0.179  0.00  0.00    +0.000 A 
ATOM      4  C   UNL     1      -5.965  -1.212  -0.909  0.00  0.00    +0.000 A 
ATOM      5  C   UNL     1      -7.309  -0.855  -0.944  0.00  0.00    +0.000 A 
ATOM      6  C   UNL     1      -7.762   0.266  -0.255  0.00  0.00    +0.000 A 
ATOM      7  C   UNL     1      -6.878   1.043   0.484  0.00  0.00    +0.000 A 
ATOM      8  C   UNL     1      -5.531   0.690   0.522  0.00  0.00    +0.000 A 
ATOM      9  F   UNL     1      -4.708   1.436   1.272  0.00  0.00    +0.000 F 
ATOM     10  F   UNL     1      -9.058   0.603  -0.293  0.00  0.00    +0.000 F 
ATOM     11  F   UNL     1      -8.168  -1.602  -1.649  0.00  0.00    +0.000 F 
ENDBRANCH   1   3
BRANCH   1  12
ATOM     12  O   UNL     1      -2.841   0.280  -0.032  0.00  0.00    +0.000 OA
BRANCH  12  16
ATOM     13  C   UNL     1       1.319  -0.112   0.065  0.00  0.00    +0.000 A 
ATOM     14  C   UNL     1       0.606  -0.715  -0.974  0.00  0.00    +0.000 A 
ATOM     15  C   UNL     1      -0.784  -0.609  -1.022  0.00  0.00    +0.000 A 
ATOM     16  C   UNL     1      -1.451   0.087  -0.014  0.00  0.00    +0.000 A 
ATOM     17  C   UNL     1      -0.745   0.710   1.015  0.00  0.00    +0.000 A 
ATOM     18  C   UNL     1       0.644   0.603   1.056  0.00  0.00    +0.000 A 
ENDBRANCH  12  16
ENDBRANCH   1  12
TORSDOF 3
