REMARK  Name = *****
REMARK  2 active torsions:
REMARK  status: ('A' for Active; 'I' for Inactive)
REMARK    1  A    between atoms: C_5  and  C_6
REMARK    2  A    between atoms: C_7  and  C_8
REMARK                            x       y       z     vdW  Elec       q    Type
REMARK                         _______ _______ _______ _____ _____    ______ ____
ROOT
ATOM      1  C   UNL     1       2.583  -1.471   0.010  0.00  0.00    +0.000 C 
ATOM      2  C   UNL     1       3.857  -1.040   0.047  0.00  0.00    +0.000 C 
ENDROOT
BRANCH   2   3
ATOM      3  C   UNL     1       5.027  -1.878   0.037  0.00  0.00    +0.000 A 
ATOM      4  C   UNL     1       6.272  -1.496   0.500  0.00  0.00    +0.000 A 
ATOM      5  S   UNL     1       7.454  -2.710   0.339  0.00  0.00    +0.000 S 
ATOM      6  C   UNL     1       6.330  -3.784  -0.366  0.00  0.00    +0.000 A 
ATOM      7  C   UNL     1       5.077  -3.220  -0.472  0.00  0.00    +0.000 A 
ATOM      8 BR   UNL     1       6.706   0.167   1.271  0.00  0.00    +0.000 Br
ENDBRANCH   2   3
BRANCH   1  13
ATOM      9  C   UNL     1       1.354   0.783  -0.018  0.00  0.00    +0.000 A 
ATOM     10  C   UNL     1       0.060   1.260  -0.001  0.00  0.00    +0.000 A 
ATOM     11  S   UNL     1      -1.090  -0.003   0.056  0.00  0.00    +0.000 S 
ATOM     12  C   UNL     1       0.142  -1.192   0.057  0.00  0.00    +0.000 A 
ATOM     13  C   UNL     1       1.409  -0.645   0.017  0.00  0.00    +0.000 A 
ENDBRANCH   1  13
TORSDOF 2
