REMARK  Name = *****
REMARK  4 active torsions:
REMARK  status: ('A' for Active; 'I' for Inactive)
REMARK    1  A    between atoms: C_4  and  C_6
REMARK    2  A    between atoms: C_6  and  C_7
REMARK    3  A    between atoms: C_7  and  O_9
REMARK    4  A    between atoms: O_9  and  C_10
REMARK                            x       y       z     vdW  Elec       q    Type
REMARK                         _______ _______ _______ _____ _____    ______ ____
ROOT
ATOM      1  O   UNL     1       0.606  -3.989   1.282  0.00  0.00    +0.000 OA
ENDROOT
BRANCH   1   2
ATOM      2  C   UNL     1       1.726  -4.755   1.604  0.00  0.00    +0.000 A 
ATOM      3  C   UNL     1       1.934  -5.950   0.918  0.00  0.00    +0.000 A 
ATOM      4  C   UNL     1       3.027  -6.750   1.257  0.00  0.00    +0.000 A 
ATOM      5  C   UNL     1       3.892  -6.354   2.288  0.00  0.00    +0.000 A 
ATOM      6  C   UNL     1       3.656  -5.160   2.980  0.00  0.00    +0.000 A 
ATOM      7  C   UNL     1       2.564  -4.359   2.644  0.00  0.00    +0.000 A 
ATOM      8 CL   UNL     1       5.261  -7.297   2.761  0.00  0.00    +0.000 Cl
ATOM      9 CL   UNL     1       3.252  -8.219   0.375  0.00  0.00    +0.000 Cl
ENDBRANCH   1   2
BRANCH   1  10
ATOM     10  C   UNL     1       0.900  -2.914   0.447  0.00  0.00    +0.000 C 
ATOM     11  O   UNL     1       2.012  -2.590   0.044  0.00  0.00    +0.000 OA
BRANCH  10  12
ATOM     12  C   UNL     1      -0.378  -2.198   0.082  0.00  0.00    +0.000 C 
BRANCH  12  16
ATOM     13  C   UNL     1      -1.367  -3.323  -3.393  0.00  0.00    +0.000 A 
ATOM     14  C   UNL     1      -2.283  -4.127  -2.755  0.00  0.00    +0.000 A 
ATOM     15  S   UNL     1      -2.215  -3.955  -1.056  0.00  0.00    +0.000 S 
ATOM     16  C   UNL     1      -0.953  -2.801  -1.160  0.00  0.00    +0.000 A 
ATOM     17  C   UNL     1      -0.598  -2.555  -2.472  0.00  0.00    +0.000 A 
ENDBRANCH  12  16
ENDBRANCH  10  12
ENDBRANCH   1  10
TORSDOF 4
