REMARK  Name = *****
REMARK  2 active torsions:
REMARK  status: ('A' for Active; 'I' for Inactive)
REMARK    1  A    between atoms: C_5  and  C_7
REMARK    2  A    between atoms: C_8  and  C_9
REMARK                            x       y       z     vdW  Elec       q    Type
REMARK                         _______ _______ _______ _____ _____    ______ ____
ROOT
ATOM      1  C   UNL     1      -1.225  -2.578  -0.027  0.00  0.00    +0.000 C 
ATOM      2  C   UNL     1      -2.562  -2.672   0.122  0.00  0.00    +0.000 C 
ATOM      3 CL   UNL     1      -0.261  -4.016  -0.222  0.00  0.00    +0.000 Cl
ENDROOT
BRANCH   2   4
ATOM      4  C   UNL     1      -3.334  -3.917   0.140  0.00  0.00    +0.000 A 
ATOM      5  C   UNL     1      -3.584  -4.570   1.352  0.00  0.00    +0.000 A 
ATOM      6  C   UNL     1      -4.315  -5.761   1.370  0.00  0.00    +0.000 A 
ATOM      7  C   UNL     1      -4.795  -6.296   0.175  0.00  0.00    +0.000 A 
ATOM      8  C   UNL     1      -4.550  -5.652  -1.036  0.00  0.00    +0.000 A 
ATOM      9  C   UNL     1      -3.819  -4.462  -1.054  0.00  0.00    +0.000 A 
ATOM     10 CL   UNL     1      -5.695  -7.762   0.197  0.00  0.00    +0.000 Cl
ENDBRANCH   2   4
BRANCH   1  15
ATOM     11  C   UNL     1       1.418   0.156  -0.156  0.00  0.00    +0.000 A 
ATOM     12  C   UNL     1       0.602   1.269  -0.015  0.00  0.00    +0.000 A 
ATOM     13  C   UNL     1      -0.757   1.060   0.113  0.00  0.00    +0.000 A 
ATOM     14  N   UNL     1      -1.334  -0.162   0.108  0.00  0.00    +0.000 NA
ATOM     15  C   UNL     1      -0.536  -1.256  -0.030  0.00  0.00    +0.000 A 
ATOM     16  C   UNL     1       0.847  -1.117  -0.164  0.00  0.00    +0.000 A 
ENDBRANCH   1  15
TORSDOF 2
