REMARK  Name = *****
REMARK  4 active torsions:
REMARK  status: ('A' for Active; 'I' for Inactive)
REMARK    1  A    between atoms: C_4  and  C_7
REMARK    2  A    between atoms: C_8  and  C_9
REMARK    3  A    between atoms: C_8  and  S_11
REMARK    4  A    between atoms: S_11  and  C_12
REMARK                            x       y       z     vdW  Elec       q    Type
REMARK                         _______ _______ _______ _____ _____    ______ ____
ROOT
ATOM      1  C   UNL     1      -2.874  -0.109  -0.546  0.00  0.00    +0.000 C 
ATOM      2  C   UNL     1      -3.573  -1.246  -0.709  0.00  0.00    +0.000 C 
ENDROOT
BRANCH   1   6
ATOM      3  C   UNL     1       1.186   0.314   0.704  0.00  0.00    +0.000 A 
ATOM      4  C   UNL     1       0.898  -0.334  -0.497  0.00  0.00    +0.000 A 
ATOM      5  C   UNL     1      -0.427  -0.479  -0.913  0.00  0.00    +0.000 A 
ATOM      6  C   UNL     1      -1.473   0.013  -0.125  0.00  0.00    +0.000 A 
ATOM      7  C   UNL     1      -1.175   0.675   1.072  0.00  0.00    +0.000 A 
ATOM      8  C   UNL     1       0.150   0.820   1.487  0.00  0.00    +0.000 A 
ENDBRANCH   1   6
BRANCH   2   9
ATOM      9  C   UNL     1      -4.997  -1.140  -1.145  0.00  0.00    +0.000 C 
ATOM     10  O   UNL     1      -5.581  -0.075  -1.323  0.00  0.00    +0.000 OA
ENDBRANCH   2   9
BRANCH   2  11
ATOM     11  S   UNL     1      -2.960  -2.850  -0.475  0.00  0.00    +0.000 S 
BRANCH  11  12
ATOM     12  C   UNL     1      -3.830  -3.275   1.023  0.00  0.00    +0.000 A 
ATOM     13  C   UNL     1      -3.523  -2.650   2.237  0.00  0.00    +0.000 A 
ATOM     14  C   UNL     1      -4.213  -2.994   3.400  0.00  0.00    +0.000 A 
ATOM     15  C   UNL     1      -5.206  -3.972   3.360  0.00  0.00    +0.000 A 
ATOM     16  C   UNL     1      -5.506  -4.610   2.157  0.00  0.00    +0.000 A 
ATOM     17  C   UNL     1      -4.817  -4.266   0.992  0.00  0.00    +0.000 A 
ENDBRANCH  11  12
ENDBRANCH   2  11
TORSDOF 4
