REMARK  Name = *****
REMARK  5 active torsions:
REMARK  status: ('A' for Active; 'I' for Inactive)
REMARK    1  A    between atoms: C_1  and  C_2
REMARK    2  A    between atoms: C_8  and  C_9
REMARK    3  A    between atoms: C_8  and  O_10
REMARK    4  A    between atoms: O_10  and  C_11
REMARK    5  A    between atoms: C_11  and  C_13
REMARK                            x       y       z     vdW  Elec       q    Type
REMARK                         _______ _______ _______ _____ _____    ______ ____
ROOT
ATOM      1  C   UNL     1       1.095   0.245  -0.098  0.00  0.00    +0.000 C 
ATOM      2  C   UNL     1       2.561  -0.154   0.054  0.00  0.00    +0.000 C 
ATOM      3  C   UNL     1       3.387   0.912   0.846  0.00  0.00    +0.000 C 
ATOM      4  C   UNL     1       4.023   1.378  -0.469  0.00  0.00    +0.000 C 
ATOM      5  C   UNL     1       3.468   0.128  -1.179  0.00  0.00    +0.000 C 
ATOM      6  C   UNL     1       4.380  -1.088  -1.350  0.00  0.00    +0.000 C 
ATOM      7  C   UNL     1       4.277  -1.854  -0.034  0.00  0.00    +0.000 C 
ATOM      8  C   UNL     1       2.810  -1.655   0.386  0.00  0.00    +0.000 C 
ATOM      9  C   UNL     1       2.535  -1.939   1.862  0.00  0.00    +0.000 C 
ENDROOT
BRANCH   8  10
ATOM     10  O   UNL     1       1.924  -2.429  -0.467  0.00  0.00    +0.000 OA
BRANCH  10  11
ATOM     11  C   UNL     1       1.958  -3.783  -0.449  0.00  0.00    +0.000 C 
ATOM     12  O   UNL     1       2.679  -4.483   0.243  0.00  0.00    +0.000 OA
BRANCH  11  13
ATOM     13  C   UNL     1       0.963  -4.336  -1.407  0.00  0.00    +0.000 A 
ATOM     14  C   UNL     1       0.757  -5.723  -1.420  0.00  0.00    +0.000 A 
ATOM     15  C   UNL     1      -0.164  -6.291  -2.302  0.00  0.00    +0.000 A 
ATOM     16  C   UNL     1      -0.884  -5.479  -3.177  0.00  0.00    +0.000 A 
ATOM     17  C   UNL     1      -0.684  -4.099  -3.173  0.00  0.00    +0.000 A 
ATOM     18  C   UNL     1       0.237  -3.526  -2.292  0.00  0.00    +0.000 A 
ENDBRANCH  11  13
ENDBRANCH  10  11
ENDBRANCH   8  10
TORSDOF 3
