REMARK  Name = *****
REMARK  3 active torsions:
REMARK  status: ('A' for Active; 'I' for Inactive)
REMARK    1  A    between atoms: C_4  and  N_7
REMARK    2  A    between atoms: N_7  and  C_8
REMARK    3  A    between atoms: C_8  and  C_10
REMARK                            x       y       z     vdW  Elec       q    Type
REMARK                         _______ _______ _______ _____ _____    ______ ____
ROOT
ATOM      1  C   UNL     1      -3.716  -1.337  -0.045  0.00  0.00    +0.000 C 
ATOM      2  S   UNL     1      -3.447  -2.838  -0.742  0.00  0.00    +0.000 S 
ENDROOT
BRANCH   1   3
ATOM      3  C   UNL     1      -5.096  -0.979   0.402  0.00  0.00    +0.000 A 
ATOM      4  C   UNL     1      -6.138  -0.861  -0.526  0.00  0.00    +0.000 A 
ATOM      5  C   UNL     1      -7.415  -0.500  -0.090  0.00  0.00    +0.000 A 
ATOM      6  C   UNL     1      -7.643  -0.255   1.264  0.00  0.00    +0.000 A 
ATOM      7  C   UNL     1      -6.606  -0.368   2.191  0.00  0.00    +0.000 A 
ATOM      8  C   UNL     1      -5.327  -0.728   1.761  0.00  0.00    +0.000 A 
ATOM      9 CL   UNL     1      -9.216   0.192   1.797  0.00  0.00    +0.000 Cl
ENDBRANCH   1   3
BRANCH   1  10
ATOM     10  N   UNL     1      -2.829  -0.290   0.170  0.00  0.00    +0.000 N 
ATOM     11  H   UNL     1      -3.263   0.536   0.486  0.00  0.00    +0.000 HD
BRANCH  10  15
ATOM     12  C   UNL     1       1.345   0.297  -0.188  0.00  0.00    +0.000 A 
ATOM     13  C   UNL     1       0.837  -0.993  -0.299  0.00  0.00    +0.000 A 
ATOM     14  C   UNL     1      -0.539  -1.227  -0.188  0.00  0.00    +0.000 A 
ATOM     15  C   UNL     1      -1.426  -0.173   0.027  0.00  0.00    +0.000 A 
ATOM     16  C   UNL     1      -0.897   1.122   0.152  0.00  0.00    +0.000 A 
ATOM     17  C   UNL     1       0.477   1.358   0.041  0.00  0.00    +0.000 A 
ENDBRANCH  10  15
ENDBRANCH   1  10
TORSDOF 3
