REMARK  Name = *****
REMARK  2 active torsions:
REMARK  status: ('A' for Active; 'I' for Inactive)
REMARK    1  A    between atoms: C_4  and  C_7
REMARK    2  A    between atoms: C_8  and  C_9
REMARK                            x       y       z     vdW  Elec       q    Type
REMARK                         _______ _______ _______ _____ _____    ______ ____
ROOT
ATOM      1  C   UNL     1      -5.124  -0.490  -0.515  0.00  0.00    +0.000 C 
ATOM      2  C   UNL     1      -6.074  -1.441  -0.570  0.00  0.00    +0.000 C 
ATOM      3  C   UNL     1      -7.503  -1.227  -0.736  0.00  0.00    +0.000 C 
ATOM      4  C   UNL     1      -8.258  -2.332  -0.765  0.00  0.00    +0.000 C 
ATOM      5  C   UNL     1      -7.458  -3.564  -0.619  0.00  0.00    +0.000 C 
ATOM      6  O   UNL     1      -7.883  -4.707  -0.612  0.00  0.00    +0.000 OA
ATOM      7  S   UNL     1      -5.758  -3.154  -0.452  0.00  0.00    +0.000 S 
ATOM      8 CL   UNL     1      -9.951  -2.427  -0.946  0.00  0.00    +0.000 Cl
ATOM      9 CL   UNL     1      -8.165   0.358  -0.885  0.00  0.00    +0.000 Cl
ENDROOT
BRANCH   1  11
ATOM     10  C   UNL     1      -2.825   0.335  -0.314  0.00  0.00    +0.000 C 
ATOM     11  C   UNL     1      -3.695  -0.687  -0.350  0.00  0.00    +0.000 C 
BRANCH  10  15
ATOM     12  C   UNL     1       1.409  -0.043   0.171  0.00  0.00    +0.000 A 
ATOM     13  C   UNL     1       0.723  -0.970  -0.609  0.00  0.00    +0.000 A 
ATOM     14  C   UNL     1      -0.661  -0.863  -0.770  0.00  0.00    +0.000 A 
ATOM     15  C   UNL     1      -1.374   0.168  -0.143  0.00  0.00    +0.000 A 
ATOM     16  C   UNL     1      -0.669   1.104   0.625  0.00  0.00    +0.000 A 
ATOM     17  C   UNL     1       0.714   0.996   0.786  0.00  0.00    +0.000 A 
ENDBRANCH  10  15
ENDBRANCH   1  11
TORSDOF 2
