REMARK  Name = *****
REMARK  3 active torsions:
REMARK  status: ('A' for Active; 'I' for Inactive)
REMARK    1  A    between atoms: C_4  and  S_6
REMARK    2  A    between atoms: S_6  and  C_7
REMARK    3  A    between atoms: C_7  and  C_8
REMARK                            x       y       z     vdW  Elec       q    Type
REMARK                         _______ _______ _______ _____ _____    ______ ____
ROOT
ATOM      1  C   UNL     1       1.106  -3.855  -0.250  0.00  0.00    +0.000 C 
ENDROOT
BRANCH   1   2
ATOM      2  C   UNL     1       0.858  -5.342  -0.192  0.00  0.00    +0.000 A 
ATOM      3  C   UNL     1      -0.158  -5.924  -0.966  0.00  0.00    +0.000 A 
ATOM      4  C   UNL     1      -0.392  -7.300  -0.913  0.00  0.00    +0.000 A 
ATOM      5  C   UNL     1       0.387  -8.101  -0.080  0.00  0.00    +0.000 A 
ATOM      6  C   UNL     1       1.393  -7.539   0.703  0.00  0.00    +0.000 A 
ATOM      7  C   UNL     1       1.625  -6.162   0.650  0.00  0.00    +0.000 A 
ATOM      8 BR   UNL     1       0.074  -9.964  -0.011  0.00  0.00    +0.000 Br
ENDBRANCH   1   2
BRANCH   1   9
ATOM      9  S   UNL     1      -0.011  -2.943   0.854  0.00  0.00    +0.000 S 
BRANCH   9  13
ATOM     10  C   UNL     1       1.482   0.673  -0.139  0.00  0.00    +0.000 A 
ATOM     11  C   UNL     1       0.176   1.078  -0.297  0.00  0.00    +0.000 A 
ATOM     12  S   UNL     1      -0.930  -0.184   0.034  0.00  0.00    +0.000 S 
ATOM     13  C   UNL     1       0.332  -1.287   0.379  0.00  0.00    +0.000 A 
ATOM     14  C   UNL     1       1.572  -0.694   0.259  0.00  0.00    +0.000 A 
ENDBRANCH   9  13
ENDBRANCH   1   9
TORSDOF 3
