REMARK  Name = *****
REMARK  4 active torsions:
REMARK  status: ('A' for Active; 'I' for Inactive)
REMARK    1  A    between atoms: C_1  and  C_2
REMARK    2  A    between atoms: C_3  and  O_9
REMARK    3  A    between atoms: O_9  and  C_10
REMARK    4  A    between atoms: C_10  and  C_12
REMARK                            x       y       z     vdW  Elec       q    Type
REMARK                         _______ _______ _______ _____ _____    ______ ____
ROOT
ATOM      1  C   UNL     1      -2.822   1.343  -0.333  0.00  0.00    +0.000 C 
ATOM      2  C   UNL     1      -1.648   0.414  -0.253  0.00  0.00    +0.000 A 
ATOM      3  C   UNL     1      -1.787  -0.959  -0.498  0.00  0.00    +0.000 A 
ATOM      4  C   UNL     1      -0.696  -1.829  -0.442  0.00  0.00    +0.000 A 
ATOM      5  C   UNL     1       0.559  -1.331  -0.096  0.00  0.00    +0.000 A 
ATOM      6  C   UNL     1       0.711   0.028   0.176  0.00  0.00    +0.000 A 
ATOM      7  C   UNL     1      -0.380   0.898   0.099  0.00  0.00    +0.000 A 
ATOM      8 CL   UNL     1       2.261   0.642   0.603  0.00  0.00    +0.000 Cl
ENDROOT
BRANCH   3   9
ATOM      9  O   UNL     1      -3.033  -1.462  -0.889  0.00  0.00    +0.000 OA
BRANCH   9  10
ATOM     10  C   UNL     1      -3.730  -2.128   0.121  0.00  0.00    +0.000 C 
ATOM     11  O   UNL     1      -3.314  -2.276   1.269  0.00  0.00    +0.000 OA
BRANCH  10  12
ATOM     12  C   UNL     1      -5.093  -2.646  -0.407  0.00  0.00    +0.000 C 
ATOM     13  C   UNL     1      -6.348  -2.383   0.469  0.00  0.00    +0.000 C 
ATOM     14  C   UNL     1      -6.867  -3.764   0.028  0.00  0.00    +0.000 C 
ATOM     15  C   UNL     1      -5.400  -4.157  -0.229  0.00  0.00    +0.000 C 
ENDBRANCH  10  12
ENDBRANCH   9  10
ENDBRANCH   3   9
TORSDOF 3
