REMARK  Name = *****
REMARK  3 active torsions:
REMARK  status: ('A' for Active; 'I' for Inactive)
REMARK    1  A    between atoms: C_3  and  C_9
REMARK    2  A    between atoms: C_9  and  C_10
REMARK    3  A    between atoms: C_10  and  C_11
REMARK                            x       y       z     vdW  Elec       q    Type
REMARK                         _______ _______ _______ _____ _____    ______ ____
ROOT
ATOM      1  C   UNL     1      -1.774   0.093  -0.105  0.00  0.00    +0.000 C 
ATOM      2  C   UNL     1      -0.693   1.171   0.024  0.00  0.00    +0.000 C 
ATOM      3  C   UNL     1       0.570   0.743   0.791  0.00  0.00    +0.000 C 
ATOM      4  O   UNL     1       0.896  -0.635   0.637  0.00  0.00    +0.000 OA
ATOM      5  C   UNL     1       0.968  -1.096  -0.707  0.00  0.00    +0.000 C 
ATOM      6  C   UNL     1      -0.317  -1.843  -1.027  0.00  0.00    +0.000 C 
ATOM      7  C   UNL     1      -1.546  -0.952  -1.207  0.00  0.00    +0.000 C 
ATOM      8 CL   UNL     1      -1.500  -0.170  -2.826  0.00  0.00    +0.000 Cl
ENDROOT
BRANCH   3   9
ATOM      9  C   UNL     1       0.408   1.009   2.297  0.00  0.00    +0.000 C 
BRANCH   9  10
ATOM     10  C   UNL     1       1.688   0.695   3.079  0.00  0.00    +0.000 C 
BRANCH  10  11
ATOM     11  C   UNL     1       1.532   1.018   4.546  0.00  0.00    +0.000 A 
ATOM     12  C   UNL     1       1.025   0.058   5.432  0.00  0.00    +0.000 A 
ATOM     13  C   UNL     1       0.862   0.361   6.785  0.00  0.00    +0.000 A 
ATOM     14  C   UNL     1       1.200   1.626   7.262  0.00  0.00    +0.000 A 
ATOM     15  C   UNL     1       1.699   2.590   6.388  0.00  0.00    +0.000 A 
ATOM     16  C   UNL     1       1.863   2.288   5.035  0.00  0.00    +0.000 A 
ENDBRANCH  10  11
ENDBRANCH   9  10
ENDBRANCH   3   9
TORSDOF 3
