REMARK  Name = *****
REMARK  2 active torsions:
REMARK  status: ('A' for Active; 'I' for Inactive)
REMARK    1  A    between atoms: C_4  and  C_7
REMARK    2  A    between atoms: C_8  and  C_9
REMARK                            x       y       z     vdW  Elec       q    Type
REMARK                         _______ _______ _______ _____ _____    ______ ____
ROOT
ATOM      1  C   UNL     1       2.929   0.215  -0.275  0.00  0.00    +0.000 C 
ATOM      2  C   UNL     1       4.123   0.302  -0.378  0.00  0.00    +0.000 C 
ENDROOT
BRANCH   1   6
ATOM      3  C   UNL     1      -1.266  -0.116   0.087  0.00  0.00    +0.000 A 
ATOM      4  C   UNL     1      -0.669   1.143   0.025  0.00  0.00    +0.000 A 
ATOM      5  C   UNL     1       0.718   1.254  -0.095  0.00  0.00    +0.000 A 
ATOM      6  C   UNL     1       1.509   0.104  -0.152  0.00  0.00    +0.000 A 
ATOM      7  C   UNL     1       0.909  -1.156  -0.089  0.00  0.00    +0.000 A 
ATOM      8  C   UNL     1      -0.478  -1.265   0.030  0.00  0.00    +0.000 A 
ENDBRANCH   1   6
BRANCH   2   9
ATOM      9  C   UNL     1       5.538   0.403  -0.501  0.00  0.00    +0.000 A 
ATOM     10  C   UNL     1       6.244   1.584  -0.560  0.00  0.00    +0.000 A 
ATOM     11  S   UNL     1       7.919   1.235  -0.708  0.00  0.00    +0.000 S 
ATOM     12  C   UNL     1       7.548  -0.434  -0.680  0.00  0.00    +0.000 A 
ATOM     13  N   UNL     1       6.280  -0.756  -0.570  0.00  0.00    +0.000 NA
ATOM     14  I   UNL     1       9.021  -1.873  -0.813  0.00  0.00    +0.000 I 
ENDBRANCH   2   9
TORSDOF 2
