REMARK  Name = *****
REMARK  5 active torsions:
REMARK  status: ('A' for Active; 'I' for Inactive)
REMARK    1  A    between atoms: C_1  and  C_2
REMARK    2  A    between atoms: C_7  and  C_8
REMARK    3  A    between atoms: C_8  and  O_10
REMARK    4  A    between atoms: O_10  and  C_11
REMARK    5  A    between atoms: C_11  and  C_12
REMARK                            x       y       z     vdW  Elec       q    Type
REMARK                         _______ _______ _______ _____ _____    ______ ____
ROOT
ATOM      1  C   UNL     1       0.937  -1.898   0.658  0.00  0.00    +0.000 C 
ATOM      2  O   UNL     1       0.392  -2.844   0.100  0.00  0.00    +0.000 OA
ENDROOT
BRANCH   1   9
ATOM      3  C   UNL     1       1.447   0.509  -0.967  0.00  0.00    +0.000 C 
ATOM      4  C   UNL     1       2.559  -0.004  -0.047  0.00  0.00    +0.000 C 
ATOM      5  C   UNL     1       2.774   0.922   1.125  0.00  0.00    +0.000 C 
ATOM      6  C   UNL     1       3.058   0.490   2.362  0.00  0.00    +0.000 C 
ATOM      7  C   UNL     1       3.210  -0.957   2.723  0.00  0.00    +0.000 C 
ATOM      8  C   UNL     1       3.304  -1.886   1.508  0.00  0.00    +0.000 C 
ATOM      9  C   UNL     1       2.370  -1.483   0.359  0.00  0.00    +0.000 C 
ENDBRANCH   1   9
BRANCH   1  10
ATOM     10  O   UNL     1       0.367  -1.126   1.615  0.00  0.00    +0.000 OA
BRANCH  10  11
ATOM     11  C   UNL     1      -0.954  -1.500   2.020  0.00  0.00    +0.000 C 
BRANCH  11  12
ATOM     12  C   UNL     1      -0.873  -2.390   3.232  0.00  0.00    +0.000 A 
ATOM     13  C   UNL     1      -0.643  -1.844   4.503  0.00  0.00    +0.000 A 
ATOM     14  C   UNL     1      -0.545  -2.673   5.622  0.00  0.00    +0.000 A 
ATOM     15  C   UNL     1      -0.668  -4.054   5.480  0.00  0.00    +0.000 A 
ATOM     16  C   UNL     1      -0.884  -4.608   4.220  0.00  0.00    +0.000 A 
ATOM     17  C   UNL     1      -0.982  -3.781   3.100  0.00  0.00    +0.000 A 
ENDBRANCH  11  12
ENDBRANCH  10  11
ENDBRANCH   1  10
TORSDOF 4
