REMARK  Name = *****
REMARK  4 active torsions:
REMARK  status: ('A' for Active; 'I' for Inactive)
REMARK    1  A    between atoms: C_3  and  C_8
REMARK    2  A    between atoms: C_8  and  S_10
REMARK    3  A    between atoms: S_10  and  C_11
REMARK    4  A    between atoms: C_11  and  C_13
REMARK                            x       y       z     vdW  Elec       q    Type
REMARK                         _______ _______ _______ _____ _____    ______ ____
ROOT
ATOM      1  S   UNL     1       0.983   4.402  -0.722  0.00  0.00    +0.000 S 
ENDROOT
BRANCH   1   2
ATOM      2  C   UNL     1       2.274   3.257  -0.421  0.00  0.00    +0.000 C 
ATOM      3  O   UNL     1       2.810   3.225   0.680  0.00  0.00    +0.000 OA
BRANCH   2   6
ATOM      4  C   UNL     1       3.864   0.263  -2.084  0.00  0.00    +0.000 A 
ATOM      5  C   UNL     1       3.461   1.202  -1.131  0.00  0.00    +0.000 A 
ATOM      6  C   UNL     1       2.661   2.298  -1.497  0.00  0.00    +0.000 A 
ATOM      7  C   UNL     1       2.282   2.447  -2.838  0.00  0.00    +0.000 A 
ATOM      8  C   UNL     1       2.689   1.504  -3.783  0.00  0.00    +0.000 A 
ATOM      9  C   UNL     1       3.474   0.414  -3.413  0.00  0.00    +0.000 A 
ATOM     10 CL   UNL     1       2.217   1.689  -5.428  0.00  0.00    +0.000 Cl
ENDBRANCH   2   6
ENDBRANCH   1   2
BRANCH   1  11
ATOM     11  C   UNL     1       2.081   5.760  -0.868  0.00  0.00    +0.000 C 
ATOM     12  O   UNL     1       2.796   5.858  -1.858  0.00  0.00    +0.000 OA
BRANCH  11  13
ATOM     13  C   UNL     1       2.085   6.809   0.193  0.00  0.00    +0.000 A 
ATOM     14  C   UNL     1       1.475   6.646   1.445  0.00  0.00    +0.000 A 
ATOM     15  C   UNL     1       1.525   7.681   2.381  0.00  0.00    +0.000 A 
ATOM     16  C   UNL     1       2.179   8.876   2.091  0.00  0.00    +0.000 A 
ATOM     17  C   UNL     1       2.797   9.043   0.853  0.00  0.00    +0.000 A 
ATOM     18  C   UNL     1       2.752   8.013  -0.089  0.00  0.00    +0.000 A 
ATOM     19 CL   UNL     1       0.769   7.478   3.914  0.00  0.00    +0.000 Cl
ENDBRANCH  11  13
ENDBRANCH   1  11
TORSDOF 4
