REMARK  Name = *****
REMARK  1 active torsions:
REMARK  status: ('A' for Active; 'I' for Inactive)
REMARK    1  A    between atoms: C_6  and  C_7
REMARK                            x       y       z     vdW  Elec       q    Type
REMARK                         _______ _______ _______ _____ _____    ______ ____
ROOT
ATOM      1  C   UNL     1       0.849   1.238  -0.169  0.00  0.00    +0.000 C 
ATOM      2  C   UNL     1       1.472  -0.046   0.378  0.00  0.00    +0.000 C 
ATOM      3  C   UNL     1       0.647  -1.279   0.010  0.00  0.00    +0.000 C 
ATOM      4  C   UNL     1      -0.801  -1.111   0.401  0.00  0.00    +0.000 C 
ATOM      5  C   UNL     1      -1.472  -2.047   1.015  0.00  0.00    +0.000 C 
ATOM      6  C   UNL     1      -2.133  -2.993   1.617  0.00  0.00    +0.000 C 
ATOM      7  C   UNL     1      -1.444   0.168  -0.078  0.00  0.00    +0.000 C 
ATOM      8  C   UNL     1      -0.601   1.389   0.289  0.00  0.00    +0.000 C 
ENDROOT
BRANCH   6   9
ATOM      9  C   UNL     1      -2.978  -3.980   0.929  0.00  0.00    +0.000 A 
ATOM     10  C   UNL     1      -3.488  -5.064   1.657  0.00  0.00    +0.000 A 
ATOM     11  C   UNL     1      -4.291  -6.019   1.031  0.00  0.00    +0.000 A 
ATOM     12  C   UNL     1      -4.603  -5.909  -0.322  0.00  0.00    +0.000 A 
ATOM     13  C   UNL     1      -4.107  -4.834  -1.055  0.00  0.00    +0.000 A 
ATOM     14  C   UNL     1      -3.300  -3.877  -0.433  0.00  0.00    +0.000 A 
ATOM     15 BR   UNL     1      -4.961  -7.479   2.029  0.00  0.00    +0.000 Br
ENDBRANCH   6   9
TORSDOF 1
