REMARK  Name = *****
REMARK  4 active torsions:
REMARK  status: ('A' for Active; 'I' for Inactive)
REMARK    1  A    between atoms: C_1  and  C_2
REMARK    2  A    between atoms: N_8  and  C_9
REMARK    3  A    between atoms: C_9  and  C_10
REMARK    4  A    between atoms: C_9  and  C_11
REMARK                            x       y       z     vdW  Elec       q    Type
REMARK                         _______ _______ _______ _____ _____    ______ ____
ROOT
ATOM      1  C   UNL     1      -0.127  -2.809   3.060  0.00  0.00    +0.000 C 
ATOM      2  C   UNL     1       0.499  -1.514   2.547  0.00  0.00    +0.000 C 
ATOM      3  C   UNL     1      -0.481  -0.656   1.742  0.00  0.00    +0.000 C 
ATOM      4  C   UNL     1      -0.782  -1.227   0.358  0.00  0.00    +0.000 C 
ATOM      5  C   UNL     1       0.503  -1.454  -0.433  0.00  0.00    +0.000 C 
ATOM      6  C   UNL     1       1.475  -2.365   0.306  0.00  0.00    +0.000 C 
ATOM      7  C   UNL     1       1.735  -1.830   1.702  0.00  0.00    +0.000 C 
ATOM      8  N   UNL     1       2.876  -1.663   2.271  0.00  0.00    +0.000 NA
ENDROOT
BRANCH   8   9
ATOM      9  C   UNL     1       4.179  -1.957   1.661  0.00  0.00    +0.000 C 
ATOM     10  C   UNL     1       4.535  -0.854   0.659  0.00  0.00    +0.000 C 
BRANCH   9  11
ATOM     11  C   UNL     1       4.362  -3.403   1.222  0.00  0.00    +0.000 A 
ATOM     12  C   UNL     1       4.921  -3.763  -0.013  0.00  0.00    +0.000 A 
ATOM     13  C   UNL     1       5.083  -5.108  -0.360  0.00  0.00    +0.000 A 
ATOM     14  C   UNL     1       4.698  -6.112   0.525  0.00  0.00    +0.000 A 
ATOM     15  C   UNL     1       4.155  -5.775   1.761  0.00  0.00    +0.000 A 
ATOM     16  C   UNL     1       3.993  -4.432   2.107  0.00  0.00    +0.000 A 
ENDBRANCH   9  11
ENDBRANCH   8   9
TORSDOF 2
