REMARK  Name = *****
REMARK  5 active torsions:
REMARK  status: ('A' for Active; 'I' for Inactive)
REMARK    1  A    between atoms: C_1  and  C_2
REMARK    2  A    between atoms: C_5  and  S_8
REMARK    3  A    between atoms: S_8  and  S_9
REMARK    4  A    between atoms: S_9  and  C_12
REMARK    5  A    between atoms: C_17  and  C_18
REMARK                            x       y       z     vdW  Elec       q    Type
REMARK                         _______ _______ _______ _____ _____    ______ ____
ROOT
ATOM      1  S   UNL     1      -4.334   1.799   0.771  0.00  0.00    +0.000 S 
ATOM      2  O   UNL     1      -4.277   1.027   1.999  0.00  0.00    +0.000 OA
ATOM      3  O   UNL     1      -3.702   3.100   0.687  0.00  0.00    +0.000 OA
ENDROOT
BRANCH   1   4
ATOM      4  C   UNL     1      -6.066   1.935   0.329  0.00  0.00    +0.000 A 
ATOM      5  C   UNL     1      -6.853   0.794   0.574  0.00  0.00    +0.000 A 
ATOM      6  C   UNL     1      -8.213   0.793   0.272  0.00  0.00    +0.000 A 
ATOM      7  C   UNL     1      -8.798   1.933  -0.266  0.00  0.00    +0.000 A 
ATOM      8  C   UNL     1      -8.026   3.073  -0.499  0.00  0.00    +0.000 A 
ATOM      9  C   UNL     1      -6.649   3.098  -0.209  0.00  0.00    +0.000 A 
ATOM     10  C   UNL     1      -5.898   4.370  -0.484  0.00  0.00    +0.000 C 
ENDBRANCH   1   4
BRANCH   1  11
ATOM     11  S   UNL     1      -3.564   0.613  -0.779  0.00  0.00    +0.000 S 
BRANCH  11  16
ATOM     12  C   UNL     1       2.367   0.273   0.583  0.00  0.00    +0.000 C 
ATOM     13  C   UNL     1       0.907   0.326   0.242  0.00  0.00    +0.000 A 
ATOM     14  C   UNL     1      -0.048  -0.179   1.130  0.00  0.00    +0.000 A 
ATOM     15  C   UNL     1      -1.411  -0.098   0.828  0.00  0.00    +0.000 A 
ATOM     16  C   UNL     1      -1.839   0.513  -0.355  0.00  0.00    +0.000 A 
ATOM     17  C   UNL     1      -0.885   1.020  -1.242  0.00  0.00    +0.000 A 
ATOM     18  C   UNL     1       0.478   0.935  -0.942  0.00  0.00    +0.000 A 
ENDBRANCH  11  16
ENDBRANCH   1  11
TORSDOF 3
