REMARK  Name = *****
REMARK  4 active torsions:
REMARK  status: ('A' for Active; 'I' for Inactive)
REMARK    1  A    between atoms: C_1  and  N_2
REMARK    2  A    between atoms: N_2  and  C_3
REMARK    3  A    between atoms: N_2  and  C_11
REMARK    4  A    between atoms: C_4  and  C_5
REMARK                            x       y       z     vdW  Elec       q    Type
REMARK                         _______ _______ _______ _____ _____    ______ ____
ROOT
ATOM      1  C   UNL     1       0.942  -0.392  -0.124  0.00  0.00    +0.000 C 
ATOM      2  N   UNL     1       2.396  -0.331   0.045  0.00  0.00    +0.000 N 
ENDROOT
BRANCH   2   3
ATOM      3  C   UNL     1       3.153  -0.501  -1.146  0.00  0.00    +0.000 A 
ATOM      4  C   UNL     1       2.696  -0.044  -2.395  0.00  0.00    +0.000 A 
ATOM      5  C   UNL     1       3.456  -0.217  -3.558  0.00  0.00    +0.000 A 
ATOM      6  C   UNL     1       4.693  -0.852  -3.497  0.00  0.00    +0.000 A 
ATOM      7  C   UNL     1       5.170  -1.312  -2.274  0.00  0.00    +0.000 A 
ATOM      8  C   UNL     1       4.408  -1.136  -1.115  0.00  0.00    +0.000 A 
ENDBRANCH   2   3
BRANCH   2   9
ATOM      9  C   UNL     1       2.994   0.063   1.239  0.00  0.00    +0.000 C 
ATOM     10  C   UNL     1       2.443   0.256   2.447  0.00  0.00    +0.000 C 
BRANCH  10  11
ATOM     11  C   UNL     1       3.205   0.690   3.626  0.00  0.00    +0.000 A 
ATOM     12  C   UNL     1       4.143   1.729   3.562  0.00  0.00    +0.000 A 
ATOM     13  C   UNL     1       4.828   2.137   4.709  0.00  0.00    +0.000 A 
ATOM     14  C   UNL     1       4.575   1.518   5.932  0.00  0.00    +0.000 A 
ATOM     15  C   UNL     1       3.633   0.494   6.009  0.00  0.00    +0.000 A 
ATOM     16  C   UNL     1       2.947   0.086   4.863  0.00  0.00    +0.000 A 
ENDBRANCH  10  11
ENDBRANCH   2   9
TORSDOF 3
