REMARK  Name = *****
REMARK  4 active torsions:
REMARK  status: ('A' for Active; 'I' for Inactive)
REMARK    1  A    between atoms: C_1  and  C_2
REMARK    2  A    between atoms: C_3  and  C_7
REMARK    3  A    between atoms: C_7  and  C_8
REMARK    4  A    between atoms: C_9  and  C_10
REMARK                            x       y       z     vdW  Elec       q    Type
REMARK                         _______ _______ _______ _____ _____    ______ ____
ROOT
ATOM      1  C   UNL     1       2.048  -2.814  -0.085  0.00  0.00    +0.000 C 
ATOM      2  C   UNL     1       2.636  -3.931   0.372  0.00  0.00    +0.000 C 
ENDROOT
BRANCH   2   3
ATOM      3  C   UNL     1       4.061  -4.237   0.196  0.00  0.00    +0.000 A 
ATOM      4  C   UNL     1       4.758  -4.846   1.249  0.00  0.00    +0.000 A 
ATOM      5  C   UNL     1       6.108  -5.177   1.108  0.00  0.00    +0.000 A 
ATOM      6  C   UNL     1       6.757  -4.910  -0.090  0.00  0.00    +0.000 A 
ATOM      7  C   UNL     1       6.082  -4.321  -1.152  0.00  0.00    +0.000 A 
ATOM      8  C   UNL     1       4.732  -3.989  -1.011  0.00  0.00    +0.000 A 
ATOM      9  F   UNL     1       8.050  -5.230  -0.227  0.00  0.00    +0.000 F 
ENDBRANCH   2   3
BRANCH   1  10
ATOM     10  C   UNL     1       0.589  -2.495   0.109  0.00  0.00    +0.000 C 
BRANCH  10  13
ATOM     11  C   UNL     1       0.350   0.534  -0.869  0.00  0.00    +0.000 C 
ATOM     12  C   UNL     1       0.224   0.054   0.540  0.00  0.00    +0.000 A 
ATOM     13  C   UNL     1       0.332  -1.270   0.946  0.00  0.00    +0.000 A 
ATOM     14  S   UNL     1       0.137  -1.441   2.642  0.00  0.00    +0.000 S 
ATOM     15  C   UNL     1      -0.095   0.235   2.851  0.00  0.00    +0.000 A 
ATOM     16  C   UNL     1      -0.025   0.916   1.658  0.00  0.00    +0.000 A 
ENDBRANCH  10  13
ENDBRANCH   1  10
TORSDOF 3
