REMARK  Name = *****
REMARK  4 active torsions:
REMARK  status: ('A' for Active; 'I' for Inactive)
REMARK    1  A    between atoms: C_5  and  C_7
REMARK    2  A    between atoms: C_7  and  C_8
REMARK    3  A    between atoms: C_8  and  C_9
REMARK    4  A    between atoms: C_9  and  C_10
REMARK                            x       y       z     vdW  Elec       q    Type
REMARK                         _______ _______ _______ _____ _____    ______ ____
ROOT
ATOM      1  C   UNL     1      -2.870   0.418   2.378  0.00  0.00    +0.000 C 
ENDROOT
BRANCH   1   2
ATOM      2  C   UNL     1      -1.475   0.750   1.841  0.00  0.00    +0.000 C 
BRANCH   2   7
ATOM      3  C   UNL     1       2.118  -0.356  -0.127  0.00  0.00    +0.000 C 
ATOM      4  C   UNL     1       0.784  -0.250  -0.143  0.00  0.00    +0.000 C 
ATOM      5  C   UNL     1      -0.166  -1.412  -0.064  0.00  0.00    +0.000 C 
ATOM      6  C   UNL     1      -1.533  -0.761  -0.252  0.00  0.00    +0.000 C 
ATOM      7  C   UNL     1      -1.377   0.659   0.305  0.00  0.00    +0.000 C 
ATOM      8  C   UNL     1       0.024   1.049  -0.189  0.00  0.00    +0.000 C 
ENDBRANCH   2   7
ENDBRANCH   1   2
BRANCH   1   9
ATOM      9  C   UNL     1      -2.940   0.631   3.893  0.00  0.00    +0.000 C 
BRANCH   9  10
ATOM     10  C   UNL     1      -4.282   0.227   4.451  0.00  0.00    +0.000 A 
ATOM     11  C   UNL     1      -4.511  -1.094   4.859  0.00  0.00    +0.000 A 
ATOM     12  C   UNL     1      -5.756  -1.473   5.362  0.00  0.00    +0.000 A 
ATOM     13  C   UNL     1      -6.784  -0.538   5.457  0.00  0.00    +0.000 A 
ATOM     14  C   UNL     1      -6.569   0.777   5.048  0.00  0.00    +0.000 A 
ATOM     15  C   UNL     1      -5.324   1.158   4.545  0.00  0.00    +0.000 A 
ENDBRANCH   9  10
ENDBRANCH   1   9
TORSDOF 4
