REMARK  Name = *****
REMARK  4 active torsions:
REMARK  status: ('A' for Active; 'I' for Inactive)
REMARK    1  A    between atoms: C_1  and  C_2
REMARK    2  A    between atoms: C_3  and  C_5
REMARK    3  A    between atoms: C_10  and  C_11
REMARK    4  A    between atoms: C_12  and  C_13
REMARK                            x       y       z     vdW  Elec       q    Type
REMARK                         _______ _______ _______ _____ _____    ______ ____
ROOT
ATOM      1  C   UNL     1       4.490   1.558  -0.751  0.00  0.00    +0.000 A 
ATOM      2  C   UNL     1       5.597   0.847  -0.249  0.00  0.00    +0.000 A 
ATOM      3  C   UNL     1       6.810   1.480   0.031  0.00  0.00    +0.000 A 
ATOM      4  C   UNL     1       6.948   2.846  -0.189  0.00  0.00    +0.000 A 
ATOM      5  C   UNL     1       5.873   3.577  -0.690  0.00  0.00    +0.000 A 
ATOM      6  C   UNL     1       4.656   2.942  -0.971  0.00  0.00    +0.000 A 
ENDROOT
BRANCH   1   9
ATOM      7  C   UNL     1       0.627   0.852  -0.562  0.00  0.00    +0.000 C 
ATOM      8  C   UNL     1       2.031   0.968  -0.091  0.00  0.00    +0.000 C 
ATOM      9  C   UNL     1       3.192   0.844  -1.054  0.00  0.00    +0.000 C 
ATOM     10  O   UNL     1       2.792  -0.236  -0.184  0.00  0.00    +0.000 OA
ENDBRANCH   1   9
BRANCH   6  11
ATOM     11  C   UNL     1       3.579   3.732  -1.493  0.00  0.00    +0.000 C 
ATOM     12  C   UNL     1       2.672   4.388  -1.930  0.00  0.00    +0.000 C 
BRANCH  12  13
ATOM     13  C   UNL     1       1.589   5.164  -2.450  0.00  0.00    +0.000 A 
ATOM     14  C   UNL     1       1.653   6.559  -2.425  0.00  0.00    +0.000 A 
ATOM     15  C   UNL     1       0.595   7.316  -2.931  0.00  0.00    +0.000 A 
ATOM     16  C   UNL     1      -0.527   6.680  -3.462  0.00  0.00    +0.000 A 
ATOM     17  C   UNL     1      -0.593   5.287  -3.488  0.00  0.00    +0.000 A 
ATOM     18  C   UNL     1       0.465   4.528  -2.983  0.00  0.00    +0.000 A 
ENDBRANCH  12  13
ENDBRANCH   6  11
TORSDOF 3
