REMARK  Name = *****
REMARK  5 active torsions:
REMARK  status: ('A' for Active; 'I' for Inactive)
REMARK    1  A    between atoms: C_1  and  C_2
REMARK    2  A    between atoms: C_5  and  N_8
REMARK    3  A    between atoms: N_8  and  S_9
REMARK    4  A    between atoms: S_9  and  C_10
REMARK    5  A    between atoms: C_13  and  C_16
REMARK                            x       y       z     vdW  Elec       q    Type
REMARK                         _______ _______ _______ _____ _____    ______ ____
ROOT
ATOM      1  N   UNL     1      -3.187   0.322   0.188  0.00  0.00    +0.000 N 
ATOM      2  H   UNL     1      -3.678  -0.465   0.518  0.00  0.00    +0.000 HD
ENDROOT
BRANCH   1   7
ATOM      3  C   UNL     1       2.525  -0.233  -0.187  0.00  0.00    +0.000 C 
ATOM      4  C   UNL     1       1.039  -0.072  -0.073  0.00  0.00    +0.000 A 
ATOM      5  C   UNL     1       0.463   1.200  -0.033  0.00  0.00    +0.000 A 
ATOM      6  C   UNL     1      -0.927   1.351   0.041  0.00  0.00    +0.000 A 
ATOM      7  C   UNL     1      -1.780   0.239   0.040  0.00  0.00    +0.000 A 
ATOM      8  C   UNL     1      -1.186  -1.033   0.021  0.00  0.00    +0.000 A 
ATOM      9  C   UNL     1       0.202  -1.189  -0.053  0.00  0.00    +0.000 A 
ENDBRANCH   1   7
BRANCH   1  10
ATOM     10  S   UNL     1      -4.039   1.707  -0.180  0.00  0.00    +0.000 S 
BRANCH  10  11
ATOM     11  C   UNL     1      -4.302   2.438   1.434  0.00  0.00    +0.000 A 
ATOM     12  C   UNL     1      -3.914   1.837   2.635  0.00  0.00    +0.000 A 
ATOM     13  C   UNL     1      -4.152   2.468   3.861  0.00  0.00    +0.000 A 
ATOM     14  C   UNL     1      -4.775   3.719   3.907  0.00  0.00    +0.000 A 
ATOM     15  C   UNL     1      -5.181   4.316   2.710  0.00  0.00    +0.000 A 
ATOM     16  C   UNL     1      -4.941   3.683   1.486  0.00  0.00    +0.000 A 
ATOM     17  C   UNL     1      -5.061   4.380   5.223  0.00  0.00    +0.000 C 
ENDBRANCH  10  11
ENDBRANCH   1  10
TORSDOF 3
