REMARK  Name = *****
REMARK  4 active torsions:
REMARK  status: ('A' for Active; 'I' for Inactive)
REMARK    1  A    between atoms: C_5  and  C_7
REMARK    2  A    between atoms: C_7  and  O_9
REMARK    3  A    between atoms: O_9  and  C_10
REMARK    4  A    between atoms: C_10  and  C_11
REMARK                            x       y       z     vdW  Elec       q    Type
REMARK                         _______ _______ _______ _____ _____    ______ ____
ROOT
ATOM      1  C   UNL     1       4.869   2.563   0.182  0.00  0.00    +0.000 C 
ATOM      2  O   UNL     1       4.124   3.530   0.137  0.00  0.00    +0.000 OA
ENDROOT
BRANCH   1   7
ATOM      3  C   UNL     1       4.750  -1.243   0.120  0.00  0.00    +0.000 A 
ATOM      4  C   UNL     1       3.377  -1.454  -0.003  0.00  0.00    +0.000 A 
ATOM      5  C   UNL     1       2.506  -0.367  -0.064  0.00  0.00    +0.000 A 
ATOM      6  C   UNL     1       3.008   0.934  -0.002  0.00  0.00    +0.000 A 
ATOM      7  C   UNL     1       4.387   1.156   0.121  0.00  0.00    +0.000 A 
ATOM      8  C   UNL     1       5.256   0.058   0.183  0.00  0.00    +0.000 A 
ENDBRANCH   1   7
BRANCH   1   9
ATOM      9  O   UNL     1       6.219   2.597   0.286  0.00  0.00    +0.000 OA
BRANCH   9  10
ATOM     10  C   UNL     1       6.801   3.901   0.400  0.00  0.00    +0.000 C 
BRANCH  10  11
ATOM     11  C   UNL     1       7.056   4.210   1.852  0.00  0.00    +0.000 A 
ATOM     12  C   UNL     1       8.196   3.711   2.498  0.00  0.00    +0.000 A 
ATOM     13  C   UNL     1       8.419   3.983   3.849  0.00  0.00    +0.000 A 
ATOM     14  C   UNL     1       7.502   4.747   4.568  0.00  0.00    +0.000 A 
ATOM     15  C   UNL     1       6.358   5.236   3.939  0.00  0.00    +0.000 A 
ATOM     16  C   UNL     1       6.134   4.966   2.589  0.00  0.00    +0.000 A 
ENDBRANCH  10  11
ENDBRANCH   9  10
ENDBRANCH   1   9
TORSDOF 4
