REMARK  Name = *****
REMARK  3 active torsions:
REMARK  status: ('A' for Active; 'I' for Inactive)
REMARK    1  A    between atoms: C_4  and  C_7
REMARK    2  A    between atoms: C_8  and  C_9
REMARK    3  A    between atoms: C_14  and  C_15
REMARK                            x       y       z     vdW  Elec       q    Type
REMARK                         _______ _______ _______ _____ _____    ______ ____
ROOT
ATOM      1  C   UNL     1      -2.800   0.465  -0.066  0.00  0.00    +0.000 C 
ATOM      2  C   UNL     1      -3.697  -0.448  -0.470  0.00  0.00    +0.000 C 
ENDROOT
BRANCH   1   6
ATOM      3  C   UNL     1       1.421  -0.174   0.211  0.00  0.00    +0.000 A 
ATOM      4  C   UNL     1       0.705  -0.764  -0.828  0.00  0.00    +0.000 A 
ATOM      5  C   UNL     1      -0.675  -0.569  -0.927  0.00  0.00    +0.000 A 
ATOM      6  C   UNL     1      -1.355   0.209   0.019  0.00  0.00    +0.000 A 
ATOM      7  C   UNL     1      -0.621   0.811   1.049  0.00  0.00    +0.000 A 
ATOM      8  C   UNL     1       0.759   0.616   1.148  0.00  0.00    +0.000 A 
ENDBRANCH   1   6
BRANCH   2   9
ATOM      9  C   UNL     1      -5.137  -0.156  -0.558  0.00  0.00    +0.000 A 
ATOM     10  C   UNL     1      -5.823   0.285   0.586  0.00  0.00    +0.000 A 
ATOM     11  C   UNL     1      -7.192   0.553   0.539  0.00  0.00    +0.000 A 
ATOM     12  C   UNL     1      -7.897   0.381  -0.650  0.00  0.00    +0.000 A 
ATOM     13  C   UNL     1      -7.232  -0.064  -1.793  0.00  0.00    +0.000 A 
ATOM     14  C   UNL     1      -5.856  -0.338  -1.754  0.00  0.00    +0.000 A 
BRANCH  14  15
ATOM     15  C   UNL     1      -5.214  -0.792  -2.956  0.00  0.00    +0.000 C 
ATOM     16  N   UNL     1      -4.708  -1.168  -3.931  0.00  0.00    +0.000 NA
ENDBRANCH  14  15
ENDBRANCH   2   9
TORSDOF 3
