REMARK  Name = *****
REMARK  4 active torsions:
REMARK  status: ('A' for Active; 'I' for Inactive)
REMARK    1  A    between atoms: C_1  and  C_2
REMARK    2  A    between atoms: C_5  and  C_8
REMARK    3  A    between atoms: C_9  and  C_10
REMARK    4  A    between atoms: C_15  and  C_16
REMARK                            x       y       z     vdW  Elec       q    Type
REMARK                         _______ _______ _______ _____ _____    ______ ____
ROOT
ATOM      1  C   UNL     1      -3.282   0.155  -0.144  0.00  0.00    +0.000 C 
ATOM      2  C   UNL     1      -4.036   1.245   0.074  0.00  0.00    +0.000 C 
ENDROOT
BRANCH   1   7
ATOM      3  C   UNL     1       2.505  -0.057  -0.017  0.00  0.00    +0.000 C 
ATOM      4  C   UNL     1       1.008   0.031  -0.066  0.00  0.00    +0.000 A 
ATOM      5  C   UNL     1       0.318   0.870   0.816  0.00  0.00    +0.000 A 
ATOM      6  C   UNL     1      -1.079   0.928   0.794  0.00  0.00    +0.000 A 
ATOM      7  C   UNL     1      -1.812   0.150  -0.109  0.00  0.00    +0.000 A 
ATOM      8  C   UNL     1      -1.120  -0.712  -0.968  0.00  0.00    +0.000 A 
ATOM      9  C   UNL     1       0.278  -0.771  -0.947  0.00  0.00    +0.000 A 
ENDBRANCH   1   7
BRANCH   2  10
ATOM     10  C   UNL     1      -5.506   1.221   0.013  0.00  0.00    +0.000 A 
ATOM     11  C   UNL     1      -6.214   0.285   0.786  0.00  0.00    +0.000 A 
ATOM     12  C   UNL     1      -7.609   0.256   0.774  0.00  0.00    +0.000 A 
ATOM     13  C   UNL     1      -8.314   1.168  -0.003  0.00  0.00    +0.000 A 
ATOM     14  C   UNL     1      -7.626   2.111  -0.768  0.00  0.00    +0.000 A 
ATOM     15  C   UNL     1      -6.221   2.149  -0.771  0.00  0.00    +0.000 A 
ATOM     16  C   UNL     1      -5.521   3.185  -1.609  0.00  0.00    +0.000 C 
ENDBRANCH   2  10
TORSDOF 2
