REMARK  Name = *****
REMARK  3 active torsions:
REMARK  status: ('A' for Active; 'I' for Inactive)
REMARK    1  A    between atoms: C_3  and  S_8
REMARK    2  A    between atoms: S_8  and  C_9
REMARK    3  A    between atoms: C_9  and  C_10
REMARK                            x       y       z     vdW  Elec       q    Type
REMARK                         _______ _______ _______ _____ _____    ______ ____
ROOT
ATOM      1  S   UNL     1      -1.922  -2.797  -0.649  0.00  0.00    +0.000 S 
ENDROOT
BRANCH   1   4
ATOM      2  C   UNL     1      -1.011   1.208  -0.666  0.00  0.00    +0.000 C 
ATOM      3  C   UNL     1      -1.945   0.008  -0.521  0.00  0.00    +0.000 C 
ATOM      4  C   UNL     1      -1.193  -1.268  -0.228  0.00  0.00    +0.000 C 
ATOM      5  C   UNL     1       0.048  -1.273   0.282  0.00  0.00    +0.000 C 
ATOM      6  C   UNL     1       0.719  -0.008   0.665  0.00  0.00    +0.000 C 
ATOM      7  O   UNL     1       1.838  -0.049   1.173  0.00  0.00    +0.000 OA
ATOM      8  C   UNL     1      -0.035   1.291   0.497  0.00  0.00    +0.000 C 
ENDBRANCH   1   4
BRANCH   1   9
ATOM      9  C   UNL     1      -3.568  -2.632   0.107  0.00  0.00    +0.000 C 
BRANCH   9  10
ATOM     10  C   UNL     1      -4.339  -3.926   0.047  0.00  0.00    +0.000 A 
ATOM     11  C   UNL     1      -4.278  -4.842   1.107  0.00  0.00    +0.000 A 
ATOM     12  C   UNL     1      -4.986  -6.044   1.048  0.00  0.00    +0.000 A 
ATOM     13  C   UNL     1      -5.756  -6.345  -0.074  0.00  0.00    +0.000 A 
ATOM     14  C   UNL     1      -5.816  -5.448  -1.139  0.00  0.00    +0.000 A 
ATOM     15  C   UNL     1      -5.110  -4.246  -1.081  0.00  0.00    +0.000 A 
ENDBRANCH   9  10
ENDBRANCH   1   9
TORSDOF 3
