REMARK  Name = *****
REMARK  5 active torsions:
REMARK  status: ('A' for Active; 'I' for Inactive)
REMARK    1  A    between atoms: C_1  and  S_2
REMARK    2  A    between atoms: S_2  and  C_3
REMARK    3  A    between atoms: S_2  and  C_10
REMARK    4  A    between atoms: C_3  and  C_4
REMARK    5  A    between atoms: C_10  and  C_11
REMARK                            x       y       z     vdW  Elec       q    Type
REMARK                         _______ _______ _______ _____ _____    ______ ____
ROOT
ATOM      1  C   UNL     1       0.944   0.015   0.046  0.00  0.00    +0.000 C 
ATOM      2  S   UNL     1       2.693  -0.191  -0.365  0.00  0.00    +0.000 S 
ENDROOT
BRANCH   2   3
ATOM      3  C   UNL     1       3.131   1.572  -0.225  0.00  0.00    +0.000 C 
BRANCH   3   4
ATOM      4  C   UNL     1       4.615   1.808  -0.334  0.00  0.00    +0.000 A 
ATOM      5  C   UNL     1       5.296   1.540  -1.531  0.00  0.00    +0.000 A 
ATOM      6  C   UNL     1       6.670   1.763  -1.632  0.00  0.00    +0.000 A 
ATOM      7  C   UNL     1       7.378   2.259  -0.539  0.00  0.00    +0.000 A 
ATOM      8  C   UNL     1       6.714   2.532   0.655  0.00  0.00    +0.000 A 
ATOM      9  C   UNL     1       5.339   2.309   0.757  0.00  0.00    +0.000 A 
ENDBRANCH   3   4
ENDBRANCH   2   3
BRANCH   2  10
ATOM     10  C   UNL     1       3.258  -0.686   1.295  0.00  0.00    +0.000 C 
BRANCH  10  11
ATOM     11  C   UNL     1       2.843  -2.092   1.646  0.00  0.00    +0.000 A 
ATOM     12  C   UNL     1       3.384  -3.188   0.957  0.00  0.00    +0.000 A 
ATOM     13  C   UNL     1       3.005  -4.490   1.285  0.00  0.00    +0.000 A 
ATOM     14  C   UNL     1       2.082  -4.712   2.305  0.00  0.00    +0.000 A 
ATOM     15  C   UNL     1       1.539  -3.632   2.998  0.00  0.00    +0.000 A 
ATOM     16  C   UNL     1       1.917  -2.329   2.671  0.00  0.00    +0.000 A 
ENDBRANCH  10  11
ENDBRANCH   2  10
TORSDOF 4
