REMARK  Name = *****
REMARK  5 active torsions:
REMARK  status: ('A' for Active; 'I' for Inactive)
REMARK    1  A    between atoms: C_4  and  O_7
REMARK    2  A    between atoms: O_7  and  C_8
REMARK    3  A    between atoms: C_8  and  O_10
REMARK    4  A    between atoms: O_10  and  C_11
REMARK    5  A    between atoms: C_11  and  C_12
REMARK                            x       y       z     vdW  Elec       q    Type
REMARK                         _______ _______ _______ _____ _____    ______ ____
ROOT
ATOM      1  C   UNL     1       3.459  -1.401   0.384  0.00  0.00    +0.000 C 
ATOM      2  O   UNL     1       3.154  -2.061   1.364  0.00  0.00    +0.000 OA
ENDROOT
BRANCH   1   3
ATOM      3  O   UNL     1       2.669  -0.515  -0.267  0.00  0.00    +0.000 OA
BRANCH   3   7
ATOM      4  C   UNL     1      -1.511   0.212  -0.249  0.00  0.00    +0.000 C 
ATOM      5  C   UNL     1      -1.033  -1.177   0.164  0.00  0.00    +0.000 C 
ATOM      6  C   UNL     1       0.413  -1.423  -0.257  0.00  0.00    +0.000 C 
ATOM      7  C   UNL     1       1.349  -0.333   0.274  0.00  0.00    +0.000 C 
ATOM      8  C   UNL     1       0.865   1.054  -0.158  0.00  0.00    +0.000 C 
ATOM      9  C   UNL     1      -0.579   1.306   0.264  0.00  0.00    +0.000 C 
ENDBRANCH   3   7
ENDBRANCH   1   3
BRANCH   1  10
ATOM     10  O   UNL     1       4.662  -1.428  -0.241  0.00  0.00    +0.000 OA
BRANCH  10  11
ATOM     11  C   UNL     1       5.662  -2.291   0.340  0.00  0.00    +0.000 C 
BRANCH  11  12
ATOM     12  C   UNL     1       6.700  -1.522   1.179  0.00  0.00    +0.000 C 
ATOM     13 CL   UNL     1       7.534  -0.293   0.174  0.00  0.00    +0.000 Cl
ATOM     14 CL   UNL     1       5.954  -0.701   2.582  0.00  0.00    +0.000 Cl
ATOM     15 CL   UNL     1       7.935  -2.674   1.790  0.00  0.00    +0.000 Cl
ENDBRANCH  11  12
ENDBRANCH  10  11
ENDBRANCH   1  10
TORSDOF 5
