REMARK  Name = *****
REMARK  3 active torsions:
REMARK  status: ('A' for Active; 'I' for Inactive)
REMARK    1  A    between atoms: C_4  and  S_8
REMARK    2  A    between atoms: S_8  and  S_9
REMARK    3  A    between atoms: S_9  and  C_10
REMARK                            x       y       z     vdW  Elec       q    Type
REMARK                         _______ _______ _______ _____ _____    ______ ____
ROOT
ATOM      1  S   UNL     1       0.510   3.221   1.569  0.00  0.00    +0.000 S 
ENDROOT
BRANCH   1   5
ATOM      2  C   UNL     1       0.174  -0.501  -1.094  0.00  0.00    +0.000 A 
ATOM      3  C   UNL     1       0.539   0.729  -1.643  0.00  0.00    +0.000 A 
ATOM      4  C   UNL     1       0.640   1.860  -0.829  0.00  0.00    +0.000 A 
ATOM      5  C   UNL     1       0.382   1.769   0.545  0.00  0.00    +0.000 A 
ATOM      6  C   UNL     1       0.010   0.532   1.079  0.00  0.00    +0.000 A 
ATOM      7  C   UNL     1      -0.093  -0.598   0.271  0.00  0.00    +0.000 A 
ATOM      8  F   UNL     1      -0.260   0.406   2.388  0.00  0.00    +0.000 F 
ENDBRANCH   1   5
BRANCH   1   9
ATOM      9  S   UNL     1       2.428   3.047   2.296  0.00  0.00    +0.000 S 
BRANCH   9  10
ATOM     10  C   UNL     1       3.392   3.750   0.971  0.00  0.00    +0.000 A 
ATOM     11  C   UNL     1       3.372   5.130   0.733  0.00  0.00    +0.000 A 
ATOM     12  C   UNL     1       4.131   5.679  -0.305  0.00  0.00    +0.000 A 
ATOM     13  C   UNL     1       4.919   4.856  -1.109  0.00  0.00    +0.000 A 
ATOM     14  C   UNL     1       4.952   3.483  -0.874  0.00  0.00    +0.000 A 
ATOM     15  C   UNL     1       4.194   2.940   0.162  0.00  0.00    +0.000 A 
ATOM     16  F   UNL     1       4.246   1.613   0.359  0.00  0.00    +0.000 F 
ENDBRANCH   9  10
ENDBRANCH   1   9
TORSDOF 3
