REMARK  Name = *****
REMARK  5 active torsions:
REMARK  status: ('A' for Active; 'I' for Inactive)
REMARK    1  A    between atoms: C_1  and  C_2
REMARK    2  A    between atoms: C_5  and  C_17
REMARK    3  A    between atoms: C_8  and  C_9
REMARK    4  A    between atoms: C_9  and  C_11
REMARK    5  A    between atoms: C_17  and  C_19
REMARK                            x       y       z     vdW  Elec       q    Type
REMARK                         _______ _______ _______ _____ _____    ______ ____
ROOT
ATOM      1  C   UNL     1       1.176  -0.137   0.238  0.00  0.00    +0.000 C 
ATOM      2  C   UNL     1       2.690  -0.230   0.011  0.00  0.00    +0.000 C 
ATOM      3  C   UNL     1       3.201   0.896  -0.900  0.00  0.00    +0.000 C 
ATOM      4  C   UNL     1       2.818   0.691  -2.365  0.00  0.00    +0.000 C 
ATOM      5  C   UNL     1       3.337  -0.653  -2.916  0.00  0.00    +0.000 C 
ATOM      6  C   UNL     1       2.815  -1.807  -2.017  0.00  0.00    +0.000 C 
ATOM      7  C   UNL     1       3.068  -1.601  -0.532  0.00  0.00    +0.000 C 
ATOM      8  C   UNL     1       3.594  -2.522   0.302  0.00  0.00    +0.000 C 
ENDROOT
BRANCH   5   9
ATOM      9  C   UNL     1       4.846  -0.624  -3.205  0.00  0.00    +0.000 C 
ATOM     10  C   UNL     1       5.754  -1.461  -2.674  0.00  0.00    +0.000 C 
ATOM     11  C   UNL     1       5.300   0.392  -4.226  0.00  0.00    +0.000 C 
ENDBRANCH   5   9
BRANCH   8  12
ATOM     12  C   UNL     1       3.940  -3.925  -0.065  0.00  0.00    +0.000 C 
ATOM     13  O   UNL     1       3.265  -4.576  -0.854  0.00  0.00    +0.000 OA
BRANCH  12  14
ATOM     14  C   UNL     1       5.099  -4.549   0.631  0.00  0.00    +0.000 A 
ATOM     15  C   UNL     1       5.151  -5.947   0.711  0.00  0.00    +0.000 A 
ATOM     16  C   UNL     1       6.223  -6.576   1.346  0.00  0.00    +0.000 A 
ATOM     17  C   UNL     1       7.253  -5.814   1.895  0.00  0.00    +0.000 A 
ATOM     18  C   UNL     1       7.216  -4.423   1.805  0.00  0.00    +0.000 A 
ATOM     19  C   UNL     1       6.145  -3.788   1.171  0.00  0.00    +0.000 A 
ENDBRANCH  12  14
ENDBRANCH   8  12
TORSDOF 3
