REMARK  Name = *****
REMARK  4 active torsions:
REMARK  status: ('A' for Active; 'I' for Inactive)
REMARK    1  A    between atoms: C_1  and  C_2
REMARK    2  A    between atoms: C_3  and  C_16
REMARK    3  A    between atoms: C_5  and  C_7
REMARK    4  A    between atoms: C_8  and  C_9
REMARK                            x       y       z     vdW  Elec       q    Type
REMARK                         _______ _______ _______ _____ _____    ______ ____
ROOT
ATOM      1  C   UNL     1      -2.242  -1.762   0.110  0.00  0.00    +0.000 C 
ATOM      2  C   UNL     1      -3.541  -1.480  -0.079  0.00  0.00    +0.000 C 
ENDROOT
BRANCH   2   3
ATOM      3  C   UNL     1      -4.598  -2.502  -0.031  0.00  0.00    +0.000 A 
ATOM      4  C   UNL     1      -4.701  -3.336   1.096  0.00  0.00    +0.000 A 
ATOM      5  C   UNL     1      -5.709  -4.300   1.184  0.00  0.00    +0.000 A 
ATOM      6  C   UNL     1      -6.633  -4.440   0.152  0.00  0.00    +0.000 A 
ATOM      7  C   UNL     1      -6.552  -3.614  -0.968  0.00  0.00    +0.000 A 
ATOM      8  C   UNL     1      -5.545  -2.647  -1.060  0.00  0.00    +0.000 A 
ATOM      9 CL   UNL     1      -5.507  -1.667  -2.486  0.00  0.00    +0.000 Cl
ENDBRANCH   2   3
BRANCH   1  14
ATOM     10  C   UNL     1       2.219   0.110   0.220  0.00  0.00    +0.000 C 
ATOM     11  C   UNL     1       0.752   0.142   0.088  0.00  0.00    +0.000 A 
ATOM     12  C   UNL     1      -0.185   1.127  -0.123  0.00  0.00    +0.000 A 
ATOM     13  N   UNL     1      -1.438   0.550  -0.158  0.00  0.00    +0.000 NA
ATOM     14  C   UNL     1      -1.248  -0.748   0.047  0.00  0.00    +0.000 A 
ATOM     15  O   UNL     1       0.094  -1.045   0.203  0.00  0.00    +0.000 OA
BRANCH  12  16
ATOM     16  C   UNL     1      -0.005   2.582  -0.325  0.00  0.00    +0.000 C 
ATOM     17 CL   UNL     1       0.616   3.333   1.162  0.00  0.00    +0.000 Cl
ENDBRANCH  12  16
ENDBRANCH   1  14
TORSDOF 3
