REMARK  Name = *****
REMARK  4 active torsions:
REMARK  status: ('A' for Active; 'I' for Inactive)
REMARK    1  A    between atoms: C_4  and  C_7
REMARK    2  A    between atoms: C_7  and  C_8
REMARK    3  A    between atoms: C_7  and  S_10
REMARK    4  A    between atoms: S_10  and  C_11
REMARK                            x       y       z     vdW  Elec       q    Type
REMARK                         _______ _______ _______ _____ _____    ______ ____
ROOT
ATOM      1  C   UNL     1       2.744  -0.788  -0.551  0.00  0.00    +0.000 C 
ENDROOT
BRANCH   1   5
ATOM      2  C   UNL     1      -1.461   0.502   0.014  0.00  0.00    +0.000 C 
ATOM      3  C   UNL     1      -1.144  -0.988   0.090  0.00  0.00    +0.000 C 
ATOM      4  C   UNL     1       0.195  -1.313  -0.571  0.00  0.00    +0.000 C 
ATOM      5  C   UNL     1       1.342  -0.479   0.034  0.00  0.00    +0.000 C 
ATOM      6  C   UNL     1       1.010   1.024  -0.051  0.00  0.00    +0.000 C 
ATOM      7  C   UNL     1      -0.334   1.344   0.602  0.00  0.00    +0.000 C 
ENDBRANCH   1   5
BRANCH   1   8
ATOM      8  C   UNL     1       3.154  -2.197  -0.170  0.00  0.00    +0.000 C 
ATOM      9  O   UNL     1       3.794  -2.457   0.847  0.00  0.00    +0.000 OA
ENDBRANCH   1   8
BRANCH   1  10
ATOM     10  S   UNL     1       2.858  -0.589  -2.378  0.00  0.00    +0.000 S 
BRANCH  10  11
ATOM     11  C   UNL     1       4.559  -1.028  -2.700  0.00  0.00    +0.000 A 
ATOM     12  C   UNL     1       5.626  -0.522  -1.952  0.00  0.00    +0.000 A 
ATOM     13  C   UNL     1       6.938  -0.897  -2.250  0.00  0.00    +0.000 A 
ATOM     14  C   UNL     1       7.194  -1.769  -3.307  0.00  0.00    +0.000 A 
ATOM     15  C   UNL     1       6.139  -2.262  -4.070  0.00  0.00    +0.000 A 
ATOM     16  C   UNL     1       4.827  -1.889  -3.770  0.00  0.00    +0.000 A 
ENDBRANCH  10  11
ENDBRANCH   1  10
TORSDOF 4
