REMARK  Name = *****
REMARK  5 active torsions:
REMARK  status: ('A' for Active; 'I' for Inactive)
REMARK    1  A    between atoms: C_2  and  C_16
REMARK    2  A    between atoms: C_4  and  O_8
REMARK    3  A    between atoms: C_6  and  C_7
REMARK    4  A    between atoms: O_8  and  C_9
REMARK    5  A    between atoms: C_9  and  C_10
REMARK                            x       y       z     vdW  Elec       q    Type
REMARK                         _______ _______ _______ _____ _____    ______ ____
ROOT
ATOM      1  C   UNL     1       2.097   0.050  -0.050  0.00  0.00    +0.000 A 
ATOM      2  C   UNL     1       2.803  -1.160  -0.043  0.00  0.00    +0.000 A 
ATOM      3  C   UNL     1       4.207  -1.138  -0.015  0.00  0.00    +0.000 A 
ATOM      4  C   UNL     1       4.896   0.075   0.006  0.00  0.00    +0.000 A 
ATOM      5  C   UNL     1       4.176   1.273  -0.001  0.00  0.00    +0.000 A 
ATOM      6  C   UNL     1       2.776   1.273  -0.030  0.00  0.00    +0.000 A 
ATOM      7  C   UNL     1       2.005   2.560  -0.036  0.00  0.00    +0.000 C 
ATOM      8  C   UNL     1       2.078  -2.473  -0.065  0.00  0.00    +0.000 C 
ENDROOT
BRANCH   4   9
ATOM      9  O   UNL     1       6.255   0.232   0.033  0.00  0.00    +0.000 OA
BRANCH   9  10
ATOM     10  C   UNL     1       7.047  -0.954   0.031  0.00  0.00    +0.000 C 
BRANCH  10  11
ATOM     11  C   UNL     1       8.505  -0.560   0.020  0.00  0.00    +0.000 A 
ATOM     12  C   UNL     1       9.366  -0.962   1.051  0.00  0.00    +0.000 A 
ATOM     13  C   UNL     1      10.716  -0.606   1.026  0.00  0.00    +0.000 A 
ATOM     14  C   UNL     1      11.219   0.153  -0.029  0.00  0.00    +0.000 A 
ATOM     15  C   UNL     1      10.373   0.558  -1.060  0.00  0.00    +0.000 A 
ATOM     16  C   UNL     1       9.024   0.203  -1.037  0.00  0.00    +0.000 A 
ENDBRANCH  10  11
ENDBRANCH   9  10
ENDBRANCH   4   9
TORSDOF 3
