REMARK  Name = *****
REMARK  3 active torsions:
REMARK  status: ('A' for Active; 'I' for Inactive)
REMARK    1  A    between atoms: C_4  and  C_6
REMARK    2  A    between atoms: C_6  and  C_7
REMARK    3  A    between atoms: C_7  and  C_8
REMARK                            x       y       z     vdW  Elec       q    Type
REMARK                         _______ _______ _______ _____ _____    ______ ____
ROOT
ATOM      1  C   UNL     1      -2.717   1.061   2.004  0.00  0.00    +0.000 C 
ENDROOT
BRANCH   1   2
ATOM      2  C   UNL     1      -3.197   1.703   3.283  0.00  0.00    +0.000 A 
ATOM      3  C   UNL     1      -3.586   3.049   3.301  0.00  0.00    +0.000 A 
ATOM      4  C   UNL     1      -4.014   3.645   4.488  0.00  0.00    +0.000 A 
ATOM      5  C   UNL     1      -4.051   2.905   5.668  0.00  0.00    +0.000 A 
ATOM      6  C   UNL     1      -3.659   1.567   5.662  0.00  0.00    +0.000 A 
ATOM      7  C   UNL     1      -3.232   0.969   4.476  0.00  0.00    +0.000 A 
ENDBRANCH   1   2
BRANCH   1   8
ATOM      8  C   UNL     1      -1.197   1.172   1.854  0.00  0.00    +0.000 C 
BRANCH   8  12
ATOM      9  C   UNL     1       1.151  -0.243  -0.760  0.00  0.00    +0.000 C 
ATOM     10  C   UNL     1       0.067  -1.320  -0.725  0.00  0.00    +0.000 C 
ATOM     11  C   UNL     1      -0.908  -0.909   0.375  0.00  0.00    +0.000 C 
ATOM     12  C   UNL     1      -0.697   0.596   0.528  0.00  0.00    +0.000 C 
ATOM     13  C   UNL     1       0.817   0.725   0.369  0.00  0.00    +0.000 C 
ENDBRANCH   8  12
ENDBRANCH   1   8
TORSDOF 3
