REMARK  Name = *****
REMARK  3 active torsions:
REMARK  status: ('A' for Active; 'I' for Inactive)
REMARK    1  A    between atoms: C_2  and  C_3
REMARK    2  A    between atoms: C_8  and  C_9
REMARK    3  A    between atoms: C_10  and  C_11
REMARK                            x       y       z     vdW  Elec       q    Type
REMARK                         _______ _______ _______ _____ _____    ______ ____
ROOT
ATOM      1  C   UNL     1       1.111   0.852   0.654  0.00  0.00    +0.000 A 
ATOM      2  C   UNL     1       1.712  -0.413   0.716  0.00  0.00    +0.000 A 
ATOM      3  C   UNL     1       1.197  -1.479  -0.020  0.00  0.00    +0.000 A 
ATOM      4  C   UNL     1       0.079  -1.287  -0.827  0.00  0.00    +0.000 A 
ATOM      5  C   UNL     1      -0.526  -0.030  -0.894  0.00  0.00    +0.000 A 
ATOM      6  C   UNL     1      -0.029   1.052  -0.148  0.00  0.00    +0.000 A 
ENDROOT
BRANCH   1   8
ATOM      7  C   UNL     1       2.169   2.791   2.096  0.00  0.00    +0.000 C 
ATOM      8  C   UNL     1       1.686   1.909   1.438  0.00  0.00    +0.000 C 
ENDBRANCH   1   8
BRANCH   6   9
ATOM      9  C   UNL     1      -0.671   2.375  -0.265  0.00  0.00    +0.000 C 
ATOM     10  C   UNL     1      -1.999   2.560  -0.186  0.00  0.00    +0.000 C 
BRANCH  10  11
ATOM     11  C   UNL     1      -2.654   3.872  -0.280  0.00  0.00    +0.000 A 
ATOM     12  C   UNL     1      -2.199   4.878  -1.144  0.00  0.00    +0.000 A 
ATOM     13  C   UNL     1      -2.870   6.101  -1.228  0.00  0.00    +0.000 A 
ATOM     14  C   UNL     1      -4.009   6.328  -0.458  0.00  0.00    +0.000 A 
ATOM     15  C   UNL     1      -4.481   5.330   0.392  0.00  0.00    +0.000 A 
ATOM     16  C   UNL     1      -3.810   4.107   0.476  0.00  0.00    +0.000 A 
ENDBRANCH  10  11
ENDBRANCH   6   9
TORSDOF 3
