REMARK  Name = *****
REMARK  2 active torsions:
REMARK  status: ('A' for Active; 'I' for Inactive)
REMARK    1  A    between atoms: C_4  and  C_7
REMARK    2  A    between atoms: C_8  and  C_9
REMARK                            x       y       z     vdW  Elec       q    Type
REMARK                         _______ _______ _______ _____ _____    ______ ____
ROOT
ATOM      1  C   UNL     1      -0.736  -1.185   1.875  0.00  0.00    +0.000 C 
ATOM      2  C   UNL     1      -0.759  -1.206   3.075  0.00  0.00    +0.000 C 
ENDROOT
BRANCH   1   6
ATOM      3  C   UNL     1       0.749   1.308  -0.459  0.00  0.00    +0.000 C 
ATOM      4  C   UNL     1       1.503   0.108   0.103  0.00  0.00    +0.000 C 
ATOM      5  C   UNL     1       0.739  -1.198  -0.122  0.00  0.00    +0.000 C 
ATOM      6  C   UNL     1      -0.704  -1.145   0.399  0.00  0.00    +0.000 C 
ATOM      7  C   UNL     1      -1.442   0.090  -0.135  0.00  0.00    +0.000 C 
ATOM      8  C   UNL     1      -0.671   1.391   0.092  0.00  0.00    +0.000 C 
ENDBRANCH   1   6
BRANCH   2   9
ATOM      9  C   UNL     1      -0.781  -1.218   4.501  0.00  0.00    +0.000 A 
ATOM     10  C   UNL     1      -0.807  -2.355   5.280  0.00  0.00    +0.000 A 
ATOM     11  C   UNL     1      -0.823  -2.053   6.674  0.00  0.00    +0.000 A 
ATOM     12  C   UNL     1      -0.809  -0.695   6.906  0.00  0.00    +0.000 A 
ATOM     13  S   UNL     1      -0.777   0.203   5.450  0.00  0.00    +0.000 S 
ENDBRANCH   2   9
TORSDOF 2
