REMARK  Name = *****
REMARK  2 active torsions:
REMARK  status: ('A' for Active; 'I' for Inactive)
REMARK    1  A    between atoms: C_1  and  C_2
REMARK    2  A    between atoms: C_5  and  C_8
REMARK                            x       y       z     vdW  Elec       q    Type
REMARK                         _______ _______ _______ _____ _____    ______ ____
ROOT
ATOM      1  C   UNL     1      -3.216  -0.298  -0.211  0.00  0.00    +0.000 C 
ATOM      2  C   UNL     1      -3.819  -0.144  -1.399  0.00  0.00    +0.000 C 
ATOM      3  S   UNL     1      -5.515  -0.299  -1.691  0.00  0.00    +0.000 S 
ATOM      4  C   UNL     1      -6.122   0.283  -0.172  0.00  0.00    +0.000 A 
ATOM      5  C   UNL     1      -5.515   0.127   1.020  0.00  0.00    +0.000 A 
ATOM      6  S   UNL     1      -4.006  -0.690   1.276  0.00  0.00    +0.000 S 
ATOM      7  S   UNL     1      -6.345   0.767   2.417  0.00  0.00    +0.000 S 
ATOM      8  C   UNL     1      -7.732   1.390   1.554  0.00  0.00    +0.000 A 
ATOM      9  O   UNL     1      -8.657   1.971   2.101  0.00  0.00    +0.000 OA
ATOM     10  S   UNL     1      -7.662   1.106  -0.169  0.00  0.00    +0.000 S 
ENDROOT
BRANCH   1  15
ATOM     11  C   UNL     1       2.542   0.194   0.067  0.00  0.00    +0.000 C 
ATOM     12  C   UNL     1       1.050   0.071  -0.031  0.00  0.00    +0.000 A 
ATOM     13  C   UNL     1       0.234   1.201   0.098  0.00  0.00    +0.000 A 
ATOM     14  C   UNL     1      -1.157   1.080   0.042  0.00  0.00    +0.000 A 
ATOM     15  C   UNL     1      -1.753  -0.176  -0.128  0.00  0.00    +0.000 A 
ATOM     16  C   UNL     1      -0.937  -1.308  -0.247  0.00  0.00    +0.000 A 
ATOM     17  C   UNL     1       0.454  -1.186  -0.191  0.00  0.00    +0.000 A 
ENDBRANCH   1  15
TORSDOF 1
