REMARK  Name = *****
REMARK  1 active torsions:
REMARK  status: ('A' for Active; 'I' for Inactive)
REMARK    1  A    between atoms: C_9  and  C_10
REMARK                            x       y       z     vdW  Elec       q    Type
REMARK                         _______ _______ _______ _____ _____    ______ ____
ROOT
ATOM      1  C   UNL     1       2.324   1.181  -0.895  0.00  0.00    +0.000 C 
ATOM      2  C   UNL     1       2.742   0.846  -2.345  0.00  0.00    +0.000 C 
ATOM      3  C   UNL     1       2.778  -0.623  -2.297  0.00  0.00    +0.000 C 
ATOM      4  C   UNL     1       2.669  -1.124  -1.067  0.00  0.00    +0.000 C 
ATOM      5  C   UNL     1       2.537  -0.083  -0.032  0.00  0.00    +0.000 C 
ATOM      6  C   UNL     1       2.748  -2.574  -0.985  0.00  0.00    +0.000 C 
ATOM      7  C   UNL     1       2.951  -2.982  -2.447  0.00  0.00    +0.000 C 
ATOM      8  C   UNL     1       2.957  -1.708  -3.301  0.00  0.00    +0.000 C 
ATOM      9  C   UNL     1       1.717  -3.434  -1.687  0.00  0.00    +0.000 C 
ENDROOT
BRANCH   9  10
ATOM     10  C   UNL     1       1.569  -4.888  -1.302  0.00  0.00    +0.000 A 
ATOM     11  C   UNL     1       1.327  -5.270   0.028  0.00  0.00    +0.000 A 
ATOM     12  C   UNL     1       1.174  -6.612   0.385  0.00  0.00    +0.000 A 
ATOM     13  C   UNL     1       1.252  -7.604  -0.588  0.00  0.00    +0.000 A 
ATOM     14  C   UNL     1       1.480  -7.253  -1.915  0.00  0.00    +0.000 A 
ATOM     15  C   UNL     1       1.632  -5.908  -2.266  0.00  0.00    +0.000 A 
ENDBRANCH   9  10
TORSDOF 1
