REMARK  Name = *****
REMARK  5 active torsions:
REMARK  status: ('A' for Active; 'I' for Inactive)
REMARK    1  A    between atoms: C_1  and  N_2
REMARK    2  A    between atoms: N_2  and  C_3
REMARK    3  A    between atoms: C_3  and  C_4
REMARK    4  A    between atoms: C_3  and  C_11
REMARK    5  A    between atoms: C_4  and  C_5
REMARK                            x       y       z     vdW  Elec       q    Type
REMARK                         _______ _______ _______ _____ _____    ______ ____
ROOT
ATOM      1  C   UNL     1       3.017   1.057   0.387  0.00  0.00    +0.000 C 
ENDROOT
BRANCH   1   2
ATOM      2  C   UNL     1       4.534   0.998   0.265  0.00  0.00    +0.000 A 
ATOM      3  C   UNL     1       5.221   1.980  -0.465  0.00  0.00    +0.000 A 
ATOM      4  C   UNL     1       6.613   1.942  -0.568  0.00  0.00    +0.000 A 
ATOM      5  C   UNL     1       7.334   0.927   0.059  0.00  0.00    +0.000 A 
ATOM      6  C   UNL     1       6.664  -0.051   0.791  0.00  0.00    +0.000 A 
ATOM      7  C   UNL     1       5.273  -0.015   0.896  0.00  0.00    +0.000 A 
ENDBRANCH   1   2
BRANCH   1   9
ATOM      8  C   UNL     1       2.235  -0.617  -1.018  0.00  0.00    +0.000 C 
ATOM      9  N   UNL     1       2.405  -0.282   0.211  0.00  0.00    +0.000 NA
ENDBRANCH   1   9
BRANCH   1  10
ATOM     10  C   UNL     1       2.621   1.609   1.775  0.00  0.00    +0.000 C 
BRANCH  10  11
ATOM     11  C   UNL     1       1.191   2.103   1.825  0.00  0.00    +0.000 A 
ATOM     12  C   UNL     1       0.139   1.209   2.068  0.00  0.00    +0.000 A 
ATOM     13  C   UNL     1      -1.181   1.661   2.100  0.00  0.00    +0.000 A 
ATOM     14  C   UNL     1      -1.462   3.009   1.888  0.00  0.00    +0.000 A 
ATOM     15  C   UNL     1      -0.424   3.906   1.641  0.00  0.00    +0.000 A 
ATOM     16  C   UNL     1       0.897   3.456   1.608  0.00  0.00    +0.000 A 
ENDBRANCH  10  11
ENDBRANCH   1  10
TORSDOF 4
