REMARK  Name = *****
REMARK  5 active torsions:
REMARK  status: ('A' for Active; 'I' for Inactive)
REMARK    1  A    between atoms: C_1  and  C_2
REMARK    2  A    between atoms: C_2  and  C_3
REMARK    3  A    between atoms: C_2  and  O_9
REMARK    4  A    between atoms: O_9  and  C_10
REMARK    5  A    between atoms: C_10  and  C_12
REMARK                            x       y       z     vdW  Elec       q    Type
REMARK                         _______ _______ _______ _____ _____    ______ ____
ROOT
ATOM      1  O   UNL     1       3.228   0.106  -1.373  0.00  0.00    +0.000 OA
ENDROOT
BRANCH   1   3
ATOM      2  C   UNL     1       2.551   1.636   0.383  0.00  0.00    +0.000 C 
ATOM      3  C   UNL     1       2.679   0.175  -0.044  0.00  0.00    +0.000 C 
BRANCH   3   4
ATOM      4  C   UNL     1       1.321  -0.502  -0.052  0.00  0.00    +0.000 A 
ATOM      5  C   UNL     1       0.401  -0.286  -1.091  0.00  0.00    +0.000 A 
ATOM      6  C   UNL     1      -0.851  -0.903  -1.074  0.00  0.00    +0.000 A 
ATOM      7  C   UNL     1      -1.203  -1.739  -0.017  0.00  0.00    +0.000 A 
ATOM      8  C   UNL     1      -0.303  -1.959   1.024  0.00  0.00    +0.000 A 
ATOM      9  C   UNL     1       0.950  -1.343   1.009  0.00  0.00    +0.000 A 
ENDBRANCH   3   4
ENDBRANCH   1   3
BRANCH   1  10
ATOM     10  C   UNL     1       4.585   0.157  -1.459  0.00  0.00    +0.000 C 
ATOM     11  O   UNL     1       5.348   0.265  -0.509  0.00  0.00    +0.000 OA
BRANCH  10  12
ATOM     12  C   UNL     1       5.008   0.089  -2.915  0.00  0.00    +0.000 C 
ATOM     13  C   UNL     1       6.445  -0.431  -3.046  0.00  0.00    +0.000 C 
ATOM     14  C   UNL     1       6.909  -0.435  -4.500  0.00  0.00    +0.000 C 
ATOM     15  C   UNL     1       6.760   0.943  -5.138  0.00  0.00    +0.000 C 
ATOM     16  C   UNL     1       5.334   1.471  -5.010  0.00  0.00    +0.000 C 
ATOM     17  C   UNL     1       4.858   1.470  -3.559  0.00  0.00    +0.000 C 
ENDBRANCH  10  12
ENDBRANCH   1  10
TORSDOF 4
