REMARK  Name = *****
REMARK  4 active torsions:
REMARK  status: ('A' for Active; 'I' for Inactive)
REMARK    1  A    between atoms: C_1  and  C_2
REMARK    2  A    between atoms: C_7  and  O_8
REMARK    3  A    between atoms: O_8  and  C_9
REMARK    4  A    between atoms: C_9  and  C_11
REMARK                            x       y       z     vdW  Elec       q    Type
REMARK                         _______ _______ _______ _____ _____    ______ ____
ROOT
ATOM      1  C   UNL     1       2.056  -2.664   0.105  0.00  0.00    +0.000 C 
ATOM      2  O   UNL     1       2.265  -2.254   1.237  0.00  0.00    +0.000 OA
ENDROOT
BRANCH   1   3
ATOM      3  C   UNL     1       2.758  -3.846  -0.469  0.00  0.00    +0.000 A 
ATOM      4  C   UNL     1       2.484  -4.339  -1.751  0.00  0.00    +0.000 A 
ATOM      5  C   UNL     1       3.179  -5.451  -2.227  0.00  0.00    +0.000 A 
ATOM      6  C   UNL     1       4.145  -6.078  -1.441  0.00  0.00    +0.000 A 
ATOM      7  C   UNL     1       4.421  -5.592  -0.164  0.00  0.00    +0.000 A 
ATOM      8  C   UNL     1       3.730  -4.480   0.321  0.00  0.00    +0.000 A 
ATOM      9 CL   UNL     1       2.841  -6.056  -3.802  0.00  0.00    +0.000 Cl
ENDBRANCH   1   3
BRANCH   1  10
ATOM     10  O   UNL     1       1.184  -2.143  -0.830  0.00  0.00    +0.000 OA
BRANCH  10  17
ATOM     11  C   UNL     1       2.250   0.469  -1.417  0.00  0.00    +0.000 C 
ATOM     12  C   UNL     1       0.961   0.265  -0.680  0.00  0.00    +0.000 A 
ATOM     13  C   UNL     1       0.215   1.365  -0.237  0.00  0.00    +0.000 A 
ATOM     14  C   UNL     1      -0.983   1.178   0.461  0.00  0.00    +0.000 A 
ATOM     15  C   UNL     1      -1.449  -0.109   0.728  0.00  0.00    +0.000 A 
ATOM     16  C   UNL     1      -0.716  -1.215   0.305  0.00  0.00    +0.000 A 
ATOM     17  C   UNL     1       0.488  -1.018  -0.375  0.00  0.00    +0.000 A 
ENDBRANCH  10  17
ENDBRANCH   1  10
TORSDOF 3
