REMARK  Name = *****
REMARK  7 active torsions:
REMARK  status: ('A' for Active; 'I' for Inactive)
REMARK    1  A    between atoms: C_1  and  C_2
REMARK    2  A    between atoms: C_4  and  C_18
REMARK    3  A    between atoms: C_5  and  N_9
REMARK    4  A    between atoms: C_6  and  C_8
REMARK    5  A    between atoms: C_10  and  C_11
REMARK    6  A    between atoms: C_10  and  O_16
REMARK    7  A    between atoms: O_16  and  C_17
REMARK                            x       y       z     vdW  Elec       q    Type
REMARK                         _______ _______ _______ _____ _____    ______ ____
ROOT
ATOM      1  C   UNL     1       1.776   2.467   0.131  0.00  0.00    +0.000 C 
ATOM      2  C   UNL     1       0.773   1.360  -0.006  0.00  0.00    +0.000 A 
ATOM      3  C   UNL     1       1.158   0.028   0.180  0.00  0.00    +0.000 A 
ATOM      4  C   UNL     1       0.236  -1.018   0.022  0.00  0.00    +0.000 A 
ATOM      5  C   UNL     1      -1.101  -0.724  -0.312  0.00  0.00    +0.000 A 
ATOM      6  C   UNL     1      -1.481   0.610  -0.560  0.00  0.00    +0.000 A 
ATOM      7  C   UNL     1      -0.542   1.640  -0.391  0.00  0.00    +0.000 A 
ATOM      8  C   UNL     1      -2.886   0.952  -0.973  0.00  0.00    +0.000 C 
ATOM      9  C   UNL     1       0.682  -2.439   0.231  0.00  0.00    +0.000 C 
ENDROOT
BRANCH   5  10
ATOM     10  N   UNL     1      -2.025  -1.763  -0.474  0.00  0.00    +0.000 NA
ATOM     11  C   UNL     1      -2.804  -2.152   0.489  0.00  0.00    +0.000 C 
BRANCH  11  12
ATOM     12  C   UNL     1      -2.915  -1.681   1.858  0.00  0.00    +0.000 A 
ATOM     13  C   UNL     1      -2.210  -0.770   2.630  0.00  0.00    +0.000 A 
ATOM     14  C   UNL     1      -2.810  -0.741   3.914  0.00  0.00    +0.000 A 
ATOM     15  C   UNL     1      -3.848  -1.635   3.866  0.00  0.00    +0.000 A 
ATOM     16  O   UNL     1      -3.922  -2.207   2.641  0.00  0.00    +0.000 OA
ENDBRANCH  11  12
BRANCH  11  17
ATOM     17  O   UNL     1      -3.697  -3.165   0.272  0.00  0.00    +0.000 OA
ATOM     18  C   UNL     1      -3.712  -3.738  -1.038  0.00  0.00    +0.000 C 
ENDBRANCH  11  17
ENDBRANCH   5  10
TORSDOF 3
