REMARK  Name = *****
REMARK  2 active torsions:
REMARK  status: ('A' for Active; 'I' for Inactive)
REMARK    1  A    between atoms: C_4  and  C_8
REMARK    2  A    between atoms: N_9  and  C_10
REMARK                            x       y       z     vdW  Elec       q    Type
REMARK                         _______ _______ _______ _____ _____    ______ ____
ROOT
ATOM      1  C   UNL     1      -0.078   2.507  -0.216  0.00  0.00    +0.000 C 
ATOM      2  N   UNL     1       0.964   3.277  -0.227  0.00  0.00    +0.000 NA
ENDROOT
BRANCH   1   6
ATOM      3  C   UNL     1       0.060  -1.767  -0.221  0.00  0.00    +0.000 A 
ATOM      4  C   UNL     1      -1.156  -1.088  -0.167  0.00  0.00    +0.000 A 
ATOM      5  C   UNL     1      -1.171   0.307  -0.168  0.00  0.00    +0.000 A 
ATOM      6  C   UNL     1       0.014   1.039  -0.219  0.00  0.00    +0.000 A 
ATOM      7  C   UNL     1       1.226   0.352  -0.273  0.00  0.00    +0.000 A 
ATOM      8  C   UNL     1       1.252  -1.044  -0.274  0.00  0.00    +0.000 A 
ATOM      9  F   UNL     1       2.399   0.996  -0.328  0.00  0.00    +0.000 F 
ATOM     10  F   UNL     1      -2.357   0.931  -0.115  0.00  0.00    +0.000 F 
ENDBRANCH   1   6
BRANCH   2  11
ATOM     11  C   UNL     1       0.720   4.656  -0.221  0.00  0.00    +0.000 A 
ATOM     12  C   UNL     1       0.492   5.333   0.979  0.00  0.00    +0.000 A 
ATOM     13  C   UNL     1       0.274   6.707   0.967  0.00  0.00    +0.000 A 
ATOM     14  C   UNL     1       0.287   7.426  -0.219  0.00  0.00    +0.000 A 
ATOM     15  C   UNL     1       0.531   6.748  -1.405  0.00  0.00    +0.000 A 
ATOM     16  C   UNL     1       0.751   5.375  -1.418  0.00  0.00    +0.000 A 
ATOM     17  F   UNL     1       0.555   7.429  -2.559  0.00  0.00    +0.000 F 
ATOM     18  F   UNL     1       0.048   7.347   2.122  0.00  0.00    +0.000 F 
ENDBRANCH   2  11
TORSDOF 2
