REMARK  Name = *****
REMARK  3 active torsions:
REMARK  status: ('A' for Active; 'I' for Inactive)
REMARK    1  A    between atoms: C_4  and  C_7
REMARK    2  A    between atoms: C_8  and  C_9
REMARK    3  A    between atoms: C_9  and  C_11
REMARK                            x       y       z     vdW  Elec       q    Type
REMARK                         _______ _______ _______ _____ _____    ______ ____
ROOT
ATOM      1  C   UNL     1      -2.826   0.347   0.123  0.00  0.00    +0.000 C 
ATOM      2  C   UNL     1      -3.730  -0.556  -0.287  0.00  0.00    +0.000 C 
ENDROOT
BRANCH   1   6
ATOM      3  C   UNL     1       1.410  -0.100   0.246  0.00  0.00    +0.000 A 
ATOM      4  C   UNL     1       0.786   0.273  -0.943  0.00  0.00    +0.000 A 
ATOM      5  C   UNL     1      -0.603   0.414  -0.990  0.00  0.00    +0.000 A 
ATOM      6  C   UNL     1      -1.373   0.179   0.153  0.00  0.00    +0.000 A 
ATOM      7  C   UNL     1      -0.741  -0.196   1.344  0.00  0.00    +0.000 A 
ATOM      8  C   UNL     1       0.647  -0.335   1.390  0.00  0.00    +0.000 A 
ENDBRANCH   1   6
BRANCH   2   9
ATOM      9  C   UNL     1      -3.430  -1.910  -0.855  0.00  0.00    +0.000 C 
ATOM     10  O   UNL     1      -2.435  -2.063  -1.561  0.00  0.00    +0.000 OA
BRANCH   9  11
ATOM     11  C   UNL     1      -4.373  -3.003  -0.621  0.00  0.00    +0.000 A 
ATOM     12  C   UNL     1      -4.344  -4.247  -1.231  0.00  0.00    +0.000 A 
ATOM     13  C   UNL     1      -5.390  -5.106  -0.789  0.00  0.00    +0.000 A 
ATOM     14  C   UNL     1      -6.182  -4.500   0.159  0.00  0.00    +0.000 A 
ATOM     15  S   UNL     1      -5.658  -2.912   0.509  0.00  0.00    +0.000 S 
ENDBRANCH   9  11
ENDBRANCH   2   9
TORSDOF 3
