REMARK  Name = *****
REMARK  3 active torsions:
REMARK  status: ('A' for Active; 'I' for Inactive)
REMARK    1  A    between atoms: C_6  and  N_7
REMARK    2  A    between atoms: N_7  and  S_8
REMARK    3  A    between atoms: S_8  and  C_10
REMARK                            x       y       z     vdW  Elec       q    Type
REMARK                         _______ _______ _______ _____ _____    ______ ____
ROOT
ATOM      1  N   UNL     1       3.979   0.502   0.194  0.00  0.00    +0.000 N 
ATOM      2  H   UNL     1       4.547  -0.254   0.467  0.00  0.00    +0.000 HD
ENDROOT
BRANCH   1   8
ATOM      3  C   UNL     1       1.636   1.320   0.065  0.00  0.00    +0.000 A 
ATOM      4  C   UNL     1       0.265   1.040   0.010  0.00  0.00    +0.000 A 
ATOM      5  C   UNL     1      -0.173  -0.280   0.002  0.00  0.00    +0.000 A 
ATOM      6  C   UNL     1       0.747  -1.320   0.061  0.00  0.00    +0.000 A 
ATOM      7  C   UNL     1       2.115  -1.034   0.117  0.00  0.00    +0.000 A 
ATOM      8  C   UNL     1       2.588   0.290   0.093  0.00  0.00    +0.000 A 
ATOM      9 CL   UNL     1      -1.856  -0.626  -0.065  0.00  0.00    +0.000 Cl
ENDBRANCH   1   8
BRANCH   1  10
ATOM     10  S   UNL     1       4.714   1.969  -0.127  0.00  0.00    +0.000 S 
ATOM     11  O   UNL     1       4.277   3.001   0.868  0.00  0.00    +0.000 OA
BRANCH  10  12
ATOM     12  C   UNL     1       6.344   1.395   0.406  0.00  0.00    +0.000 A 
ATOM     13  C   UNL     1       7.171   0.719  -0.500  0.00  0.00    +0.000 A 
ATOM     14  C   UNL     1       8.432   0.268  -0.098  0.00  0.00    +0.000 A 
ATOM     15  C   UNL     1       8.866   0.495   1.208  0.00  0.00    +0.000 A 
ATOM     16  C   UNL     1       8.052   1.170   2.115  0.00  0.00    +0.000 A 
ATOM     17  C   UNL     1       6.791   1.621   1.714  0.00  0.00    +0.000 A 
ATOM     18 CL   UNL     1      10.417  -0.062   1.700  0.00  0.00    +0.000 Cl
ENDBRANCH  10  12
ENDBRANCH   1  10
TORSDOF 3
