REMARK  Name = *****
REMARK  4 active torsions:
REMARK  status: ('A' for Active; 'I' for Inactive)
REMARK    1  A    between atoms: C_4  and  C_7
REMARK    2  A    between atoms: C_7  and  S_8
REMARK    3  A    between atoms: C_7  and  N_10
REMARK    4  A    between atoms: N_10  and  C_11
REMARK                            x       y       z     vdW  Elec       q    Type
REMARK                         _______ _______ _______ _____ _____    ______ ____
ROOT
ATOM      1  C   UNL     1      -2.722   0.805  -0.560  0.00  0.00    +0.000 C 
ENDROOT
BRANCH   1   5
ATOM      2  C   UNL     1       1.165  -0.571   0.573  0.00  0.00    +0.000 A 
ATOM      3  C   UNL     1       0.591   0.505   1.252  0.00  0.00    +0.000 A 
ATOM      4  C   UNL     1      -0.671   0.972   0.884  0.00  0.00    +0.000 A 
ATOM      5  C   UNL     1      -1.357   0.365  -0.174  0.00  0.00    +0.000 A 
ATOM      6  C   UNL     1      -0.781  -0.718  -0.852  0.00  0.00    +0.000 A 
ATOM      7  C   UNL     1       0.481  -1.181  -0.478  0.00  0.00    +0.000 A 
ENDBRANCH   1   5
BRANCH   1   8
ATOM      8  S   UNL     1      -2.999   2.379  -0.932  0.00  0.00    +0.000 S 
ATOM      9  O   UNL     1      -1.805   3.269  -0.885  0.00  0.00    +0.000 OA
ENDBRANCH   1   8
BRANCH   1  10
ATOM     10  N   UNL     1      -3.671  -0.208  -0.512  0.00  0.00    +0.000 N 
ATOM     11  H   UNL     1      -3.349  -1.040  -0.096  0.00  0.00    +0.000 HD
BRANCH  10  12
ATOM     12  C   UNL     1      -5.013  -0.264  -0.951  0.00  0.00    +0.000 A 
ATOM     13  C   UNL     1      -5.597   0.616  -1.863  0.00  0.00    +0.000 A 
ATOM     14  C   UNL     1      -6.934   0.459  -2.247  0.00  0.00    +0.000 A 
ATOM     15  C   UNL     1      -7.697  -0.586  -1.734  0.00  0.00    +0.000 A 
ATOM     16  C   UNL     1      -7.120  -1.485  -0.844  0.00  0.00    +0.000 A 
ATOM     17  C   UNL     1      -5.785  -1.328  -0.462  0.00  0.00    +0.000 A 
ENDBRANCH  10  12
ENDBRANCH   1  10
TORSDOF 4
