REMARK  Name = *****
REMARK  4 active torsions:
REMARK  status: ('A' for Active; 'I' for Inactive)
REMARK    1  A    between atoms: C_1  and  C_2
REMARK    2  A    between atoms: C_5  and  C_8
REMARK    3  A    between atoms: C_8  and  C_10
REMARK    4  A    between atoms: C_10  and  C_11
REMARK                            x       y       z     vdW  Elec       q    Type
REMARK                         _______ _______ _______ _____ _____    ______ ____
ROOT
ATOM      1  C   UNL     1      -3.277  -0.008   0.207  0.00  0.00    +0.000 C 
ATOM      2  O   UNL     1      -3.946  -1.043   0.217  0.00  0.00    +0.000 OA
ENDROOT
BRANCH   1   7
ATOM      3  C   UNL     1       2.331  -0.432   1.681  0.00  0.00    +0.000 C 
ATOM      4  C   UNL     1       0.880  -0.306   1.321  0.00  0.00    +0.000 A 
ATOM      5  C   UNL     1       0.067  -1.440   1.242  0.00  0.00    +0.000 A 
ATOM      6  C   UNL     1      -1.278  -1.322   0.881  0.00  0.00    +0.000 A 
ATOM      7  C   UNL     1      -1.829  -0.069   0.581  0.00  0.00    +0.000 A 
ATOM      8  C   UNL     1      -1.011   1.065   0.643  0.00  0.00    +0.000 A 
ATOM      9  C   UNL     1       0.335   0.944   1.007  0.00  0.00    +0.000 A 
ENDBRANCH   1   7
BRANCH   1  10
ATOM     10  C   UNL     1      -3.910   1.317  -0.176  0.00  0.00    +0.000 C 
BRANCH  10  11
ATOM     11  C   UNL     1      -4.206   2.232   0.991  0.00  0.00    +0.000 A 
ATOM     12  C   UNL     1      -3.997   3.615   0.865  0.00  0.00    +0.000 A 
ATOM     13  C   UNL     1      -4.288   4.475   1.925  0.00  0.00    +0.000 A 
ATOM     14  C   UNL     1      -4.801   3.957   3.107  0.00  0.00    +0.000 A 
ATOM     15  C   UNL     1      -5.037   2.595   3.247  0.00  0.00    +0.000 A 
ATOM     16  C   UNL     1      -4.749   1.733   2.187  0.00  0.00    +0.000 A 
ATOM     17  F   UNL     1      -5.080   4.783   4.123  0.00  0.00    +0.000 F 
ENDBRANCH  10  11
ENDBRANCH   1  10
TORSDOF 3
