REMARK  Name = *****
REMARK  3 active torsions:
REMARK  status: ('A' for Active; 'I' for Inactive)
REMARK    1  A    between atoms: C_1  and  C_2
REMARK    2  A    between atoms: C_7  and  C_8
REMARK    3  A    between atoms: C_9  and  C_10
REMARK                            x       y       z     vdW  Elec       q    Type
REMARK                         _______ _______ _______ _____ _____    ______ ____
ROOT
ATOM      1  C   UNL     1      -1.590   3.506  -0.039  0.00  0.00    +0.000 C 
ATOM      2  C   UNL     1      -0.403   3.893  -0.534  0.00  0.00    +0.000 C 
ENDROOT
BRANCH   2   3
ATOM      3  C   UNL     1      -0.217   4.704  -1.733  0.00  0.00    +0.000 C 
ATOM      4  C   UNL     1       0.768   5.849  -1.809  0.00  0.00    +0.000 C 
ATOM      5  C   UNL     1      -0.729   6.121  -1.853  0.00  0.00    +0.000 C 
ATOM      6  C   UNL     1      -0.928   7.178  -0.755  0.00  0.00    +0.000 C 
ATOM      7  C   UNL     1       0.108   6.808   0.317  0.00  0.00    +0.000 C 
ATOM      8  C   UNL     1       1.262   6.787  -0.695  0.00  0.00    +0.000 C 
ATOM      9  C   UNL     1       1.085   8.225  -1.177  0.00  0.00    +0.000 C 
ATOM     10  C   UNL     1      -0.241   8.462  -1.212  0.00  0.00    +0.000 C 
ENDBRANCH   2   3
BRANCH   1  17
ATOM     11  C   UNL     1      -3.124   4.513   2.286  0.00  0.00    +0.000 C 
ATOM     12  C   UNL     1      -2.462   3.162   2.286  0.00  0.00    +0.000 A 
ATOM     13  C   UNL     1      -2.579   2.342   3.422  0.00  0.00    +0.000 A 
ATOM     14  C   UNL     1      -1.974   1.085   3.461  0.00  0.00    +0.000 A 
ATOM     15  C   UNL     1      -1.248   0.628   2.366  0.00  0.00    +0.000 A 
ATOM     16  C   UNL     1      -1.124   1.430   1.231  0.00  0.00    +0.000 A 
ATOM     17  C   UNL     1      -1.722   2.699   1.180  0.00  0.00    +0.000 A 
ENDBRANCH   1  17
TORSDOF 2
