REMARK  Name = *****
REMARK  1 active torsions:
REMARK  status: ('A' for Active; 'I' for Inactive)
REMARK    1  A    between atoms: C_4  and  C_7
REMARK                            x       y       z     vdW  Elec       q    Type
REMARK                         _______ _______ _______ _____ _____    ______ ____
ROOT
ATOM      1  C   UNL     1      -3.405  -0.606  -0.271  0.00  0.00    +0.000 C 
ATOM      2  C   UNL     1      -4.692  -0.896  -0.353  0.00  0.00    +0.000 C 
ATOM      3  S   UNL     1      -3.694  -2.074  -1.166  0.00  0.00    +0.000 S 
ATOM      4  C   UNL     1      -6.069  -1.314  -0.509  0.00  0.00    +0.000 C 
ATOM      5  C   UNL     1      -6.805  -1.566   0.660  0.00  0.00    +0.000 C 
ATOM      6  C   UNL     1      -8.117  -2.045   0.594  0.00  0.00    +0.000 C 
ATOM      7  C   UNL     1      -8.721  -2.255  -0.643  0.00  0.00    +0.000 C 
ATOM      8  C   UNL     1      -8.028  -1.953  -1.812  0.00  0.00    +0.000 C 
ATOM      9  C   UNL     1      -6.716  -1.471  -1.746  0.00  0.00    +0.000 C 
ENDROOT
BRANCH   1  13
ATOM     10  C   UNL     1       0.786   0.179  -0.096  0.00  0.00    +0.000 A 
ATOM     11  C   UNL     1      -0.095   1.116  -0.633  0.00  0.00    +0.000 A 
ATOM     12  C   UNL     1      -1.467   0.842  -0.692  0.00  0.00    +0.000 A 
ATOM     13  C   UNL     1      -1.975  -0.382  -0.233  0.00  0.00    +0.000 A 
ATOM     14  C   UNL     1      -1.073  -1.300   0.337  0.00  0.00    +0.000 A 
ATOM     15  C   UNL     1       0.297  -1.028   0.393  0.00  0.00    +0.000 A 
ENDBRANCH   1  13
TORSDOF 1
