REMARK  Name = *****
REMARK  3 active torsions:
REMARK  status: ('A' for Active; 'I' for Inactive)
REMARK    1  A    between atoms: C_2  and  C_11
REMARK    2  A    between atoms: C_2  and  C_17
REMARK    3  A    between atoms: N_3  and  C_4
REMARK                            x       y       z     vdW  Elec       q    Type
REMARK                         _______ _______ _______ _____ _____    ______ ____
ROOT
ATOM      1  C   UNL     1      -0.137   0.606  -0.833  0.00  0.00    +0.000 C 
ATOM      2  C   UNL     1       0.577  -0.601  -0.222  0.00  0.00    +0.000 C 
ATOM      3  N   UNL     1      -0.658  -0.731  -1.038  0.00  0.00    +0.000 N 
ENDROOT
BRANCH   3   4
ATOM      4  C   UNL     1      -1.863  -1.169  -0.445  0.00  0.00    +0.000 A 
ATOM      5  C   UNL     1      -2.954  -0.314  -0.233  0.00  0.00    +0.000 A 
ATOM      6  C   UNL     1      -4.143  -0.793   0.328  0.00  0.00    +0.000 A 
ATOM      7  C   UNL     1      -4.257  -2.139   0.662  0.00  0.00    +0.000 A 
ATOM      8  C   UNL     1      -3.198  -3.012   0.430  0.00  0.00    +0.000 A 
ATOM      9  C   UNL     1      -2.013  -2.529  -0.130  0.00  0.00    +0.000 A 
ATOM     10 CL   UNL     1      -5.719  -2.731   1.348  0.00  0.00    +0.000 Cl
ENDBRANCH   3   4
BRANCH   2  11
ATOM     11  C   UNL     1       1.848  -1.098  -0.907  0.00  0.00    +0.000 A 
ATOM     12  C   UNL     1       3.027  -0.329  -0.897  0.00  0.00    +0.000 A 
ATOM     13  C   UNL     1       4.198  -0.779  -1.512  0.00  0.00    +0.000 A 
ATOM     14  C   UNL     1       4.217  -2.013  -2.155  0.00  0.00    +0.000 A 
ATOM     15  C   UNL     1       3.066  -2.793  -2.184  0.00  0.00    +0.000 A 
ATOM     16  C   UNL     1       1.897  -2.339  -1.566  0.00  0.00    +0.000 A 
ENDBRANCH   2  11
BRANCH   2  17
ATOM     17  C   UNL     1       0.566  -0.733   1.290  0.00  0.00    +0.000 C 
ATOM     18  F   UNL     1       1.669  -0.126   1.811  0.00  0.00    +0.000 F 
ATOM     19  F   UNL     1      -0.495  -0.083   1.844  0.00  0.00    +0.000 F 
ENDBRANCH   2  17
TORSDOF 3
