REMARK  Name = *****
REMARK  5 active torsions:
REMARK  status: ('A' for Active; 'I' for Inactive)
REMARK    1  A    between atoms: C_1  and  C_2
REMARK    2  A    between atoms: C_4  and  C_18
REMARK    3  A    between atoms: C_6  and  O_8
REMARK    4  A    between atoms: O_8  and  C_9
REMARK    5  A    between atoms: C_9  and  C_11
REMARK                            x       y       z     vdW  Elec       q    Type
REMARK                         _______ _______ _______ _____ _____    ______ ____
ROOT
ATOM      1  O   UNL     1      -0.067  -3.069  -0.609  0.00  0.00    +0.000 OA
ENDROOT
BRANCH   1   7
ATOM      2  C   UNL     1       2.539   1.004   0.484  0.00  0.00    +0.000 C 
ATOM      3  C   UNL     1       1.243   0.314   0.176  0.00  0.00    +0.000 A 
ATOM      4  C   UNL     1       0.031   1.019   0.232  0.00  0.00    +0.000 A 
ATOM      5  C   UNL     1      -1.190   0.380  -0.028  0.00  0.00    +0.000 A 
ATOM      6  C   UNL     1      -1.194  -0.989  -0.318  0.00  0.00    +0.000 A 
ATOM      7  C   UNL     1       0.011  -1.687  -0.378  0.00  0.00    +0.000 A 
ATOM      8  C   UNL     1       1.224  -1.055  -0.111  0.00  0.00    +0.000 A 
ATOM      9  C   UNL     1      -2.481   1.138   0.072  0.00  0.00    +0.000 C 
ENDBRANCH   1   7
BRANCH   1  10
ATOM     10  C   UNL     1       0.701  -3.581  -1.639  0.00  0.00    +0.000 C 
ATOM     11  O   UNL     1       1.437  -2.965  -2.395  0.00  0.00    +0.000 OA
BRANCH  10  12
ATOM     12  C   UNL     1       0.507  -5.058  -1.721  0.00  0.00    +0.000 A 
ATOM     13  C   UNL     1      -0.373  -5.756  -0.878  0.00  0.00    +0.000 A 
ATOM     14  C   UNL     1      -0.513  -7.141  -1.005  0.00  0.00    +0.000 A 
ATOM     15  C   UNL     1       0.223  -7.823  -1.967  0.00  0.00    +0.000 A 
ATOM     16  C   UNL     1       1.099  -7.149  -2.809  0.00  0.00    +0.000 A 
ATOM     17  C   UNL     1       1.241  -5.765  -2.688  0.00  0.00    +0.000 A 
ATOM     18  F   UNL     1       0.085  -9.150  -2.084  0.00  0.00    +0.000 F 
ENDBRANCH  10  12
ENDBRANCH   1  10
TORSDOF 3
