REMARK  Name = *****
REMARK  5 active torsions:
REMARK  status: ('A' for Active; 'I' for Inactive)
REMARK    1  A    between atoms: C_1  and  C_2
REMARK    2  A    between atoms: C_5  and  C_8
REMARK    3  A    between atoms: C_8  and  C_16
REMARK    4  A    between atoms: C_9  and  C_10
REMARK    5  A    between atoms: C_16  and  C_18
REMARK                            x       y       z     vdW  Elec       q    Type
REMARK                         _______ _______ _______ _____ _____    ______ ____
ROOT
ATOM      1  C   UNL     1      -3.174   0.010   0.021  0.00  0.00    +0.000 C 
ATOM      2  C   UNL     1      -3.952  -0.899  -0.599  0.00  0.00    +0.000 C 
ENDROOT
BRANCH   1   7
ATOM      3  C   UNL     1       2.604  -0.504   0.079  0.00  0.00    +0.000 C 
ATOM      4  C   UNL     1       1.113  -0.347   0.057  0.00  0.00    +0.000 A 
ATOM      5  C   UNL     1       0.404  -0.457  -1.143  0.00  0.00    +0.000 A 
ATOM      6  C   UNL     1      -0.990  -0.342  -1.157  0.00  0.00    +0.000 A 
ATOM      7  C   UNL     1      -1.704  -0.131   0.031  0.00  0.00    +0.000 A 
ATOM      8  C   UNL     1      -0.989  -0.031   1.232  0.00  0.00    +0.000 A 
ATOM      9  C   UNL     1       0.404  -0.145   1.246  0.00  0.00    +0.000 A 
ENDBRANCH   1   7
BRANCH   2  10
ATOM     10  C   UNL     1      -5.419  -0.882  -0.669  0.00  0.00    +0.000 A 
ATOM     11  C   UNL     1      -6.043  -0.841  -1.921  0.00  0.00    +0.000 A 
ATOM     12  C   UNL     1      -7.436  -0.833  -2.015  0.00  0.00    +0.000 A 
ATOM     13  C   UNL     1      -8.213  -0.875  -0.858  0.00  0.00    +0.000 A 
ATOM     14  C   UNL     1      -7.599  -0.929   0.392  0.00  0.00    +0.000 A 
ATOM     15  C   UNL     1      -6.206  -0.938   0.487  0.00  0.00    +0.000 A 
ENDBRANCH   2  10
BRANCH   1  16
ATOM     16  C   UNL     1      -3.809   1.167   0.727  0.00  0.00    +0.000 C 
ATOM     17  O   UNL     1      -3.890   1.187   1.954  0.00  0.00    +0.000 OA
ATOM     18  C   UNL     1      -4.311   2.305  -0.123  0.00  0.00    +0.000 C 
ENDBRANCH   1  16
TORSDOF 3
