REMARK  Name = *****
REMARK  3 active torsions:
REMARK  status: ('A' for Active; 'I' for Inactive)
REMARK    1  A    between atoms: N_5  and  N_8
REMARK    2  A    between atoms: N_8  and  C_9
REMARK    3  A    between atoms: C_9  and  C_10
REMARK                            x       y       z     vdW  Elec       q    Type
REMARK                         _______ _______ _______ _____ _____    ______ ____
ROOT
ATOM      1  C   UNL     1       3.085  -1.564  -1.583  0.00  0.00    +0.000 C 
ENDROOT
BRANCH   1   2
ATOM      2  C   UNL     1       3.671  -2.288  -2.728  0.00  0.00    +0.000 A 
ATOM      3  C   UNL     1       5.057  -2.269  -2.900  0.00  0.00    +0.000 A 
ATOM      4  C   UNL     1       5.630  -2.946  -3.982  0.00  0.00    +0.000 A 
ATOM      5  C   UNL     1       4.817  -3.640  -4.888  0.00  0.00    +0.000 A 
ATOM      6  C   UNL     1       3.431  -3.655  -4.708  0.00  0.00    +0.000 A 
ATOM      7  C   UNL     1       2.857  -2.979  -3.629  0.00  0.00    +0.000 A 
ATOM      8 CL   UNL     1       5.461  -4.495  -6.244  0.00  0.00    +0.000 Cl
ATOM      9 CL   UNL     1       7.350  -2.885  -4.143  0.00  0.00    +0.000 Cl
ENDBRANCH   1   2
BRANCH   1  10
ATOM     10  N   UNL     1       1.806  -1.548  -1.375  0.00  0.00    +0.000 NA
BRANCH  10  15
ATOM     11  C   UNL     1      -0.962   1.392  -0.301  0.00  0.00    +0.000 C 
ATOM     12  C   UNL     1      -1.725   0.160   0.162  0.00  0.00    +0.000 C 
ATOM     13  C   UNL     1      -1.066  -1.167  -0.193  0.00  0.00    +0.000 C 
ATOM     14  C   UNL     1       0.300  -1.366   0.464  0.00  0.00    +0.000 C 
ATOM     15  N   UNL     1       1.434  -0.819  -0.285  0.00  0.00    +0.000 NA
ATOM     16  C   UNL     1       1.478   0.646  -0.424  0.00  0.00    +0.000 C 
ATOM     17  C   UNL     1       0.439   1.512   0.292  0.00  0.00    +0.000 C 
ENDBRANCH  10  15
ENDBRANCH   1  10
TORSDOF 3
