REMARK  Name = *****
REMARK  4 active torsions:
REMARK  status: ('A' for Active; 'I' for Inactive)
REMARK    1  A    between atoms: C_1  and  N_2
REMARK    2  A    between atoms: N_2  and  C_3
REMARK    3  A    between atoms: C_4  and  C_10
REMARK    4  A    between atoms: C_12  and  C_14
REMARK                            x       y       z     vdW  Elec       q    Type
REMARK                         _______ _______ _______ _____ _____    ______ ____
ROOT
ATOM      1  C   UNL     1       1.129   0.685  -0.398  0.00  0.00    +0.000 C 
ATOM      2  N   UNL     1       2.418   0.078  -0.066  0.00  0.00    +0.000 N 
ATOM      3  C   UNL     1       3.005   0.259   1.199  0.00  0.00    +0.000 C 
ATOM      4  O   UNL     1       4.073  -0.214   1.582  0.00  0.00    +0.000 OA
ENDROOT
BRANCH   2   5
ATOM      5  C   UNL     1       3.054  -0.752  -1.061  0.00  0.00    +0.000 A 
ATOM      6  C   UNL     1       3.047  -0.458  -2.446  0.00  0.00    +0.000 A 
ATOM      7  C   UNL     1       3.644  -1.343  -3.361  0.00  0.00    +0.000 A 
ATOM      8  C   UNL     1       4.258  -2.515  -2.925  0.00  0.00    +0.000 A 
ATOM      9  C   UNL     1       4.283  -2.805  -1.568  0.00  0.00    +0.000 A 
ATOM     10  C   UNL     1       3.693  -1.938  -0.647  0.00  0.00    +0.000 A 
ATOM     11 CL   UNL     1       5.033  -4.255  -1.023  0.00  0.00    +0.000 Cl
BRANCH   6  12
ATOM     12  C   UNL     1       2.539   0.767  -3.001  0.00  0.00    +0.000 C 
ATOM     13  C   UNL     1       2.134   1.782  -3.500  0.00  0.00    +0.000 C 
ENDBRANCH   6  12
ENDBRANCH   2   5
BRANCH   3  14
ATOM     14  C   UNL     1       2.310   1.133   2.164  0.00  0.00    +0.000 A 
ATOM     15  C   UNL     1       1.562   0.555   3.194  0.00  0.00    +0.000 A 
ATOM     16  C   UNL     1       0.909   1.379   4.109  0.00  0.00    +0.000 A 
ATOM     17  C   UNL     1       1.017   2.768   4.000  0.00  0.00    +0.000 A 
ATOM     18  C   UNL     1       1.784   3.339   2.981  0.00  0.00    +0.000 A 
ATOM     19  C   UNL     1       2.437   2.521   2.059  0.00  0.00    +0.000 A 
ENDBRANCH   3  14
TORSDOF 3
