REMARK  Name = *****
REMARK  5 active torsions:
REMARK  status: ('A' for Active; 'I' for Inactive)
REMARK    1  A    between atoms: C_2  and  S_3
REMARK    2  A    between atoms: S_3  and  N_4
REMARK    3  A    between atoms: N_4  and  C_5
REMARK    4  A    between atoms: N_4  and  C_12
REMARK    5  A    between atoms: C_5  and  C_6
REMARK                            x       y       z     vdW  Elec       q    Type
REMARK                         _______ _______ _______ _____ _____    ______ ____
ROOT
ATOM      1  N   UNL     1       4.657   1.411   0.163  0.00  0.00    +0.000 N 
ENDROOT
BRANCH   1   2
ATOM      2  C   UNL     1       5.999   1.804  -0.054  0.00  0.00    +0.000 A 
ATOM      3  C   UNL     1       7.087   1.011   0.370  0.00  0.00    +0.000 A 
ATOM      4  C   UNL     1       8.421   1.391   0.161  0.00  0.00    +0.000 A 
ATOM      5  C   UNL     1       8.704   2.588  -0.479  0.00  0.00    +0.000 A 
ATOM      6  C   UNL     1       7.667   3.403  -0.908  0.00  0.00    +0.000 A 
ATOM      7  C   UNL     1       6.336   3.013  -0.696  0.00  0.00    +0.000 A 
ATOM      8 CL   UNL     1      10.336   3.062  -0.738  0.00  0.00    +0.000 Cl
ENDBRANCH   1   2
BRANCH   1   9
ATOM      9  S   UNL     1       4.239  -0.168   0.569  0.00  0.00    +0.000 S 
BRANCH   9  11
ATOM     10  C   UNL     1       4.061  -1.289  -2.092  0.00  0.00    +0.000 C 
ATOM     11  C   UNL     1       4.134  -0.824  -0.988  0.00  0.00    +0.000 C 
ENDBRANCH   9  11
ENDBRANCH   1   9
BRANCH   1  12
ATOM     12  C   UNL     1       3.537   2.319  -0.151  0.00  0.00    +0.000 C 
BRANCH  12  13
ATOM     13  C   UNL     1       3.429   3.507   0.789  0.00  0.00    +0.000 A 
ATOM     14  C   UNL     1       3.002   4.750   0.292  0.00  0.00    +0.000 A 
ATOM     15  C   UNL     1       2.858   5.847   1.144  0.00  0.00    +0.000 A 
ATOM     16  C   UNL     1       3.127   5.714   2.504  0.00  0.00    +0.000 A 
ATOM     17  C   UNL     1       3.534   4.484   3.015  0.00  0.00    +0.000 A 
ATOM     18  C   UNL     1       3.676   3.385   2.165  0.00  0.00    +0.000 A 
ENDBRANCH  12  13
ENDBRANCH   1  12
TORSDOF 5
