REMARK  Name = *****
REMARK  2 active torsions:
REMARK  status: ('A' for Active; 'I' for Inactive)
REMARK    1  A    between atoms: C_6  and  S_7
REMARK    2  A    between atoms: S_7  and  C_8
REMARK                            x       y       z     vdW  Elec       q    Type
REMARK                         _______ _______ _______ _____ _____    ______ ____
ROOT
ATOM      1  C   UNL     1      -0.872  -0.987  -0.544  0.00  0.00    +0.000 C 
ATOM      2  C   UNL     1       0.569  -1.167  -0.089  0.00  0.00    +0.000 C 
ATOM      3  C   UNL     1       1.223   0.171  -0.405  0.00  0.00    +0.000 C 
ATOM      4  C   UNL     1       0.101   1.158  -0.229  0.00  0.00    +0.000 C 
ATOM      5  C   UNL     1       0.253   2.450  -0.162  0.00  0.00    +0.000 C 
ATOM      6  C   UNL     1       0.410   3.737  -0.089  0.00  0.00    +0.000 C 
ATOM      7  C   UNL     1      -1.215   0.437  -0.125  0.00  0.00    +0.000 C 
ENDROOT
BRANCH   6   8
ATOM      8  S   UNL     1       1.986   4.399  -0.330  0.00  0.00    +0.000 S 
BRANCH   8   9
ATOM      9  C   UNL     1       1.639   6.099   0.077  0.00  0.00    +0.000 A 
ATOM     10  C   UNL     1       1.657   6.525   1.409  0.00  0.00    +0.000 A 
ATOM     11  C   UNL     1       1.388   7.858   1.726  0.00  0.00    +0.000 A 
ATOM     12  C   UNL     1       1.106   8.772   0.712  0.00  0.00    +0.000 A 
ATOM     13  C   UNL     1       1.095   8.356  -0.619  0.00  0.00    +0.000 A 
ATOM     14  C   UNL     1       1.363   7.022  -0.937  0.00  0.00    +0.000 A 
ENDBRANCH   8   9
ENDBRANCH   6   8
TORSDOF 2
