REMARK  Name = *****
REMARK  3 active torsions:
REMARK  status: ('A' for Active; 'I' for Inactive)
REMARK    1  A    between atoms: C_4  and  S_7
REMARK    2  A    between atoms: S_7  and  S_8
REMARK    3  A    between atoms: S_8  and  C_10
REMARK                            x       y       z     vdW  Elec       q    Type
REMARK                         _______ _______ _______ _____ _____    ______ ____
ROOT
ATOM      1  S   UNL     1      -4.088  -1.439  -0.196  0.00  0.00    +0.000 S 
ATOM      2  O   UNL     1      -4.057  -2.208   1.093  0.00  0.00    +0.000 OA
ENDROOT
BRANCH   1   3
ATOM      3  C   UNL     1      -5.812  -0.945  -0.437  0.00  0.00    +0.000 A 
ATOM      4  C   UNL     1      -6.167  -0.186  -1.560  0.00  0.00    +0.000 A 
ATOM      5  C   UNL     1      -7.496   0.189  -1.766  0.00  0.00    +0.000 A 
ATOM      6  C   UNL     1      -8.479  -0.198  -0.855  0.00  0.00    +0.000 A 
ATOM      7  C   UNL     1      -8.135  -0.960   0.261  0.00  0.00    +0.000 A 
ATOM      8  C   UNL     1      -6.806  -1.334   0.469  0.00  0.00    +0.000 A 
ENDBRANCH   1   3
BRANCH   1   9
ATOM      9  S   UNL     1      -3.289   0.318   0.434  0.00  0.00    +0.000 S 
BRANCH   9  13
ATOM     10  C   UNL     1       1.146  -0.741   0.899  0.00  0.00    +0.000 A 
ATOM     11  C   UNL     1       0.720   0.045  -0.171  0.00  0.00    +0.000 A 
ATOM     12  C   UNL     1      -0.633   0.362  -0.311  0.00  0.00    +0.000 A 
ATOM     13  C   UNL     1      -1.568  -0.112   0.615  0.00  0.00    +0.000 A 
ATOM     14  C   UNL     1      -1.132  -0.892   1.692  0.00  0.00    +0.000 A 
ATOM     15  C   UNL     1       0.221  -1.208   1.831  0.00  0.00    +0.000 A 
ENDBRANCH   9  13
ENDBRANCH   1   9
TORSDOF 3
