REMARK  Name = *****
REMARK  4 active torsions:
REMARK  status: ('A' for Active; 'I' for Inactive)
REMARK    1  A    between atoms: C_1  and  N_2
REMARK    2  A    between atoms: N_2  and  C_3
REMARK    3  A    between atoms: N_2  and  C_10
REMARK    4  A    between atoms: C_3  and  C_4
REMARK                            x       y       z     vdW  Elec       q    Type
REMARK                         _______ _______ _______ _____ _____    ______ ____
ROOT
ATOM      1  C   UNL     1       2.761   0.929  -1.265  0.00  0.00    +0.000 C 
ATOM      2  N   UNL     1       2.270   0.369  -0.010  0.00  0.00    +0.000 N 
ATOM      3  H   UNL     1       1.365   0.824   0.108  0.00  0.00    +0.000 HD
ENDROOT
BRANCH   2   4
ATOM      4  C   UNL     1       3.014   0.749   1.258  0.00  0.00    +0.000 C 
ATOM      5  C   UNL     1       4.505   0.485   1.284  0.00  0.00    +0.000 C 
ATOM      6  C   UNL     1       5.366   1.777   1.291  0.00  0.00    +0.000 C 
ATOM      7  C   UNL     1       4.879   2.978   0.447  0.00  0.00    +0.000 C 
ATOM      8  C   UNL     1       3.750   3.864   1.037  0.00  0.00    +0.000 C 
ATOM      9  C   UNL     1       2.412   3.183   1.404  0.00  0.00    +0.000 C 
ATOM     10  C   UNL     1       2.731   1.958   2.156  0.00  0.00    +0.000 C 
ATOM     11  C   UNL     1       2.065   0.692   2.455  0.00  0.00    +0.000 C 
ATOM     12  F   UNL     1       0.701   0.577   2.307  0.00  0.00    +0.000 F 
ATOM     13  F   UNL     1       2.418  -0.045   3.563  0.00  0.00    +0.000 F 
ENDBRANCH   2   4
BRANCH   2  14
ATOM     14  C   UNL     1       2.096  -1.097  -0.111  0.00  0.00    +0.000 C 
BRANCH  14  15
ATOM     15  C   UNL     1       0.954  -1.510  -1.016  0.00  0.00    +0.000 A 
ATOM     16  C   UNL     1       1.176  -2.367  -2.103  0.00  0.00    +0.000 A 
ATOM     17  C   UNL     1       0.116  -2.756  -2.926  0.00  0.00    +0.000 A 
ATOM     18  C   UNL     1      -1.174  -2.297  -2.667  0.00  0.00    +0.000 A 
ATOM     19  C   UNL     1      -1.408  -1.449  -1.586  0.00  0.00    +0.000 A 
ATOM     20  C   UNL     1      -0.351  -1.060  -0.763  0.00  0.00    +0.000 A 
ENDBRANCH  14  15
ENDBRANCH   2  14
TORSDOF 3
