REMARK  Name = *****
REMARK  3 active torsions:
REMARK  status: ('A' for Active; 'I' for Inactive)
REMARK    1  A    between atoms: C_1  and  C_2
REMARK    2  A    between atoms: C_5  and  C_8
REMARK    3  A    between atoms: C_10  and  C_11
REMARK                            x       y       z     vdW  Elec       q    Type
REMARK                         _______ _______ _______ _____ _____    ______ ____
ROOT
ATOM      1  C   UNL     1      -3.222   0.041   0.156  0.00  0.00    +0.000 C 
ATOM      2  C   UNL     1      -4.032   0.578  -0.983  0.00  0.00    +0.000 C 
ATOM      3  C   UNL     1      -4.020   1.326   0.330  0.00  0.00    +0.000 C 
ENDROOT
BRANCH   1   8
ATOM      4  C   UNL     1       2.621  -0.188  -0.015  0.00  0.00    +0.000 C 
ATOM      5  C   UNL     1       1.124  -0.101   0.014  0.00  0.00    +0.000 A 
ATOM      6  C   UNL     1       0.464   0.378   1.148  0.00  0.00    +0.000 A 
ATOM      7  C   UNL     1      -0.933   0.426   1.186  0.00  0.00    +0.000 A 
ATOM      8  C   UNL     1      -1.714   0.003   0.098  0.00  0.00    +0.000 A 
ATOM      9  C   UNL     1      -1.033  -0.504  -1.021  0.00  0.00    +0.000 A 
ATOM     10  C   UNL     1       0.364  -0.557  -1.065  0.00  0.00    +0.000 A 
ENDBRANCH   1   8
BRANCH   3  11
ATOM     11  C   UNL     1      -3.397   2.714   0.365  0.00  0.00    +0.000 A 
ATOM     12  C   UNL     1      -2.337   3.206  -0.371  0.00  0.00    +0.000 A 
ATOM     13  C   UNL     1      -2.156   4.553   0.027  0.00  0.00    +0.000 A 
ATOM     14  C   UNL     1      -3.120   4.803   0.973  0.00  0.00    +0.000 A 
ATOM     15  O   UNL     1      -3.878   3.698   1.181  0.00  0.00    +0.000 OA
ENDBRANCH   3  11
TORSDOF 2
