REMARK  Name = *****
REMARK  3 active torsions:
REMARK  status: ('A' for Active; 'I' for Inactive)
REMARK    1  A    between atoms: C_4  and  N_7
REMARK    2  A    between atoms: N_7  and  C_8
REMARK    3  A    between atoms: C_8  and  C_9
REMARK                            x       y       z     vdW  Elec       q    Type
REMARK                         _______ _______ _______ _____ _____    ______ ____
ROOT
ATOM      1  C   UNL     1      -3.150   1.742  -0.133  0.00  0.00    +0.000 C 
ENDROOT
BRANCH   1   2
ATOM      2  C   UNL     1      -2.236   2.874  -0.312  0.00  0.00    +0.000 A 
ATOM      3  C   UNL     1      -2.282   3.646  -1.480  0.00  0.00    +0.000 A 
ATOM      4  C   UNL     1      -1.431   4.744  -1.622  0.00  0.00    +0.000 A 
ATOM      5  C   UNL     1      -0.551   5.071  -0.592  0.00  0.00    +0.000 A 
ATOM      6  C   UNL     1      -0.516   4.318   0.581  0.00  0.00    +0.000 A 
ATOM      7  C   UNL     1      -1.366   3.220   0.728  0.00  0.00    +0.000 A 
ATOM      8 CL   UNL     1       0.499   6.423  -0.767  0.00  0.00    +0.000 Cl
ATOM      9 CL   UNL     1      -3.342   3.262  -2.787  0.00  0.00    +0.000 Cl
ENDBRANCH   1   2
BRANCH   1  10
ATOM     10  N   UNL     1      -2.797   0.493   0.063  0.00  0.00    +0.000 N 
ATOM     11  O   UNL     1      -3.694  -0.389   0.267  0.00  0.00    +0.000 OA
BRANCH  10  15
ATOM     12  C   UNL     1       1.258  -0.698   0.089  0.00  0.00    +0.000 A 
ATOM     13  C   UNL     1       0.487  -0.814   1.248  0.00  0.00    +0.000 A 
ATOM     14  C   UNL     1      -0.851  -0.424   1.237  0.00  0.00    +0.000 A 
ATOM     15  C   UNL     1      -1.403   0.094   0.061  0.00  0.00    +0.000 A 
ATOM     16  C   UNL     1      -0.646   0.186  -1.111  0.00  0.00    +0.000 A 
ATOM     17  C   UNL     1       0.692  -0.205  -1.089  0.00  0.00    +0.000 A 
ENDBRANCH  10  15
ENDBRANCH   1  10
TORSDOF 3
