REMARK  Name = *****
REMARK  4 active torsions:
REMARK  status: ('A' for Active; 'I' for Inactive)
REMARK    1  A    between atoms: C_4  and  C_7
REMARK    2  A    between atoms: C_7  and  C_8
REMARK    3  A    between atoms: C_8  and  O_10
REMARK    4  A    between atoms: O_10  and  C_11
REMARK                            x       y       z     vdW  Elec       q    Type
REMARK                         _______ _______ _______ _____ _____    ______ ____
ROOT
ATOM      1  C   UNL     1      -3.799   0.005  -0.423  0.00  0.00    +0.000 C 
ATOM      2  O   UNL     1      -3.629  -0.914  -1.212  0.00  0.00    +0.000 OA
ENDROOT
BRANCH   1   3
ATOM      3  C   UNL     1      -2.722   0.858   0.214  0.00  0.00    +0.000 C 
BRANCH   3   7
ATOM      4  C   UNL     1       1.234  -0.846  -0.028  0.00  0.00    +0.000 A 
ATOM      5  C   UNL     1       0.702  -0.161  -1.118  0.00  0.00    +0.000 A 
ATOM      6  C   UNL     1      -0.577   0.392  -1.041  0.00  0.00    +0.000 A 
ATOM      7  C   UNL     1      -1.336   0.267   0.131  0.00  0.00    +0.000 A 
ATOM      8  C   UNL     1      -0.794  -0.433   1.219  0.00  0.00    +0.000 A 
ATOM      9  C   UNL     1       0.486  -0.983   1.139  0.00  0.00    +0.000 A 
ENDBRANCH   3   7
ENDBRANCH   1   3
BRANCH   1  10
ATOM     10  O   UNL     1      -5.037   0.494   0.001  0.00  0.00    +0.000 OA
BRANCH  10  11
ATOM     11  C   UNL     1      -6.103  -0.274  -0.477  0.00  0.00    +0.000 A 
ATOM     12  C   UNL     1      -6.553  -1.393   0.231  0.00  0.00    +0.000 A 
ATOM     13  C   UNL     1      -7.639  -2.122  -0.256  0.00  0.00    +0.000 A 
ATOM     14  C   UNL     1      -8.274  -1.721  -1.435  0.00  0.00    +0.000 A 
ATOM     15  C   UNL     1      -7.826  -0.590  -2.121  0.00  0.00    +0.000 A 
ATOM     16  C   UNL     1      -6.743   0.146  -1.645  0.00  0.00    +0.000 A 
ATOM     17 CL   UNL     1      -8.624  -0.096  -3.563  0.00  0.00    +0.000 Cl
ATOM     18 CL   UNL     1      -5.807  -1.885   1.705  0.00  0.00    +0.000 Cl
ENDBRANCH  10  11
ENDBRANCH   1  10
TORSDOF 4
