REMARK  Name = *****
REMARK  5 active torsions:
REMARK  status: ('A' for Active; 'I' for Inactive)
REMARK    1  A    between atoms: C_1  and  O_2
REMARK    2  A    between atoms: O_2  and  S_3
REMARK    3  A    between atoms: S_3  and  N_4
REMARK    4  A    between atoms: S_3  and  C_12
REMARK    5  A    between atoms: N_4  and  C_5
REMARK                            x       y       z     vdW  Elec       q    Type
REMARK                         _______ _______ _______ _____ _____    ______ ____
ROOT
ATOM      1  S   UNL     1       2.895   1.704   0.458  0.00  0.00    +0.000 S 
ATOM      2  O   UNL     1       2.543   1.869   1.853  0.00  0.00    +0.000 OA
ENDROOT
BRANCH   1   3
ATOM      3  C   UNL     1       4.659   1.522   0.409  0.00  0.00    +0.000 A 
ATOM      4  C   UNL     1       5.456   2.654   0.216  0.00  0.00    +0.000 A 
ATOM      5  C   UNL     1       6.842   2.513   0.159  0.00  0.00    +0.000 A 
ATOM      6  C   UNL     1       7.421   1.250   0.298  0.00  0.00    +0.000 A 
ATOM      7  C   UNL     1       6.619   0.124   0.496  0.00  0.00    +0.000 A 
ATOM      8  C   UNL     1       5.232   0.255   0.552  0.00  0.00    +0.000 A 
ENDBRANCH   1   3
BRANCH   1  10
ATOM      9  C   UNL     1       0.947  -0.019   0.265  0.00  0.00    +0.000 C 
ATOM     10  O   UNL     1       2.294   0.279  -0.056  0.00  0.00    +0.000 OA
ENDBRANCH   1  10
BRANCH   1  11
ATOM     11  N   UNL     1       2.438   2.577  -0.714  0.00  0.00    +0.000 NA
BRANCH  11  12
ATOM     12  C   UNL     1       2.708   2.432  -2.107  0.00  0.00    +0.000 A 
ATOM     13  C   UNL     1       3.397   1.371  -2.697  0.00  0.00    +0.000 A 
ATOM     14  C   UNL     1       3.606   1.341  -4.082  0.00  0.00    +0.000 A 
ATOM     15  C   UNL     1       3.124   2.371  -4.886  0.00  0.00    +0.000 A 
ATOM     16  C   UNL     1       2.430   3.431  -4.309  0.00  0.00    +0.000 A 
ATOM     17  C   UNL     1       2.225   3.456  -2.927  0.00  0.00    +0.000 A 
ENDBRANCH  11  12
ENDBRANCH   1  11
TORSDOF 4
