REMARK  Name = *****
REMARK  3 active torsions:
REMARK  status: ('A' for Active; 'I' for Inactive)
REMARK    1  A    between atoms: C_3  and  C_9
REMARK    2  A    between atoms: C_9  and  O_11
REMARK    3  A    between atoms: O_11  and  C_12
REMARK                            x       y       z     vdW  Elec       q    Type
REMARK                         _______ _______ _______ _____ _____    ______ ____
ROOT
ATOM      1  C   UNL     1      -2.090  -1.920   0.874  0.00  0.00    +0.000 C 
ATOM      2  O   UNL     1      -3.125  -1.340   1.168  0.00  0.00    +0.000 OA
ENDROOT
BRANCH   1   5
ATOM      3  C   UNL     1       0.265   0.852  -0.093  0.00  0.00    +0.000 A 
ATOM      4  C   UNL     1      -0.806   0.157   0.472  0.00  0.00    +0.000 A 
ATOM      5  C   UNL     1      -0.936  -1.226   0.262  0.00  0.00    +0.000 A 
ATOM      6  C   UNL     1       0.003  -1.887  -0.534  0.00  0.00    +0.000 A 
ATOM      7  C   UNL     1       1.072  -1.197  -1.099  0.00  0.00    +0.000 A 
ATOM      8  C   UNL     1       1.195   0.167  -0.870  0.00  0.00    +0.000 A 
ATOM      9  F   UNL     1       2.220   0.836  -1.411  0.00  0.00    +0.000 F 
ATOM     10  F   UNL     1      -0.111  -3.196  -0.801  0.00  0.00    +0.000 F 
ENDBRANCH   1   5
BRANCH   1  11
ATOM     11  O   UNL     1      -1.775  -3.242   1.113  0.00  0.00    +0.000 OA
BRANCH  11  12
ATOM     12  C   UNL     1      -2.800  -3.989   1.701  0.00  0.00    +0.000 A 
ATOM     13  C   UNL     1      -3.358  -5.025   0.955  0.00  0.00    +0.000 A 
ATOM     14  C   UNL     1      -4.344  -5.813   1.539  0.00  0.00    +0.000 A 
ATOM     15  C   UNL     1      -4.763  -5.593   2.846  0.00  0.00    +0.000 A 
ATOM     16  C   UNL     1      -4.176  -4.566   3.576  0.00  0.00    +0.000 A 
ATOM     17  C   UNL     1      -3.186  -3.761   3.021  0.00  0.00    +0.000 A 
ATOM     18  F   UNL     1      -4.563  -4.354   4.840  0.00  0.00    +0.000 F 
ATOM     19  F   UNL     1      -4.894  -6.808   0.831  0.00  0.00    +0.000 F 
ENDBRANCH  11  12
ENDBRANCH   1  11
TORSDOF 3
