REMARK  Name = *****
REMARK  2 active torsions:
REMARK  status: ('A' for Active; 'I' for Inactive)
REMARK    1  A    between atoms: C_5  and  N_7
REMARK    2  A    between atoms: C_8  and  C_10
REMARK                            x       y       z     vdW  Elec       q    Type
REMARK                         _______ _______ _______ _____ _____    ______ ____
ROOT
ATOM      1  N   UNL     1      -0.549  -2.340   0.057  0.00  0.00    +0.000 N 
ATOM      2  C   UNL     1      -1.894  -2.499  -0.223  0.00  0.00    +0.000 C 
ATOM      3  O   UNL     1      -2.667  -1.631  -0.606  0.00  0.00    +0.000 OA
ATOM      4  H   UNL     1      -0.034  -3.149   0.279  0.00  0.00    +0.000 HD
ENDROOT
BRANCH   1   9
ATOM      5  C   UNL     1       2.247  -0.004  -0.525  0.00  0.00    +0.000 A 
ATOM      6  C   UNL     1       1.729   1.218  -0.113  0.00  0.00    +0.000 A 
ATOM      7  C   UNL     1       0.442   1.279   0.420  0.00  0.00    +0.000 A 
ATOM      8  C   UNL     1      -0.345   0.123   0.520  0.00  0.00    +0.000 A 
ATOM      9  C   UNL     1       0.149  -1.107   0.051  0.00  0.00    +0.000 A 
ATOM     10  C   UNL     1       1.468  -1.160  -0.432  0.00  0.00    +0.000 A 
ATOM     11 CL   UNL     1      -1.805   0.284   1.438  0.00  0.00    +0.000 Cl
ENDBRANCH   1   9
BRANCH   2  12
ATOM     12  C   UNL     1      -2.416  -3.885  -0.088  0.00  0.00    +0.000 A 
ATOM     13  C   UNL     1      -1.682  -5.002  -0.497  0.00  0.00    +0.000 A 
ATOM     14  C   UNL     1      -2.236  -6.269  -0.346  0.00  0.00    +0.000 A 
ATOM     15  C   UNL     1      -3.505  -6.446   0.195  0.00  0.00    +0.000 A 
ATOM     16  C   UNL     1      -4.247  -5.333   0.586  0.00  0.00    +0.000 A 
ATOM     17  C   UNL     1      -3.706  -4.054   0.440  0.00  0.00    +0.000 A 
ATOM     18  F   UNL     1      -1.533  -7.340  -0.737  0.00  0.00    +0.000 F 
ENDBRANCH   2  12
TORSDOF 2
