REMARK  Name = *****
REMARK  1 active torsions:
REMARK  status: ('A' for Active; 'I' for Inactive)
REMARK    1  A    between atoms: C_9  and  C_12
REMARK                            x       y       z     vdW  Elec       q    Type
REMARK                         _______ _______ _______ _____ _____    ______ ____
ROOT
ATOM      1  C   UNL     1      -2.830   0.424   0.406  0.00  0.00    +0.000 C 
ATOM      2  C   UNL     1      -2.407  -0.442  -0.776  0.00  0.00    +0.000 C 
ATOM      3  C   UNL     1      -1.148  -1.248  -0.459  0.00  0.00    +0.000 C 
ATOM      4  C   UNL     1       0.015  -0.361   0.014  0.00  0.00    +0.000 C 
ATOM      5  C   UNL     1      -0.438   0.496   1.208  0.00  0.00    +0.000 C 
ATOM      6  C   UNL     1      -1.689   1.313   0.891  0.00  0.00    +0.000 C 
ATOM      7  O   UNL     1       1.078  -1.259   0.380  0.00  0.00    +0.000 OA
ATOM      8  O   UNL     1       2.251  -0.453   0.753  0.00  0.00    +0.000 OA
ATOM      9  C   UNL     1       2.640   0.317  -0.398  0.00  0.00    +0.000 C 
ATOM     10  O   UNL     1       1.583   1.234  -0.736  0.00  0.00    +0.000 OA
ATOM     11  O   UNL     1       0.403   0.443  -1.116  0.00  0.00    +0.000 OA
ENDROOT
BRANCH   9  12
ATOM     12  C   UNL     1       3.154  -0.514  -1.568  0.00  0.00    +0.000 A 
ATOM     13  C   UNL     1       3.063  -0.037  -2.887  0.00  0.00    +0.000 A 
ATOM     14  C   UNL     1       3.571  -0.783  -3.955  0.00  0.00    +0.000 A 
ATOM     15  C   UNL     1       4.187  -2.008  -3.713  0.00  0.00    +0.000 A 
ATOM     16  C   UNL     1       4.303  -2.491  -2.413  0.00  0.00    +0.000 A 
ATOM     17  C   UNL     1       3.795  -1.746  -1.345  0.00  0.00    +0.000 A 
ATOM     18 CL   UNL     1       4.813  -2.925  -5.027  0.00  0.00    +0.000 Cl
ENDBRANCH   9  12
TORSDOF 1
