REMARK  Name = *****
REMARK  3 active torsions:
REMARK  status: ('A' for Active; 'I' for Inactive)
REMARK    1  A    between atoms: C_3  and  N_8
REMARK    2  A    between atoms: N_8  and  O_18
REMARK    3  A    between atoms: C_9  and  C_11
REMARK                            x       y       z     vdW  Elec       q    Type
REMARK                         _______ _______ _______ _____ _____    ______ ____
ROOT
ATOM      1  N   UNL     1       2.450   2.327  -0.127  0.00  0.00    +0.000 N 
ATOM      2  C   UNL     1       3.817   2.489   0.086  0.00  0.00    +0.000 C 
ATOM      3  O   UNL     1       4.611   1.636   0.476  0.00  0.00    +0.000 OA
ENDROOT
BRANCH   1   6
ATOM      4  C   UNL     1       1.441  -1.177   0.779  0.00  0.00    +0.000 A 
ATOM      5  C   UNL     1       2.208  -0.013   0.645  0.00  0.00    +0.000 A 
ATOM      6  C   UNL     1       1.695   1.126   0.007  0.00  0.00    +0.000 A 
ATOM      7  C   UNL     1       0.381   1.064  -0.486  0.00  0.00    +0.000 A 
ATOM      8  C   UNL     1      -0.382  -0.098  -0.350  0.00  0.00    +0.000 A 
ATOM      9  C   UNL     1       0.143  -1.220   0.281  0.00  0.00    +0.000 A 
ATOM     10 CL   UNL     1      -1.988  -0.141  -0.967  0.00  0.00    +0.000 Cl
ENDBRANCH   1   6
BRANCH   2  11
ATOM     11  C   UNL     1       4.389   3.831  -0.180  0.00  0.00    +0.000 A 
ATOM     12  C   UNL     1       3.963   4.949   0.549  0.00  0.00    +0.000 A 
ATOM     13  C   UNL     1       4.541   6.196   0.301  0.00  0.00    +0.000 A 
ATOM     14  C   UNL     1       5.547   6.315  -0.659  0.00  0.00    +0.000 A 
ATOM     15  C   UNL     1       5.990   5.199  -1.370  0.00  0.00    +0.000 A 
ATOM     16  C   UNL     1       5.414   3.950  -1.124  0.00  0.00    +0.000 A 
ATOM     17 BR   UNL     1       6.328   8.005  -0.990  0.00  0.00    +0.000 Br
ENDBRANCH   2  11
BRANCH   1  18
ATOM     18  O   UNL     1       1.783   3.379  -0.800  0.00  0.00    +0.000 OA
ATOM     19  H   UNL     1       0.843   3.160  -0.892  0.00  0.00    +0.000 HD
ENDBRANCH   1  18
TORSDOF 3
