REMARK  Name = *****
REMARK  5 active torsions:
REMARK  status: ('A' for Active; 'I' for Inactive)
REMARK    1  A    between atoms: C_1  and  O_2
REMARK    2  A    between atoms: O_2  and  C_3
REMARK    3  A    between atoms: C_6  and  S_9
REMARK    4  A    between atoms: S_9  and  S_10
REMARK    5  A    between atoms: S_10  and  C_12
REMARK                            x       y       z     vdW  Elec       q    Type
REMARK                         _______ _______ _______ _____ _____    ______ ____
ROOT
ATOM      1  S   UNL     1       6.359  -4.056   1.934  0.00  0.00    +0.000 S 
ENDROOT
BRANCH   1   5
ATOM      2  C   UNL     1       3.210  -1.085   0.393  0.00  0.00    +0.000 A 
ATOM      3  C   UNL     1       2.865  -2.410   0.657  0.00  0.00    +0.000 A 
ATOM      4  C   UNL     1       3.832  -3.310   1.122  0.00  0.00    +0.000 A 
ATOM      5  C   UNL     1       5.153  -2.896   1.321  0.00  0.00    +0.000 A 
ATOM      6  C   UNL     1       5.493  -1.566   1.067  0.00  0.00    +0.000 A 
ATOM      7  C   UNL     1       4.527  -0.670   0.601  0.00  0.00    +0.000 A 
BRANCH   2   9
ATOM      8  C   UNL     1       1.016  -0.481  -0.295  0.00  0.00    +0.000 C 
ATOM      9  O   UNL     1       2.368  -0.109  -0.063  0.00  0.00    +0.000 OA
ENDBRANCH   2   9
ENDBRANCH   1   5
BRANCH   1  10
ATOM     10  S   UNL     1       7.535  -4.334   0.303  0.00  0.00    +0.000 S 
ATOM     11  O   UNL     1       8.309  -3.047   0.329  0.00  0.00    +0.000 OA
BRANCH  10  12
ATOM     12  C   UNL     1       8.663  -5.603   0.930  0.00  0.00    +0.000 A 
ATOM     13  C   UNL     1       8.234  -6.934   1.005  0.00  0.00    +0.000 A 
ATOM     14  C   UNL     1       9.098  -7.926   1.474  0.00  0.00    +0.000 A 
ATOM     15  C   UNL     1      10.394  -7.595   1.865  0.00  0.00    +0.000 A 
ATOM     16  C   UNL     1      10.830  -6.273   1.786  0.00  0.00    +0.000 A 
ATOM     17  C   UNL     1       9.968  -5.280   1.319  0.00  0.00    +0.000 A 
ENDBRANCH  10  12
ENDBRANCH   1  10
TORSDOF 4
