REMARK  Name = *****
REMARK  4 active torsions:
REMARK  status: ('A' for Active; 'I' for Inactive)
REMARK    1  A    between atoms: C_4  and  C_6
REMARK    2  A    between atoms: C_6  and  N_7
REMARK    3  A    between atoms: N_7  and  C_8
REMARK    4  A    between atoms: C_8  and  C_9
REMARK                            x       y       z     vdW  Elec       q    Type
REMARK                         _______ _______ _______ _____ _____    ______ ____
ROOT
ATOM      1  N   UNL     1      -2.532   1.120   1.916  0.00  0.00    +0.000 NA
ENDROOT
BRANCH   1   2
ATOM      2  C   UNL     1      -1.338   1.328   1.487  0.00  0.00    +0.000 C 
BRANCH   2   6
ATOM      3  C   UNL     1       1.161   1.878  -0.508  0.00  0.00    +0.000 C 
ATOM      4  C   UNL     1       1.387   0.377  -0.523  0.00  0.00    +0.000 C 
ATOM      5  C   UNL     1       0.193  -0.198   0.233  0.00  0.00    +0.000 C 
ATOM      6  C   UNL     1      -0.927   0.843   0.115  0.00  0.00    +0.000 C 
ATOM      7  C   UNL     1      -0.344   2.000  -0.699  0.00  0.00    +0.000 C 
ENDBRANCH   2   6
ENDBRANCH   1   2
BRANCH   1   8
ATOM      8  C   UNL     1      -2.779   1.635   3.268  0.00  0.00    +0.000 C 
BRANCH   8   9
ATOM      9  C   UNL     1      -3.867   0.856   3.969  0.00  0.00    +0.000 A 
ATOM     10  C   UNL     1      -3.739  -0.529   4.148  0.00  0.00    +0.000 A 
ATOM     11  C   UNL     1      -4.728  -1.254   4.816  0.00  0.00    +0.000 A 
ATOM     12  C   UNL     1      -5.854  -0.601   5.313  0.00  0.00    +0.000 A 
ATOM     13  C   UNL     1      -5.992   0.776   5.143  0.00  0.00    +0.000 A 
ATOM     14  C   UNL     1      -5.003   1.502   4.476  0.00  0.00    +0.000 A 
ENDBRANCH   8   9
ENDBRANCH   1   8
TORSDOF 4
