REMARK  Name = *****
REMARK  3 active torsions:
REMARK  status: ('A' for Active; 'I' for Inactive)
REMARK    1  A    between atoms: C_4  and  C_7
REMARK    2  A    between atoms: C_7  and  C_8
REMARK    3  A    between atoms: C_9  and  C_10
REMARK                            x       y       z     vdW  Elec       q    Type
REMARK                         _______ _______ _______ _____ _____    ______ ____
ROOT
ATOM      1  C   UNL     1      -1.254   1.634   2.823  0.00  0.00    +0.000 C 
ATOM      2  C   UNL     1      -2.175   0.999   3.566  0.00  0.00    +0.000 C 
ENDROOT
BRANCH   2   3
ATOM      3  C   UNL     1      -3.326   1.668   4.185  0.00  0.00    +0.000 A 
ATOM      4  C   UNL     1      -4.070   2.644   3.510  0.00  0.00    +0.000 A 
ATOM      5  C   UNL     1      -5.180   3.237   4.117  0.00  0.00    +0.000 A 
ATOM      6  C   UNL     1      -5.563   2.853   5.400  0.00  0.00    +0.000 A 
ATOM      7  C   UNL     1      -4.840   1.871   6.075  0.00  0.00    +0.000 A 
ATOM      8  C   UNL     1      -3.730   1.278   5.468  0.00  0.00    +0.000 A 
ENDBRANCH   2   3
BRANCH   1   9
ATOM      9  C   UNL     1      -0.075   0.943   2.183  0.00  0.00    +0.000 C 
BRANCH   9  13
ATOM     10  C   UNL     1       0.066  -1.834  -0.519  0.00  0.00    +0.000 C 
ATOM     11  C   UNL     1       1.304  -1.300   0.188  0.00  0.00    +0.000 C 
ATOM     12  S   UNL     1       1.555   0.482  -0.048  0.00  0.00    +0.000 S 
ATOM     13  C   UNL     1      -0.002   1.134   0.654  0.00  0.00    +0.000 C 
ATOM     14  S   UNL     1      -1.440   0.493  -0.274  0.00  0.00    +0.000 S 
ATOM     15  C   UNL     1      -1.247  -1.286   0.021  0.00  0.00    +0.000 C 
ENDBRANCH   9  13
ENDBRANCH   1   9
TORSDOF 3
