REMARK  Name = *****
REMARK  3 active torsions:
REMARK  status: ('A' for Active; 'I' for Inactive)
REMARK    1  A    between atoms: C_1  and  C_2
REMARK    2  A    between atoms: C_9  and  C_11
REMARK    3  A    between atoms: C_11  and  C_12
REMARK                            x       y       z     vdW  Elec       q    Type
REMARK                         _______ _______ _______ _____ _____    ______ ____
ROOT
ATOM      1  C   UNL     1       0.891  -0.121  -0.136  0.00  0.00    +0.000 C 
ATOM      2  C   UNL     1       2.388  -0.065  -0.024  0.00  0.00    +0.000 A 
ATOM      3  C   UNL     1       3.142  -1.246  -0.140  0.00  0.00    +0.000 A 
ATOM      4  C   UNL     1       4.522  -1.102  -0.057  0.00  0.00    +0.000 A 
ATOM      5  C   UNL     1       5.182   0.102   0.118  0.00  0.00    +0.000 A 
ATOM      6  C   UNL     1       4.429   1.277   0.219  0.00  0.00    +0.000 A 
ATOM      7  C   UNL     1       3.030   1.177   0.141  0.00  0.00    +0.000 A 
ATOM      8  N   UNL     1       6.537  -0.110   0.160  0.00  0.00    +0.000 NA
ATOM      9  C   UNL     1       6.652  -1.417  -0.004  0.00  0.00    +0.000 A 
ATOM     10  O   UNL     1       5.461  -2.089  -0.131  0.00  0.00    +0.000 OA
ENDROOT
BRANCH   9  11
ATOM     11  C   UNL     1       7.887  -2.244  -0.040  0.00  0.00    +0.000 C 
BRANCH  11  12
ATOM     12  C   UNL     1       8.362  -2.534  -1.445  0.00  0.00    +0.000 A 
ATOM     13  C   UNL     1       9.136  -1.593  -2.140  0.00  0.00    +0.000 A 
ATOM     14  C   UNL     1       9.564  -1.853  -3.443  0.00  0.00    +0.000 A 
ATOM     15  C   UNL     1       9.220  -3.052  -4.064  0.00  0.00    +0.000 A 
ATOM     16  C   UNL     1       8.442  -3.990  -3.387  0.00  0.00    +0.000 A 
ATOM     17  C   UNL     1       8.012  -3.732  -2.084  0.00  0.00    +0.000 A 
ENDBRANCH  11  12
ENDBRANCH   9  11
TORSDOF 2
