REMARK  Name = *****
REMARK  2 active torsions:
REMARK  status: ('A' for Active; 'I' for Inactive)
REMARK    1  A    between atoms: C_4  and  C_6
REMARK    2  A    between atoms: C_7  and  C_8
REMARK                            x       y       z     vdW  Elec       q    Type
REMARK                         _______ _______ _______ _____ _____    ______ ____
ROOT
ATOM      1  C   UNL     1      -1.665   2.052   0.107  0.00  0.00    +0.000 C 
ATOM      2  C   UNL     1      -1.381   3.354   0.270  0.00  0.00    +0.000 C 
ENDROOT
BRANCH   2   3
ATOM      3  C   UNL     1      -2.400   4.409   0.374  0.00  0.00    +0.000 A 
ATOM      4  C   UNL     1      -3.591   4.231   1.090  0.00  0.00    +0.000 A 
ATOM      5  C   UNL     1      -4.521   5.270   1.192  0.00  0.00    +0.000 A 
ATOM      6  C   UNL     1      -4.264   6.499   0.589  0.00  0.00    +0.000 A 
ATOM      7  C   UNL     1      -3.076   6.693  -0.112  0.00  0.00    +0.000 A 
ATOM      8  C   UNL     1      -2.146   5.655  -0.214  0.00  0.00    +0.000 A 
ENDBRANCH   2   3
BRANCH   1  12
ATOM      9  C   UNL     1       1.349  -0.138  -0.428  0.00  0.00    +0.000 C 
ATOM     10  C   UNL     1       0.238  -1.155  -0.182  0.00  0.00    +0.000 C 
ATOM     11  C   UNL     1      -0.984  -0.301  -0.122  0.00  0.00    +0.000 C 
ATOM     12  C   UNL     1      -0.686   0.999  -0.001  0.00  0.00    +0.000 C 
ATOM     13  C   UNL     1       0.798   1.212   0.032  0.00  0.00    +0.000 C 
ENDBRANCH   1  12
TORSDOF 2
