REMARK  Name = *****
REMARK  2 active torsions:
REMARK  status: ('A' for Active; 'I' for Inactive)
REMARK    1  A    between atoms: C_3  and  C_8
REMARK    2  A    between atoms: C_9  and  C_10
REMARK                            x       y       z     vdW  Elec       q    Type
REMARK                         _______ _______ _______ _____ _____    ______ ____
ROOT
ATOM      1  C   UNL     1       1.386  -2.522   0.277  0.00  0.00    +0.000 C 
ATOM      2  C   UNL     1       1.928  -3.514   0.684  0.00  0.00    +0.000 C 
ENDROOT
BRANCH   1   5
ATOM      3  C   UNL     1       0.759   1.226  -0.207  0.00  0.00    +0.000 C 
ATOM      4  C   UNL     1       1.461  -0.051   0.250  0.00  0.00    +0.000 C 
ATOM      5  C   UNL     1       0.718  -1.308  -0.225  0.00  0.00    +0.000 C 
ATOM      6  C   UNL     1      -0.750  -1.279   0.223  0.00  0.00    +0.000 C 
ATOM      7  C   UNL     1      -1.436   0.000  -0.245  0.00  0.00    +0.000 C 
ATOM      8  C   UNL     1      -0.704   1.251   0.228  0.00  0.00    +0.000 C 
ATOM      9 BR   UNL     1      -3.270   0.034   0.430  0.00  0.00    +0.000 Br
ENDBRANCH   1   5
BRANCH   2  10
ATOM     10  C   UNL     1       2.570  -4.697   1.168  0.00  0.00    +0.000 A 
ATOM     11  C   UNL     1       3.813  -4.610   1.799  0.00  0.00    +0.000 A 
ATOM     12  C   UNL     1       4.439  -5.766   2.270  0.00  0.00    +0.000 A 
ATOM     13  C   UNL     1       3.824  -7.007   2.112  0.00  0.00    +0.000 A 
ATOM     14  C   UNL     1       2.582  -7.096   1.482  0.00  0.00    +0.000 A 
ATOM     15  C   UNL     1       1.955  -5.941   1.010  0.00  0.00    +0.000 A 
ENDBRANCH   2  10
TORSDOF 2
