REMARK  Name = *****
REMARK  5 active torsions:
REMARK  status: ('A' for Active; 'I' for Inactive)
REMARK    1  A    between atoms: C_1  and  C_2
REMARK    2  A    between atoms: C_3  and  C_19
REMARK    3  A    between atoms: C_5  and  C_8
REMARK    4  A    between atoms: C_8  and  C_9
REMARK    5  A    between atoms: C_9  and  C_11
REMARK                            x       y       z     vdW  Elec       q    Type
REMARK                         _______ _______ _______ _____ _____    ______ ____
ROOT
ATOM      1  C   UNL     1      -3.092  -1.482  -0.248  0.00  0.00    +0.000 C 
ATOM      2  F   UNL     1      -2.999  -2.689   0.403  0.00  0.00    +0.000 F 
ATOM      3  F   UNL     1      -4.107  -0.829   0.411  0.00  0.00    +0.000 F 
ENDROOT
BRANCH   1   8
ATOM      4  C   UNL     1       1.897   1.536   0.217  0.00  0.00    +0.000 C 
ATOM      5  C   UNL     1       0.630   0.735   0.100  0.00  0.00    +0.000 A 
ATOM      6  C   UNL     1       0.651  -0.673   0.066  0.00  0.00    +0.000 A 
ATOM      7  C   UNL     1      -0.560  -1.377  -0.049  0.00  0.00    +0.000 A 
ATOM      8  C   UNL     1      -1.790  -0.705  -0.119  0.00  0.00    +0.000 A 
ATOM      9  C   UNL     1      -1.797   0.695  -0.078  0.00  0.00    +0.000 A 
ATOM     10  C   UNL     1      -0.601   1.405   0.031  0.00  0.00    +0.000 A 
ATOM     11  C   UNL     1       1.943  -1.440   0.131  0.00  0.00    +0.000 C 
ENDBRANCH   1   8
BRANCH   1  12
ATOM     12  C   UNL     1      -3.492  -1.714  -1.719  0.00  0.00    +0.000 C 
ATOM     13  O   UNL     1      -2.815  -1.347  -2.683  0.00  0.00    +0.000 OA
BRANCH  12  14
ATOM     14  C   UNL     1      -4.777  -2.432  -2.000  0.00  0.00    +0.000 A 
ATOM     15  C   UNL     1      -5.604  -2.942  -0.991  0.00  0.00    +0.000 A 
ATOM     16  C   UNL     1      -6.792  -3.604  -1.319  0.00  0.00    +0.000 A 
ATOM     17  C   UNL     1      -7.164  -3.762  -2.652  0.00  0.00    +0.000 A 
ATOM     18  C   UNL     1      -6.349  -3.260  -3.664  0.00  0.00    +0.000 A 
ATOM     19  C   UNL     1      -5.162  -2.600  -3.340  0.00  0.00    +0.000 A 
ENDBRANCH  12  14
ENDBRANCH   1  12
TORSDOF 3
