REMARK  Name = *****
REMARK  4 active torsions:
REMARK  status: ('A' for Active; 'I' for Inactive)
REMARK    1  A    between atoms: C_4  and  C_7
REMARK    2  A    between atoms: C_7  and  P_9
REMARK    3  A    between atoms: P_9  and  C_10
REMARK    4  A    between atoms: C_10  and  C_12
REMARK                            x       y       z     vdW  Elec       q    Type
REMARK                         _______ _______ _______ _____ _____    ______ ____
ROOT
ATOM      1  P   UNL     1       3.650  -2.352   0.946  0.00  0.00    +0.000 P 
ATOM      2  H   UNL     1       2.954  -3.529   0.763  0.00  0.00    +0.000 HD
ENDROOT
BRANCH   1   3
ATOM      3  C   UNL     1       2.883  -0.967   0.103  0.00  0.00    +0.000 C 
ATOM      4  O   UNL     1       2.047  -1.283  -0.733  0.00  0.00    +0.000 OA
BRANCH   3   8
ATOM      5  C   UNL     1       2.637   3.353   0.378  0.00  0.00    +0.000 C 
ATOM      6  C   UNL     1       2.327   2.532   1.626  0.00  0.00    +0.000 C 
ATOM      7  C   UNL     1       2.067   1.066   1.285  0.00  0.00    +0.000 C 
ATOM      8  C   UNL     1       3.226   0.459   0.488  0.00  0.00    +0.000 C 
ATOM      9  C   UNL     1       3.525   1.286  -0.767  0.00  0.00    +0.000 C 
ATOM     10  C   UNL     1       3.787   2.750  -0.423  0.00  0.00    +0.000 C 
ENDBRANCH   3   8
ENDBRANCH   1   3
BRANCH   1  11
ATOM     11  C   UNL     1       5.214  -2.338   0.060  0.00  0.00    +0.000 C 
ATOM     12  O   UNL     1       5.836  -1.285   0.104  0.00  0.00    +0.000 OA
BRANCH  11  13
ATOM     13  C   UNL     1       5.709  -3.600  -0.620  0.00  0.00    +0.000 C 
ATOM     14  C   UNL     1       6.772  -4.271   0.257  0.00  0.00    +0.000 C 
ATOM     15  C   UNL     1       7.367  -5.501  -0.424  0.00  0.00    +0.000 C 
ATOM     16  C   UNL     1       7.913  -5.171  -1.810  0.00  0.00    +0.000 C 
ATOM     17  C   UNL     1       6.857  -4.502  -2.686  0.00  0.00    +0.000 C 
ATOM     18  C   UNL     1       6.268  -3.267  -2.009  0.00  0.00    +0.000 C 
ENDBRANCH  11  13
ENDBRANCH   1  11
TORSDOF 4
