REMARK  Name = *****
REMARK  4 active torsions:
REMARK  status: ('A' for Active; 'I' for Inactive)
REMARK    1  A    between atoms: C_4  and  C_7
REMARK    2  A    between atoms: C_7  and  C_8
REMARK    3  A    between atoms: C_7  and  S_9
REMARK    4  A    between atoms: C_8  and  C_11
REMARK                            x       y       z     vdW  Elec       q    Type
REMARK                         _______ _______ _______ _____ _____    ______ ____
ROOT
ATOM      1  C   UNL     1      -2.638  -0.363   0.195  0.00  0.00    +0.000 C 
ENDROOT
BRANCH   1   5
ATOM      2  C   UNL     1       1.390  -0.002  -1.147  0.00  0.00    +0.000 A 
ATOM      3  C   UNL     1       0.525  -0.865  -1.815  0.00  0.00    +0.000 A 
ATOM      4  C   UNL     1      -0.801  -0.996  -1.392  0.00  0.00    +0.000 A 
ATOM      5  C   UNL     1      -1.274  -0.264  -0.295  0.00  0.00    +0.000 A 
ATOM      6  C   UNL     1      -0.393   0.607   0.364  0.00  0.00    +0.000 A 
ATOM      7  C   UNL     1       0.932   0.736  -0.058  0.00  0.00    +0.000 A 
ENDBRANCH   1   5
BRANCH   1   8
ATOM      8  S   UNL     1      -3.993  -1.332  -0.362  0.00  0.00    +0.000 S 
ATOM      9  O   UNL     1      -5.201  -0.460  -0.189  0.00  0.00    +0.000 OA
ENDBRANCH   1   8
BRANCH   1  10
ATOM     10  C   UNL     1      -3.095  -1.185   1.140  0.00  0.00    +0.000 C 
BRANCH  10  11
ATOM     11  C   UNL     1      -2.320  -2.147   1.902  0.00  0.00    +0.000 A 
ATOM     12  C   UNL     1      -1.845  -1.763   3.164  0.00  0.00    +0.000 A 
ATOM     13  C   UNL     1      -1.086  -2.644   3.938  0.00  0.00    +0.000 A 
ATOM     14  C   UNL     1      -0.796  -3.919   3.459  0.00  0.00    +0.000 A 
ATOM     15  C   UNL     1      -1.265  -4.314   2.209  0.00  0.00    +0.000 A 
ATOM     16  C   UNL     1      -2.024  -3.434   1.433  0.00  0.00    +0.000 A 
ENDBRANCH  10  11
ENDBRANCH   1  10
TORSDOF 4
