REMARK  Name = *****
REMARK  4 active torsions:
REMARK  status: ('A' for Active; 'I' for Inactive)
REMARK    1  A    between atoms: C_4  and  C_6
REMARK    2  A    between atoms: C_6  and  C_8
REMARK    3  A    between atoms: C_8  and  S_9
REMARK    4  A    between atoms: S_9  and  C_10
REMARK                            x       y       z     vdW  Elec       q    Type
REMARK                         _______ _______ _______ _____ _____    ______ ____
ROOT
ATOM      1  C   UNL     1       0.858  -3.857  -0.222  0.00  0.00    +0.000 C 
ENDROOT
BRANCH   1   2
ATOM      2  C   UNL     1      -0.192  -2.745  -0.200  0.00  0.00    +0.000 C 
ATOM      3  O   UNL     1      -1.394  -2.976  -0.344  0.00  0.00    +0.000 OA
BRANCH   2   7
ATOM      4  C   UNL     1       0.242   0.953   0.271  0.00  0.00    +0.000 A 
ATOM      5  C   UNL     1       1.588   0.690   0.387  0.00  0.00    +0.000 A 
ATOM      6  S   UNL     1       1.930  -0.976   0.234  0.00  0.00    +0.000 S 
ATOM      7  C   UNL     1       0.278  -1.373   0.008  0.00  0.00    +0.000 A 
ATOM      8  C   UNL     1      -0.511  -0.236   0.054  0.00  0.00    +0.000 A 
ENDBRANCH   2   7
ENDBRANCH   1   2
BRANCH   1   9
ATOM      9  S   UNL     1       0.136  -5.502  -0.546  0.00  0.00    +0.000 S 
BRANCH   9  10
ATOM     10  C   UNL     1       1.567  -6.526  -0.263  0.00  0.00    +0.000 A 
ATOM     11  C   UNL     1       1.507  -7.520   0.720  0.00  0.00    +0.000 A 
ATOM     12  C   UNL     1       2.610  -8.344   0.960  0.00  0.00    +0.000 A 
ATOM     13  C   UNL     1       3.772  -8.179   0.211  0.00  0.00    +0.000 A 
ATOM     14  C   UNL     1       3.839  -7.202  -0.780  0.00  0.00    +0.000 A 
ATOM     15  C   UNL     1       2.734  -6.378  -1.020  0.00  0.00    +0.000 A 
ATOM     16 CL   UNL     1       5.131  -9.191   0.505  0.00  0.00    +0.000 Cl
ENDBRANCH   9  10
ENDBRANCH   1   9
TORSDOF 4
