REMARK  Name = *****
REMARK  3 active torsions:
REMARK  status: ('A' for Active; 'I' for Inactive)
REMARK    1  A    between atoms: C_4  and  C_7
REMARK    2  A    between atoms: C_8  and  C_9
REMARK    3  A    between atoms: C_12  and  C_15
REMARK                            x       y       z     vdW  Elec       q    Type
REMARK                         _______ _______ _______ _____ _____    ______ ____
ROOT
ATOM      1  C   UNL     1      -2.826   0.510  -0.216  0.00  0.00    +0.000 C 
ATOM      2  C   UNL     1      -3.401   1.724  -0.254  0.00  0.00    +0.000 C 
ATOM      3  F   UNL     1      -3.607  -0.596  -0.259  0.00  0.00    +0.000 F 
ENDROOT
BRANCH   1   7
ATOM      4  C   UNL     1       1.373  -0.298   0.134  0.00  0.00    +0.000 A 
ATOM      5  C   UNL     1       0.429  -1.217   0.585  0.00  0.00    +0.000 A 
ATOM      6  C   UNL     1      -0.934  -0.935   0.463  0.00  0.00    +0.000 A 
ATOM      7  C   UNL     1      -1.375   0.272  -0.101  0.00  0.00    +0.000 A 
ATOM      8  C   UNL     1      -0.410   1.180  -0.563  0.00  0.00    +0.000 A 
ATOM      9  C   UNL     1       0.954   0.898  -0.443  0.00  0.00    +0.000 A 
ENDBRANCH   1   7
BRANCH   2  10
ATOM     10  C   UNL     1      -4.847   1.969  -0.358  0.00  0.00    +0.000 A 
ATOM     11  C   UNL     1      -5.791   1.205   0.340  0.00  0.00    +0.000 A 
ATOM     12  C   UNL     1      -7.157   1.493   0.244  0.00  0.00    +0.000 A 
ATOM     13  C   UNL     1      -7.594   2.561  -0.544  0.00  0.00    +0.000 A 
ATOM     14  C   UNL     1      -6.659   3.341  -1.230  0.00  0.00    +0.000 A 
ATOM     15  C   UNL     1      -5.294   3.049  -1.132  0.00  0.00    +0.000 A 
BRANCH  13  16
ATOM     16  C   UNL     1      -8.993   2.859  -0.643  0.00  0.00    +0.000 C 
ATOM     17  N   UNL     1     -10.125   3.104  -0.724  0.00  0.00    +0.000 NA
ENDBRANCH  13  16
ENDBRANCH   2  10
TORSDOF 3
