REMARK  Name = *****
REMARK  4 active torsions:
REMARK  status: ('A' for Active; 'I' for Inactive)
REMARK    1  A    between atoms: C_1  and  C_2
REMARK    2  A    between atoms: C_2  and  C_3
REMARK    3  A    between atoms: C_2  and  S_9
REMARK    4  A    between atoms: S_9  and  C_10
REMARK                            x       y       z     vdW  Elec       q    Type
REMARK                         _______ _______ _______ _____ _____    ______ ____
ROOT
ATOM      1  C   UNL     1       0.789  -0.174  -0.005  0.00  0.00    +0.000 C 
ATOM      2  C   UNL     1       2.318  -0.136  -0.086  0.00  0.00    +0.000 C 
ENDROOT
BRANCH   2   3
ATOM      3  C   UNL     1       2.967  -0.282   1.282  0.00  0.00    +0.000 A 
ATOM      4  C   UNL     1       2.658  -1.349   2.143  0.00  0.00    +0.000 A 
ATOM      5  C   UNL     1       3.269  -1.459   3.394  0.00  0.00    +0.000 A 
ATOM      6  C   UNL     1       4.200  -0.508   3.802  0.00  0.00    +0.000 A 
ATOM      7  C   UNL     1       4.525   0.552   2.959  0.00  0.00    +0.000 A 
ATOM      8  C   UNL     1       3.916   0.663   1.707  0.00  0.00    +0.000 A 
ENDBRANCH   2   3
BRANCH   2   9
ATOM      9  S   UNL     1       2.948  -1.439  -1.229  0.00  0.00    +0.000 S 
BRANCH   9  10
ATOM     10  C   UNL     1       2.426  -0.777  -2.800  0.00  0.00    +0.000 A 
ATOM     11  C   UNL     1       2.961   0.414  -3.298  0.00  0.00    +0.000 A 
ATOM     12  C   UNL     1       2.543   0.911  -4.535  0.00  0.00    +0.000 A 
ATOM     13  C   UNL     1       1.597   0.213  -5.284  0.00  0.00    +0.000 A 
ATOM     14  C   UNL     1       1.072  -0.985  -4.800  0.00  0.00    +0.000 A 
ATOM     15  C   UNL     1       1.490  -1.481  -3.563  0.00  0.00    +0.000 A 
ENDBRANCH   9  10
ENDBRANCH   2   9
TORSDOF 3
