REMARK  Name = *****
REMARK  4 active torsions:
REMARK  status: ('A' for Active; 'I' for Inactive)
REMARK    1  A    between atoms: C_1  and  C_2
REMARK    2  A    between atoms: C_5  and  C_8
REMARK    3  A    between atoms: C_9  and  S_10
REMARK    4  A    between atoms: S_10  and  C_11
REMARK                            x       y       z     vdW  Elec       q    Type
REMARK                         _______ _______ _______ _____ _____    ______ ____
ROOT
ATOM      1  C   UNL     1      -3.377   0.476  -0.281  0.00  0.00    +0.000 C 
ATOM      2  C   UNL     1      -4.027   1.631  -0.075  0.00  0.00    +0.000 C 
ENDROOT
BRANCH   1   7
ATOM      3  C   UNL     1       2.358  -0.250   0.027  0.00  0.00    +0.000 C 
ATOM      4  C   UNL     1       0.877  -0.029  -0.065  0.00  0.00    +0.000 A 
ATOM      5  C   UNL     1       0.222   0.780   0.870  0.00  0.00    +0.000 A 
ATOM      6  C   UNL     1      -1.163   0.961   0.805  0.00  0.00    +0.000 A 
ATOM      7  C   UNL     1      -1.917   0.336  -0.195  0.00  0.00    +0.000 A 
ATOM      8  C   UNL     1      -1.264  -0.498  -1.109  0.00  0.00    +0.000 A 
ATOM      9  C   UNL     1       0.121  -0.679  -1.046  0.00  0.00    +0.000 A 
ENDBRANCH   1   7
BRANCH   2  10
ATOM     10  S   UNL     1      -5.752   1.763  -0.190  0.00  0.00    +0.000 S 
BRANCH  10  11
ATOM     11  C   UNL     1      -5.956   1.510  -1.946  0.00  0.00    +0.000 A 
ATOM     12  C   UNL     1      -6.679   0.404  -2.403  0.00  0.00    +0.000 A 
ATOM     13  C   UNL     1      -6.859   0.195  -3.772  0.00  0.00    +0.000 A 
ATOM     14  C   UNL     1      -6.323   1.096  -4.692  0.00  0.00    +0.000 A 
ATOM     15  C   UNL     1      -5.610   2.207  -4.244  0.00  0.00    +0.000 A 
ATOM     16  C   UNL     1      -5.430   2.416  -2.875  0.00  0.00    +0.000 A 
ENDBRANCH  10  11
ENDBRANCH   2  10
TORSDOF 3
