REMARK  Name = *****
REMARK  2 active torsions:
REMARK  status: ('A' for Active; 'I' for Inactive)
REMARK    1  A    between atoms: C_4  and  S_7
REMARK    2  A    between atoms: S_7  and  P_8
REMARK                            x       y       z     vdW  Elec       q    Type
REMARK                         _______ _______ _______ _____ _____    ______ ____
ROOT
ATOM      1  P   UNL     1      -3.778  -2.031  -1.231  0.00  0.00    +0.000 P 
ATOM      2  O   UNL     1      -4.583  -3.149  -0.335  0.00  0.00    +0.000 OA
ATOM      3  C   UNL     1      -5.916  -3.117  -0.638  0.00  0.00    +0.000 A 
ATOM      4  C   UNL     1      -6.887  -3.935  -0.099  0.00  0.00    +0.000 A 
ATOM      5  C   UNL     1      -8.203  -3.746  -0.531  0.00  0.00    +0.000 A 
ATOM      6  C   UNL     1      -8.514  -2.754  -1.481  0.00  0.00    +0.000 A 
ATOM      7  C   UNL     1      -7.513  -1.935  -2.012  0.00  0.00    +0.000 A 
ATOM      8  C   UNL     1      -6.223  -2.139  -1.573  0.00  0.00    +0.000 A 
ATOM      9  O   UNL     1      -5.119  -1.436  -1.971  0.00  0.00    +0.000 OA
ENDROOT
BRANCH   1  10
ATOM     10  S   UNL     1      -3.548  -0.545   0.260  0.00  0.00    +0.000 S 
BRANCH  10  14
ATOM     11  C   UNL     1      -1.446   2.648  -2.264  0.00  0.00    +0.000 A 
ATOM     12  C   UNL     1      -2.838   2.609  -2.210  0.00  0.00    +0.000 A 
ATOM     13  C   UNL     1      -3.480   1.634  -1.443  0.00  0.00    +0.000 A 
ATOM     14  C   UNL     1      -2.732   0.688  -0.734  0.00  0.00    +0.000 A 
ATOM     15  C   UNL     1      -1.335   0.741  -0.783  0.00  0.00    +0.000 A 
ATOM     16  C   UNL     1      -0.694   1.717  -1.550  0.00  0.00    +0.000 A 
ENDBRANCH  10  14
ENDBRANCH   1  10
TORSDOF 2
