REMARK  Name = *****
REMARK  2 active torsions:
REMARK  status: ('A' for Active; 'I' for Inactive)
REMARK    1  A    between atoms: C_6  and  C_7
REMARK    2  A    between atoms: N_9  and  C_10
REMARK                            x       y       z     vdW  Elec       q    Type
REMARK                         _______ _______ _______ _____ _____    ______ ____
ROOT
ATOM      1  C   UNL     1      -3.934   1.320   0.367  0.00  0.00    +0.000 C 
ATOM      2  O   UNL     1      -4.740   0.758   1.097  0.00  0.00    +0.000 OA
ATOM      3  N   UNL     1      -4.138   2.478  -0.355  0.00  0.00    +0.000 N 
ATOM      4  H   UNL     1      -3.402   2.763  -0.943  0.00  0.00    +0.000 HD
ENDROOT
BRANCH   1  10
ATOM      5  C   UNL     1      -2.518  -0.705   0.126  0.00  0.00    +0.000 A 
ATOM      6  C   UNL     1      -1.280  -1.329  -0.045  0.00  0.00    +0.000 A 
ATOM      7  C   UNL     1      -0.116  -0.561  -0.152  0.00  0.00    +0.000 A 
ATOM      8  C   UNL     1      -0.195   0.836  -0.080  0.00  0.00    +0.000 A 
ATOM      9  C   UNL     1      -1.435   1.463   0.086  0.00  0.00    +0.000 A 
ATOM     10  C   UNL     1      -2.599   0.692   0.178  0.00  0.00    +0.000 A 
ATOM     11 CL   UNL     1       1.203   1.847  -0.185  0.00  0.00    +0.000 Cl
ATOM     12 CL   UNL     1       1.381  -1.396  -0.364  0.00  0.00    +0.000 Cl
ENDBRANCH   1  10
BRANCH   3  13
ATOM     13  C   UNL     1      -5.287   3.300  -0.345  0.00  0.00    +0.000 A 
ATOM     14  C   UNL     1      -5.317   4.365  -1.259  0.00  0.00    +0.000 A 
ATOM     15  C   UNL     1      -6.396   5.237  -1.334  0.00  0.00    +0.000 A 
ATOM     16  C   UNL     1      -7.465   5.045  -0.472  0.00  0.00    +0.000 A 
ATOM     17  C   UNL     1      -7.463   4.003   0.451  0.00  0.00    +0.000 A 
ATOM     18  C   UNL     1      -6.372   3.128   0.516  0.00  0.00    +0.000 A 
ATOM     19  F   UNL     1      -8.513   5.875  -0.527  0.00  0.00    +0.000 F 
ATOM     20  F   UNL     1      -4.277   4.547  -2.089  0.00  0.00    +0.000 F 
ENDBRANCH   3  13
TORSDOF 2
