REMARK  Name = *****
REMARK  4 active torsions:
REMARK  status: ('A' for Active; 'I' for Inactive)
REMARK    1  A    between atoms: C_3  and  C_8
REMARK    2  A    between atoms: C_8  and  O_9
REMARK    3  A    between atoms: O_9  and  C_10
REMARK    4  A    between atoms: C_10  and  C_12
REMARK                            x       y       z     vdW  Elec       q    Type
REMARK                         _______ _______ _______ _____ _____    ______ ____
ROOT
ATOM      1  O   UNL     1      -1.031   3.595   0.152  0.00  0.00    +0.000 OA
ENDROOT
BRANCH   1   2
ATOM      2  C   UNL     1      -1.614   4.808   0.012  0.00  0.00    +0.000 C 
ATOM      3  O   UNL     1      -2.813   5.032  -0.047  0.00  0.00    +0.000 OA
BRANCH   2   4
ATOM      4  C   UNL     1      -0.581   5.876  -0.053  0.00  0.00    +0.000 A 
ATOM      5  C   UNL     1       0.789   5.592  -0.085  0.00  0.00    +0.000 A 
ATOM      6  C   UNL     1       1.702   6.639  -0.149  0.00  0.00    +0.000 A 
ATOM      7  C   UNL     1       1.282   7.964  -0.182  0.00  0.00    +0.000 A 
ATOM      8  C   UNL     1      -0.081   8.254  -0.152  0.00  0.00    +0.000 A 
ATOM      9  C   UNL     1      -1.010   7.213  -0.089  0.00  0.00    +0.000 A 
ATOM     10  F   UNL     1       3.013   6.365  -0.179  0.00  0.00    +0.000 F 
ENDBRANCH   2   4
ENDBRANCH   1   2
BRANCH   1  11
ATOM     11  C   UNL     1      -1.924   2.475   0.193  0.00  0.00    +0.000 C 
BRANCH  11  14
ATOM     12  C   UNL     1      -3.006   1.625  -3.363  0.00  0.00    +0.000 A 
ATOM     13  C   UNL     1      -2.970   2.199  -2.089  0.00  0.00    +0.000 A 
ATOM     14  C   UNL     1      -1.975   1.834  -1.168  0.00  0.00    +0.000 A 
ATOM     15  C   UNL     1      -1.006   0.898  -1.553  0.00  0.00    +0.000 A 
ATOM     16  C   UNL     1      -1.052   0.333  -2.823  0.00  0.00    +0.000 A 
ATOM     17  C   UNL     1      -2.045   0.686  -3.730  0.00  0.00    +0.000 A 
ATOM     18  F   UNL     1      -0.123  -0.564  -3.178  0.00  0.00    +0.000 F 
ENDBRANCH  11  14
ENDBRANCH   1  11
TORSDOF 4
