REMARK  Name = *****
REMARK  3 active torsions:
REMARK  status: ('A' for Active; 'I' for Inactive)
REMARK    1  A    between atoms: C_1  and  C_2
REMARK    2  A    between atoms: C_4  and  N_8
REMARK    3  A    between atoms: C_9  and  C_10
REMARK                            x       y       z     vdW  Elec       q    Type
REMARK                         _______ _______ _______ _____ _____    ______ ____
ROOT
ATOM      1  N   UNL     1      -1.640   2.555   0.271  0.00  0.00    +0.000 NA
ATOM      2  C   UNL     1      -1.529   3.444  -0.665  0.00  0.00    +0.000 C 
ENDROOT
BRANCH   1   6
ATOM      3  C   UNL     1       2.485  -0.161   0.586  0.00  0.00    +0.000 C 
ATOM      4  C   UNL     1       1.051  -0.008   0.174  0.00  0.00    +0.000 A 
ATOM      5  C   UNL     1       0.375   1.200   0.397  0.00  0.00    +0.000 A 
ATOM      6  C   UNL     1      -0.970   1.344   0.043  0.00  0.00    +0.000 A 
ATOM      7  C   UNL     1      -1.654   0.258  -0.505  0.00  0.00    +0.000 A 
ATOM      8  C   UNL     1      -0.997  -0.954  -0.718  0.00  0.00    +0.000 A 
ATOM      9  C   UNL     1       0.350  -1.087  -0.378  0.00  0.00    +0.000 A 
ENDBRANCH   1   6
BRANCH   2  10
ATOM     10  C   UNL     1      -2.175   4.766  -0.569  0.00  0.00    +0.000 A 
ATOM     11  C   UNL     1      -2.949   5.107   0.544  0.00  0.00    +0.000 A 
ATOM     12  C   UNL     1      -3.550   6.364   0.611  0.00  0.00    +0.000 A 
ATOM     13  C   UNL     1      -3.379   7.277  -0.430  0.00  0.00    +0.000 A 
ATOM     14  C   UNL     1      -2.606   6.936  -1.541  0.00  0.00    +0.000 A 
ATOM     15  C   UNL     1      -2.002   5.679  -1.614  0.00  0.00    +0.000 A 
ENDBRANCH   2  10
TORSDOF 2
