REMARK  Name = *****
REMARK  5 active torsions:
REMARK  status: ('A' for Active; 'I' for Inactive)
REMARK    1  A    between atoms: C_1  and  C_2
REMARK    2  A    between atoms: C_2  and  C_8
REMARK    3  A    between atoms: C_8  and  O_10
REMARK    4  A    between atoms: O_10  and  C_11
REMARK    5  A    between atoms: C_11  and  C_12
REMARK                            x       y       z     vdW  Elec       q    Type
REMARK                         _______ _______ _______ _____ _____    ______ ____
ROOT
ATOM      1  C   UNL     1       3.159   0.099  -1.437  0.00  0.00    +0.000 C 
ATOM      2  O   UNL     1       2.565   0.534  -2.420  0.00  0.00    +0.000 OA
ENDROOT
BRANCH   1   4
ATOM      3  C   UNL     1       3.120   1.333   0.731  0.00  0.00    +0.000 C 
ATOM      4  C   UNL     1       2.588   0.086   0.010  0.00  0.00    +0.000 C 
ATOM      5  C   UNL     1       1.067   0.174  -0.068  0.00  0.00    +0.000 C 
ATOM      6  C   UNL     1       0.232  -0.748   0.441  0.00  0.00    +0.000 C 
ATOM      7  C   UNL     1       0.697  -1.980   1.162  0.00  0.00    +0.000 C 
ATOM      8  C   UNL     1       2.191  -2.078   1.270  0.00  0.00    +0.000 C 
ATOM      9  C   UNL     1       3.035  -1.163   0.764  0.00  0.00    +0.000 C 
ENDBRANCH   1   4
BRANCH   1  10
ATOM     10  O   UNL     1       4.449  -0.350  -1.461  0.00  0.00    +0.000 OA
BRANCH  10  11
ATOM     11  C   UNL     1       5.116  -0.275  -2.725  0.00  0.00    +0.000 C 
BRANCH  11  12
ATOM     12  C   UNL     1       5.952   0.977  -2.770  0.00  0.00    +0.000 A 
ATOM     13  C   UNL     1       7.228   1.003  -2.190  0.00  0.00    +0.000 A 
ATOM     14  C   UNL     1       7.991   2.172  -2.211  0.00  0.00    +0.000 A 
ATOM     15  C   UNL     1       7.482   3.327  -2.803  0.00  0.00    +0.000 A 
ATOM     16  C   UNL     1       6.209   3.316  -3.370  0.00  0.00    +0.000 A 
ATOM     17  C   UNL     1       5.446   2.148  -3.351  0.00  0.00    +0.000 A 
ENDBRANCH  11  12
ENDBRANCH  10  11
ENDBRANCH   1  10
TORSDOF 4
