REMARK  Name = *****
REMARK  1 active torsions:
REMARK  status: ('A' for Active; 'I' for Inactive)
REMARK    1  A    between atoms: C_8  and  C_10
REMARK                            x       y       z     vdW  Elec       q    Type
REMARK                         _______ _______ _______ _____ _____    ______ ____
ROOT
ATOM      1  C   UNL     1      -2.452  -0.724   0.649  0.00  0.00    +0.000 C 
ATOM      2  C   UNL     1      -2.562   0.668   0.036  0.00  0.00    +0.000 C 
ATOM      3  C   UNL     1      -1.274   1.469   0.246  0.00  0.00    +0.000 C 
ATOM      4  C   UNL     1      -0.032   0.659  -0.009  0.00  0.00    +0.000 C 
ATOM      5  C   UNL     1      -0.041  -0.680  -0.117  0.00  0.00    +0.000 C 
ATOM      6  C   UNL     1      -1.287  -1.509   0.039  0.00  0.00    +0.000 C 
ATOM      7  S   UNL     1       1.464  -1.485  -0.453  0.00  0.00    +0.000 S 
ATOM      8  C   UNL     1       2.531  -0.005  -0.339  0.00  0.00    +0.000 C 
ATOM      9  S   UNL     1       1.483   1.488  -0.206  0.00  0.00    +0.000 S 
ENDROOT
BRANCH   8  10
ATOM     10  C   UNL     1       3.528   0.084  -1.477  0.00  0.00    +0.000 A 
ATOM     11  C   UNL     1       3.119   0.198  -2.818  0.00  0.00    +0.000 A 
ATOM     12  C   UNL     1       4.057   0.277  -3.849  0.00  0.00    +0.000 A 
ATOM     13  C   UNL     1       5.418   0.244  -3.557  0.00  0.00    +0.000 A 
ATOM     14  C   UNL     1       5.843   0.132  -2.235  0.00  0.00    +0.000 A 
ATOM     15  C   UNL     1       4.906   0.052  -1.203  0.00  0.00    +0.000 A 
ENDBRANCH   8  10
TORSDOF 1
