REMARK  Name = *****
REMARK  3 active torsions:
REMARK  status: ('A' for Active; 'I' for Inactive)
REMARK    1  A    between atoms: C_4  and  C_7
REMARK    2  A    between atoms: C_7  and  C_8
REMARK    3  A    between atoms: C_8  and  C_9
REMARK                            x       y       z     vdW  Elec       q    Type
REMARK                         _______ _______ _______ _____ _____    ______ ____
ROOT
ATOM      1  C   UNL     1      -4.028  -0.714  -0.439  0.00  0.00    +0.000 C 
ENDROOT
BRANCH   1   2
ATOM      2  C   UNL     1      -5.474  -0.259  -0.469  0.00  0.00    +0.000 C 
ATOM      3  C   UNL     1      -6.007   0.442   0.733  0.00  0.00    +0.000 C 
ATOM      4  C   UNL     1      -6.865   1.480   0.674  0.00  0.00    +0.000 C 
ATOM      5  C   UNL     1      -7.379   1.935  -0.603  0.00  0.00    +0.000 C 
ATOM      6  C   UNL     1      -7.027   1.312  -1.742  0.00  0.00    +0.000 C 
ATOM      7  C   UNL     1      -6.066   0.193  -1.800  0.00  0.00    +0.000 C 
ATOM      8  S   UNL     1      -6.604  -1.345  -1.236  0.00  0.00    +0.000 S 
ENDBRANCH   1   2
BRANCH   1   9
ATOM      9  C   UNL     1      -3.058   0.475  -0.374  0.00  0.00    +0.000 C 
BRANCH   9  13
ATOM     10  C   UNL     1       1.199  -0.294  -0.255  0.00  0.00    +0.000 A 
ATOM     11  C   UNL     1       0.321  -1.362  -0.419  0.00  0.00    +0.000 A 
ATOM     12  C   UNL     1      -1.059  -1.141  -0.459  0.00  0.00    +0.000 A 
ATOM     13  C   UNL     1      -1.579   0.154  -0.333  0.00  0.00    +0.000 A 
ATOM     14  C   UNL     1      -0.678   1.220  -0.172  0.00  0.00    +0.000 A 
ATOM     15  C   UNL     1       0.699   0.999  -0.132  0.00  0.00    +0.000 A 
ENDBRANCH   9  13
ENDBRANCH   1   9
TORSDOF 3
