REMARK  Name = *****
REMARK  3 active torsions:
REMARK  status: ('A' for Active; 'I' for Inactive)
REMARK    1  A    between atoms: C_4  and  C_7
REMARK    2  A    between atoms: C_7  and  C_8
REMARK    3  A    between atoms: C_9  and  C_10
REMARK                            x       y       z     vdW  Elec       q    Type
REMARK                         _______ _______ _______ _____ _____    ______ ____
ROOT
ATOM      1  C   UNL     1      -2.846   0.391  -0.118  0.00  0.00    +0.000 C 
ENDROOT
BRANCH   1   5
ATOM      2  C   UNL     1       1.393  -0.347   0.247  0.00  0.00    +0.000 A 
ATOM      3  C   UNL     1       0.896   0.328  -0.866  0.00  0.00    +0.000 A 
ATOM      4  C   UNL     1      -0.475   0.564  -0.988  0.00  0.00    +0.000 A 
ATOM      5  C   UNL     1      -1.363   0.128   0.006  0.00  0.00    +0.000 A 
ATOM      6  C   UNL     1      -0.849  -0.549   1.123  0.00  0.00    +0.000 A 
ATOM      7  C   UNL     1       0.521  -0.787   1.240  0.00  0.00    +0.000 A 
ENDBRANCH   1   5
BRANCH   1   8
ATOM      8  C   UNL     1      -3.648  -0.868  -0.291  0.00  0.00    +0.000 C 
ATOM      9  C   UNL     1      -4.628  -1.247   0.544  0.00  0.00    +0.000 C 
BRANCH   9  10
ATOM     10  C   UNL     1      -5.355  -2.451   0.335  0.00  0.00    +0.000 A 
ATOM     11  C   UNL     1      -6.386  -2.982   1.103  0.00  0.00    +0.000 A 
ATOM     12  C   UNL     1      -6.797  -4.197   0.506  0.00  0.00    +0.000 A 
ATOM     13  C   UNL     1      -6.003  -4.356  -0.599  0.00  0.00    +0.000 A 
ATOM     14  O   UNL     1      -5.138  -3.320  -0.714  0.00  0.00    +0.000 OA
ENDBRANCH   9  10
ENDBRANCH   1   8
TORSDOF 3
