REMARK  Name = *****
REMARK  4 active torsions:
REMARK  status: ('A' for Active; 'I' for Inactive)
REMARK    1  A    between atoms: C_4  and  C_7
REMARK    2  A    between atoms: C_7  and  C_9
REMARK    3  A    between atoms: C_10  and  C_11
REMARK    4  A    between atoms: C_10  and  S_16
REMARK                            x       y       z     vdW  Elec       q    Type
REMARK                         _______ _______ _______ _____ _____    ______ ____
ROOT
ATOM      1  C   UNL     1      -3.829  -0.562  -0.281  0.00  0.00    +0.000 C 
ATOM      2  C   UNL     1      -5.149  -0.437  -0.515  0.00  0.00    +0.000 C 
ENDROOT
BRANCH   2   3
ATOM      3  C   UNL     1      -5.938  -1.630  -0.597  0.00  0.00    +0.000 A 
ATOM      4  C   UNL     1      -6.657  -2.123  -1.676  0.00  0.00    +0.000 A 
ATOM      5  C   UNL     1      -7.337  -3.341  -1.387  0.00  0.00    +0.000 A 
ATOM      6  C   UNL     1      -7.131  -3.748  -0.090  0.00  0.00    +0.000 A 
ATOM      7  S   UNL     1      -6.125  -2.669   0.770  0.00  0.00    +0.000 S 
ENDBRANCH   2   3
BRANCH   1   8
ATOM      8  C   UNL     1      -2.840   0.547  -0.173  0.00  0.00    +0.000 C 
ATOM      9  O   UNL     1      -3.061   1.672  -0.607  0.00  0.00    +0.000 OA
BRANCH   8  13
ATOM     10  C   UNL     1       1.014  -0.270   1.513  0.00  0.00    +0.000 A 
ATOM     11  C   UNL     1      -0.092  -0.991   1.961  0.00  0.00    +0.000 A 
ATOM     12  C   UNL     1      -1.358  -0.739   1.426  0.00  0.00    +0.000 A 
ATOM     13  C   UNL     1      -1.517   0.234   0.430  0.00  0.00    +0.000 A 
ATOM     14  C   UNL     1      -0.404   0.969  -0.001  0.00  0.00    +0.000 A 
ATOM     15  C   UNL     1       0.859   0.712   0.536  0.00  0.00    +0.000 A 
ENDBRANCH   8  13
ENDBRANCH   1   8
BRANCH   2  16
ATOM     16  S   UNL     1      -5.997   1.065  -0.736  0.00  0.00    +0.000 S 
ATOM     17  H   UNL     1      -5.122   2.100  -0.632  0.00  0.00    +0.000 HD
ENDBRANCH   2  16
TORSDOF 4
