REMARK  Name = *****
REMARK  3 active torsions:
REMARK  status: ('A' for Active; 'I' for Inactive)
REMARK    1  A    between atoms: C_1  and  N_2
REMARK    2  A    between atoms: N_2  and  C_11
REMARK    3  A    between atoms: N_4  and  C_5
REMARK                            x       y       z     vdW  Elec       q    Type
REMARK                         _______ _______ _______ _____ _____    ______ ____
ROOT
ATOM      1  C   UNL     1       1.023   0.021  -0.085  0.00  0.00    +0.000 C 
ATOM      2  N   UNL     1       2.453   0.022   0.217  0.00  0.00    +0.000 N 
ATOM      3  C   UNL     1       3.001   1.121   0.849  0.00  0.00    +0.000 C 
ATOM      4  N   UNL     1       2.351   2.129   1.341  0.00  0.00    +0.000 NA
ENDROOT
BRANCH   2   5
ATOM      5  C   UNL     1       3.234  -1.021  -0.329  0.00  0.00    +0.000 A 
ATOM      6  C   UNL     1       2.871  -1.689  -1.513  0.00  0.00    +0.000 A 
ATOM      7  C   UNL     1       3.657  -2.718  -2.048  0.00  0.00    +0.000 A 
ATOM      8  C   UNL     1       4.826  -3.103  -1.403  0.00  0.00    +0.000 A 
ATOM      9  C   UNL     1       5.213  -2.468  -0.229  0.00  0.00    +0.000 A 
ATOM     10  C   UNL     1       4.423  -1.439   0.299  0.00  0.00    +0.000 A 
ATOM     11 CL   UNL     1       5.792  -4.366  -2.056  0.00  0.00    +0.000 Cl
ENDBRANCH   2   5
BRANCH   4  12
ATOM     12  C   UNL     1       3.134   3.136   1.921  0.00  0.00    +0.000 A 
ATOM     13  C   UNL     1       3.703   4.140   1.133  0.00  0.00    +0.000 A 
ATOM     14  C   UNL     1       4.473   5.147   1.718  0.00  0.00    +0.000 A 
ATOM     15  C   UNL     1       4.668   5.161   3.099  0.00  0.00    +0.000 A 
ATOM     16  C   UNL     1       4.089   4.173   3.894  0.00  0.00    +0.000 A 
ATOM     17  C   UNL     1       3.321   3.166   3.305  0.00  0.00    +0.000 A 
ENDBRANCH   4  12
TORSDOF 2
