REMARK  Name = *****
REMARK  4 active torsions:
REMARK  status: ('A' for Active; 'I' for Inactive)
REMARK    1  A    between atoms: C_4  and  S_7
REMARK    2  A    between atoms: S_7  and  C_8
REMARK    3  A    between atoms: C_8  and  C_9
REMARK    4  A    between atoms: C_8  and  C_14
REMARK                            x       y       z     vdW  Elec       q    Type
REMARK                         _______ _______ _______ _____ _____    ______ ____
ROOT
ATOM      1  C   UNL     1      -3.930  -1.057  -0.235  0.00  0.00    +0.000 C 
ENDROOT
BRANCH   1   2
ATOM      2  C   UNL     1      -3.788  -1.607   1.148  0.00  0.00    +0.000 A 
ATOM      3  C   UNL     1      -4.235  -1.213   2.395  0.00  0.00    +0.000 A 
ATOM      4  C   UNL     1      -3.749  -2.170   3.317  0.00  0.00    +0.000 A 
ATOM      5  C   UNL     1      -3.039  -3.087   2.579  0.00  0.00    +0.000 A 
ATOM      6  O   UNL     1      -3.060  -2.757   1.263  0.00  0.00    +0.000 OA
ENDBRANCH   1   2
BRANCH   1   7
ATOM      7  C   UNL     1      -5.395  -1.032  -0.675  0.00  0.00    +0.000 C 
ATOM      8  F   UNL     1      -5.518  -0.598  -1.955  0.00  0.00    +0.000 F 
ATOM      9  F   UNL     1      -5.944  -2.272  -0.641  0.00  0.00    +0.000 F 
ATOM     10  F   UNL     1      -6.166  -0.231   0.097  0.00  0.00    +0.000 F 
ENDBRANCH   1   7
BRANCH   1  11
ATOM     11  S   UNL     1      -3.169   0.632  -0.336  0.00  0.00    +0.000 S 
BRANCH  11  15
ATOM     12  C   UNL     1       1.249  -0.406   0.293  0.00  0.00    +0.000 A 
ATOM     13  C   UNL     1       0.607  -0.804  -0.878  0.00  0.00    +0.000 A 
ATOM     14  C   UNL     1      -0.740  -0.491  -1.078  0.00  0.00    +0.000 A 
ATOM     15  C   UNL     1      -1.451   0.214  -0.102  0.00  0.00    +0.000 A 
ATOM     16  C   UNL     1      -0.797   0.622   1.064  0.00  0.00    +0.000 A 
ATOM     17  C   UNL     1       0.549   0.309   1.263  0.00  0.00    +0.000 A 
ENDBRANCH  11  15
ENDBRANCH   1  11
TORSDOF 4
