REMARK  Name = *****
REMARK  2 active torsions:
REMARK  status: ('A' for Active; 'I' for Inactive)
REMARK    1  A    between atoms: C_4  and  C_7
REMARK    2  A    between atoms: C_8  and  C_9
REMARK                            x       y       z     vdW  Elec       q    Type
REMARK                         _______ _______ _______ _____ _____    ______ ____
ROOT
ATOM      1  C   UNL     1      -5.168  -0.282  -0.563  0.00  0.00    +0.000 A 
ATOM      2  C   UNL     1      -5.672   0.819  -1.270  0.00  0.00    +0.000 A 
ATOM      3  C   UNL     1      -7.048   0.972  -1.442  0.00  0.00    +0.000 A 
ATOM      4  C   UNL     1      -7.938   0.036  -0.932  0.00  0.00    +0.000 A 
ATOM      5  C   UNL     1      -7.454  -1.066  -0.248  0.00  0.00    +0.000 A 
ATOM      6  C   UNL     1      -6.082  -1.228  -0.069  0.00  0.00    +0.000 A 
ATOM      7  F   UNL     1      -5.638  -2.310   0.590  0.00  0.00    +0.000 F 
ATOM      8  F   UNL     1      -8.304  -1.981   0.239  0.00  0.00    +0.000 F 
ATOM      9  F   UNL     1      -9.257   0.196  -1.108  0.00  0.00    +0.000 F 
ATOM     10  F   UNL     1      -7.506   2.035  -2.116  0.00  0.00    +0.000 F 
ENDROOT
BRANCH   1  12
ATOM     11  C   UNL     1      -2.792   0.458  -0.337  0.00  0.00    +0.000 C 
ATOM     12  C   UNL     1      -3.724  -0.509  -0.374  0.00  0.00    +0.000 C 
BRANCH  11  16
ATOM     13  C   UNL     1       1.399  -0.176   0.255  0.00  0.00    +0.000 A 
ATOM     14  C   UNL     1       0.667  -1.091  -0.498  0.00  0.00    +0.000 A 
ATOM     15  C   UNL     1      -0.703  -0.900  -0.694  0.00  0.00    +0.000 A 
ATOM     16  C   UNL     1      -1.358   0.201  -0.128  0.00  0.00    +0.000 A 
ATOM     17  C   UNL     1      -0.607   1.123   0.614  0.00  0.00    +0.000 A 
ATOM     18  C   UNL     1       0.763   0.932   0.810  0.00  0.00    +0.000 A 
ENDBRANCH  11  16
ENDBRANCH   1  12
TORSDOF 2
