REMARK  Name = *****
REMARK  4 active torsions:
REMARK  status: ('A' for Active; 'I' for Inactive)
REMARK    1  A    between atoms: C_1  and  C_2
REMARK    2  A    between atoms: C_5  and  C_8
REMARK    3  A    between atoms: C_8  and  C_9
REMARK    4  A    between atoms: C_10  and  C_11
REMARK                            x       y       z     vdW  Elec       q    Type
REMARK                         _______ _______ _______ _____ _____    ______ ____
ROOT
ATOM      1  C   UNL     1      -3.273   0.032   0.135  0.00  0.00    +0.000 C 
ENDROOT
BRANCH   1   6
ATOM      2  C   UNL     1       2.540   0.233  -0.216  0.00  0.00    +0.000 C 
ATOM      3  C   UNL     1       1.046   0.146  -0.120  0.00  0.00    +0.000 A 
ATOM      4  C   UNL     1       0.404   0.295   1.114  0.00  0.00    +0.000 A 
ATOM      5  C   UNL     1      -0.990   0.248   1.198  0.00  0.00    +0.000 A 
ATOM      6  C   UNL     1      -1.766   0.059   0.047  0.00  0.00    +0.000 A 
ATOM      7  C   UNL     1      -1.122  -0.068  -1.191  0.00  0.00    +0.000 A 
ATOM      8  C   UNL     1       0.271  -0.022  -1.273  0.00  0.00    +0.000 A 
ENDBRANCH   1   6
BRANCH   1   9
ATOM      9  C   UNL     1      -3.982   1.359   0.035  0.00  0.00    +0.000 C 
ATOM     10  C   UNL     1      -3.422   2.566  -0.159  0.00  0.00    +0.000 C 
BRANCH  10  11
ATOM     11  C   UNL     1      -4.186   3.770  -0.237  0.00  0.00    +0.000 A 
ATOM     12  C   UNL     1      -5.547   4.003  -0.101  0.00  0.00    +0.000 A 
ATOM     13  C   UNL     1      -5.905   5.375  -0.253  0.00  0.00    +0.000 A 
ATOM     14  C   UNL     1      -4.809   6.165  -0.501  0.00  0.00    +0.000 A 
ATOM     15  S   UNL     1      -3.365   5.258  -0.549  0.00  0.00    +0.000 S 
ENDBRANCH  10  11
ENDBRANCH   1   9
TORSDOF 3
