REMARK  Name = *****
REMARK  4 active torsions:
REMARK  status: ('A' for Active; 'I' for Inactive)
REMARK    1  A    between atoms: C_1  and  C_2
REMARK    2  A    between atoms: C_5  and  C_8
REMARK    3  A    between atoms: C_8  and  C_9
REMARK    4  A    between atoms: C_9  and  C_11
REMARK                            x       y       z     vdW  Elec       q    Type
REMARK                         _______ _______ _______ _____ _____    ______ ____
ROOT
ATOM      1  C   UNL     1      -3.263   0.024   0.354  0.00  0.00    +0.000 C 
ENDROOT
BRANCH   1   6
ATOM      2  C   UNL     1       2.500   0.193  -0.496  0.00  0.00    +0.000 C 
ATOM      3  C   UNL     1       1.017   0.118  -0.287  0.00  0.00    +0.000 A 
ATOM      4  C   UNL     1       0.494  -0.199   0.971  0.00  0.00    +0.000 A 
ATOM      5  C   UNL     1      -0.887  -0.232   1.177  0.00  0.00    +0.000 A 
ATOM      6  C   UNL     1      -1.771   0.057   0.129  0.00  0.00    +0.000 A 
ATOM      7  C   UNL     1      -1.246   0.401  -1.123  0.00  0.00    +0.000 A 
ATOM      8  C   UNL     1       0.136   0.433  -1.328  0.00  0.00    +0.000 A 
ENDBRANCH   1   6
BRANCH   1   9
ATOM      9  C   UNL     1      -3.849   1.335   0.852  0.00  0.00    +0.000 C 
ATOM     10  O   UNL     1      -3.200   2.180   1.468  0.00  0.00    +0.000 OA
BRANCH   9  11
ATOM     11  C   UNL     1      -5.305   1.575   0.587  0.00  0.00    +0.000 C 
ATOM     12  C   UNL     1      -5.669   2.802   0.174  0.00  0.00    +0.000 C 
ATOM     13  C   UNL     1      -7.097   3.195  -0.066  0.00  0.00    +0.000 C 
ATOM     14  C   UNL     1      -8.099   2.196   0.517  0.00  0.00    +0.000 C 
ATOM     15  C   UNL     1      -7.671   0.757   0.243  0.00  0.00    +0.000 C 
ATOM     16  C   UNL     1      -6.286   0.463   0.827  0.00  0.00    +0.000 C 
ENDBRANCH   9  11
ENDBRANCH   1   9
TORSDOF 3
