REMARK  Name = *****
REMARK  2 active torsions:
REMARK  status: ('A' for Active; 'I' for Inactive)
REMARK    1  A    between atoms: C_4  and  S_7
REMARK    2  A    between atoms: S_7  and  C_8
REMARK                            x       y       z     vdW  Elec       q    Type
REMARK                         _______ _______ _______ _____ _____    ______ ____
ROOT
ATOM      1  C   UNL     1      -4.483  -1.330  -0.792  0.00  0.00    +0.000 C 
ATOM      2  C   UNL     1      -4.576  -2.830  -0.835  0.00  0.00    +0.000 A 
ATOM      3  C   UNL     1      -3.497  -3.715  -0.830  0.00  0.00    +0.000 A 
ATOM      4  C   UNL     1      -3.736  -5.092  -0.889  0.00  0.00    +0.000 A 
ATOM      5  C   UNL     1      -5.045  -5.586  -0.960  0.00  0.00    +0.000 A 
ATOM      6  C   UNL     1      -6.127  -4.707  -0.976  0.00  0.00    +0.000 A 
ATOM      7  C   UNL     1      -5.872  -3.341  -0.916  0.00  0.00    +0.000 A 
ATOM      8  C   UNL     1      -6.909  -2.309  -0.949  0.00  0.00    +0.000 C 
ATOM      9  O   UNL     1      -8.105  -2.529  -1.024  0.00  0.00    +0.000 OA
ATOM     10  S   UNL     1      -6.205  -0.705  -0.892  0.00  0.00    +0.000 S 
ENDROOT
BRANCH   1  11
ATOM     11  S   UNL     1      -3.680  -0.747   0.743  0.00  0.00    +0.000 S 
BRANCH  11  15
ATOM     12  C   UNL     1      -2.529   3.494  -0.544  0.00  0.00    +0.000 A 
ATOM     13  C   UNL     1      -3.639   3.288   0.273  0.00  0.00    +0.000 A 
ATOM     14  C   UNL     1      -3.987   1.994   0.665  0.00  0.00    +0.000 A 
ATOM     15  C   UNL     1      -3.231   0.900   0.234  0.00  0.00    +0.000 A 
ATOM     16  C   UNL     1      -2.110   1.114  -0.575  0.00  0.00    +0.000 A 
ATOM     17  C   UNL     1      -1.763   2.408  -0.966  0.00  0.00    +0.000 A 
ENDBRANCH  11  15
ENDBRANCH   1  11
TORSDOF 2
