REMARK  Name = *****
REMARK  3 active torsions:
REMARK  status: ('A' for Active; 'I' for Inactive)
REMARK    1  A    between atoms: C_4  and  S_7
REMARK    2  A    between atoms: S_7  and  C_8
REMARK    3  A    between atoms: C_9  and  C_10
REMARK                            x       y       z     vdW  Elec       q    Type
REMARK                         _______ _______ _______ _____ _____    ______ ____
ROOT
ATOM      1  C   UNL     1      -3.777  -0.501  -0.238  0.00  0.00    +0.000 C 
ATOM      2  C   UNL     1      -5.111  -0.645  -0.202  0.00  0.00    +0.000 C 
ENDROOT
BRANCH   2   3
ATOM      3  C   UNL     1      -6.124   0.373  -0.504  0.00  0.00    +0.000 A 
ATOM      4  C   UNL     1      -6.266   0.893  -1.798  0.00  0.00    +0.000 A 
ATOM      5  C   UNL     1      -7.251   1.844  -2.069  0.00  0.00    +0.000 A 
ATOM      6  C   UNL     1      -8.095   2.266  -1.049  0.00  0.00    +0.000 A 
ATOM      7  C   UNL     1      -7.974   1.754   0.238  0.00  0.00    +0.000 A 
ATOM      8  C   UNL     1      -6.989   0.803   0.511  0.00  0.00    +0.000 A 
ATOM      9  F   UNL     1      -9.042   3.178  -1.309  0.00  0.00    +0.000 F 
ENDBRANCH   2   3
BRANCH   1  10
ATOM     10  S   UNL     1      -2.949   0.969  -0.635  0.00  0.00    +0.000 S 
BRANCH  10  14
ATOM     11  C   UNL     1       1.372  -0.546  -0.512  0.00  0.00    +0.000 A 
ATOM     12  C   UNL     1       0.610  -0.708  -1.669  0.00  0.00    +0.000 A 
ATOM     13  C   UNL     1      -0.707  -0.246  -1.708  0.00  0.00    +0.000 A 
ATOM     14  C   UNL     1      -1.269   0.374  -0.588  0.00  0.00    +0.000 A 
ATOM     15  C   UNL     1      -0.499   0.540   0.567  0.00  0.00    +0.000 A 
ATOM     16  C   UNL     1       0.819   0.079   0.605  0.00  0.00    +0.000 A 
ENDBRANCH  10  14
ENDBRANCH   1  10
TORSDOF 3
