REMARK  Name = *****
REMARK  2 active torsions:
REMARK  status: ('A' for Active; 'I' for Inactive)
REMARK    1  A    between atoms: C_5  and  C_6
REMARK    2  A    between atoms: C_7  and  C_8
REMARK                            x       y       z     vdW  Elec       q    Type
REMARK                         _______ _______ _______ _____ _____    ______ ____
ROOT
ATOM      1  C   UNL     1       5.067  -1.881  -0.001  0.00  0.00    +0.000 A 
ATOM      2  C   UNL     1       6.251  -1.355  -0.541  0.00  0.00    +0.000 A 
ATOM      3  C   UNL     1       7.425  -2.104  -0.585  0.00  0.00    +0.000 A 
ATOM      4  C   UNL     1       7.445  -3.392  -0.077  0.00  0.00    +0.000 A 
ATOM      5  C   UNL     1       6.295  -3.930   0.480  0.00  0.00    +0.000 A 
ATOM      6  C   UNL     1       5.120  -3.181   0.524  0.00  0.00    +0.000 A 
ATOM      7  F   UNL     1       4.037  -3.729   1.096  0.00  0.00    +0.000 F 
ATOM      8  F   UNL     1       6.313  -5.171   0.984  0.00  0.00    +0.000 F 
ATOM      9  F   UNL     1       8.573  -4.114  -0.116  0.00  0.00    +0.000 F 
ATOM     10  F   UNL     1       8.536  -1.574  -1.115  0.00  0.00    +0.000 F 
ATOM     11  F   UNL     1       6.264  -0.106  -1.035  0.00  0.00    +0.000 F 
ENDROOT
BRANCH   1  13
ATOM     12  C   UNL     1       2.597  -1.469  -0.028  0.00  0.00    +0.000 C 
ATOM     13  C   UNL     1       3.865  -1.027   0.039  0.00  0.00    +0.000 C 
BRANCH  12  18
ATOM     14  C   UNL     1       1.357   0.778   0.034  0.00  0.00    +0.000 A 
ATOM     15  C   UNL     1       0.061   1.248   0.042  0.00  0.00    +0.000 A 
ATOM     16  S   UNL     1      -1.083  -0.020  -0.001  0.00  0.00    +0.000 S 
ATOM     17  C   UNL     1       0.154  -1.203  -0.030  0.00  0.00    +0.000 A 
ATOM     18  C   UNL     1       1.419  -0.650  -0.008  0.00  0.00    +0.000 A 
ENDBRANCH  12  18
ENDBRANCH   1  13
TORSDOF 2
