REMARK  Name = *****
REMARK  3 active torsions:
REMARK  status: ('A' for Active; 'I' for Inactive)
REMARK    1  A    between atoms: C_3  and  C_9
REMARK    2  A    between atoms: C_9  and  O_11
REMARK    3  A    between atoms: O_11  and  C_12
REMARK                            x       y       z     vdW  Elec       q    Type
REMARK                         _______ _______ _______ _____ _____    ______ ____
ROOT
ATOM      1  C   UNL     1      -2.501  -0.349  -0.802  0.00  0.00    +0.000 C 
ATOM      2  O   UNL     1      -3.332   0.543  -0.914  0.00  0.00    +0.000 OA
ENDROOT
BRANCH   1   5
ATOM      3  C   UNL     1       0.731   1.611   0.105  0.00  0.00    +0.000 C 
ATOM      4  C   UNL     1      -0.711   1.379  -0.364  0.00  0.00    +0.000 C 
ATOM      5  C   UNL     1      -1.055  -0.131  -0.357  0.00  0.00    +0.000 C 
ATOM      6  C   UNL     1      -0.854  -0.660   1.079  0.00  0.00    +0.000 C 
ATOM      7  C   UNL     1       0.591  -0.427   1.541  0.00  0.00    +0.000 C 
ATOM      8  C   UNL     1       1.403   0.272   0.438  0.00  0.00    +0.000 C 
ATOM      9  C   UNL     1       1.389  -0.607  -0.822  0.00  0.00    +0.000 C 
ATOM     10  C   UNL     1      -0.052  -0.846  -1.292  0.00  0.00    +0.000 C 
ENDBRANCH   1   5
BRANCH   1  11
ATOM     11  O   UNL     1      -2.729  -1.709  -1.010  0.00  0.00    +0.000 OA
BRANCH  11  12
ATOM     12  C   UNL     1      -4.002  -2.104  -1.448  0.00  0.00    +0.000 A 
ATOM     13  C   UNL     1      -4.594  -1.554  -2.584  0.00  0.00    +0.000 A 
ATOM     14  C   UNL     1      -5.836  -2.030  -3.005  0.00  0.00    +0.000 A 
ATOM     15  C   UNL     1      -6.464  -3.061  -2.303  0.00  0.00    +0.000 A 
ATOM     16  C   UNL     1      -5.851  -3.622  -1.181  0.00  0.00    +0.000 A 
ATOM     17  C   UNL     1      -4.612  -3.148  -0.754  0.00  0.00    +0.000 A 
ENDBRANCH  11  12
ENDBRANCH   1  11
TORSDOF 3
