REMARK  Name = *****
REMARK  3 active torsions:
REMARK  status: ('A' for Active; 'I' for Inactive)
REMARK    1  A    between atoms: C_1  and  C_2
REMARK    2  A    between atoms: C_3  and  C_11
REMARK    3  A    between atoms: N_4  and  C_5
REMARK                            x       y       z     vdW  Elec       q    Type
REMARK                         _______ _______ _______ _____ _____    ______ ____
ROOT
ATOM      1  C   UNL     1       0.603  -0.067   0.015  0.00  0.00    +0.000 C 
ATOM      2  C   UNL     1       2.043  -0.321  -0.264  0.00  0.00    +0.000 C 
ATOM      3  C   UNL     1       2.909   0.772  -0.837  0.00  0.00    +0.000 C 
ATOM      4  N   UNL     1       2.484  -0.386  -1.655  0.00  0.00    +0.000 N 
ENDROOT
BRANCH   4   5
ATOM      5  C   UNL     1       3.378  -1.402  -2.078  0.00  0.00    +0.000 A 
ATOM      6  C   UNL     1       4.293  -2.088  -1.268  0.00  0.00    +0.000 A 
ATOM      7  C   UNL     1       5.124  -3.082  -1.798  0.00  0.00    +0.000 A 
ATOM      8  C   UNL     1       5.048  -3.413  -3.148  0.00  0.00    +0.000 A 
ATOM      9  C   UNL     1       4.142  -2.751  -3.969  0.00  0.00    +0.000 A 
ATOM     10  C   UNL     1       3.316  -1.759  -3.435  0.00  0.00    +0.000 A 
ENDBRANCH   4   5
BRANCH   3  11
ATOM     11  C   UNL     1       4.327   0.987  -0.374  0.00  0.00    +0.000 A 
ATOM     12  C   UNL     1       4.656   1.039   0.993  0.00  0.00    +0.000 A 
ATOM     13  C   UNL     1       5.967   1.264   1.421  0.00  0.00    +0.000 A 
ATOM     14  C   UNL     1       6.981   1.454   0.487  0.00  0.00    +0.000 A 
ATOM     15  C   UNL     1       6.683   1.424  -0.872  0.00  0.00    +0.000 A 
ATOM     16  C   UNL     1       5.370   1.201  -1.293  0.00  0.00    +0.000 A 
ENDBRANCH   3  11
TORSDOF 2
