REMARK  Name = *****
REMARK  3 active torsions:
REMARK  status: ('A' for Active; 'I' for Inactive)
REMARK    1  A    between atoms: C_5  and  C_6
REMARK    2  A    between atoms: C_6  and  C_7
REMARK    3  A    between atoms: C_7  and  C_8
REMARK                            x       y       z     vdW  Elec       q    Type
REMARK                         _______ _______ _______ _____ _____    ______ ____
ROOT
ATOM      1  C   UNL     1      -2.508  -2.596  -0.009  0.00  0.00    +0.000 C 
ENDROOT
BRANCH   1   2
ATOM      2  C   UNL     1      -3.938  -3.073   0.068  0.00  0.00    +0.000 A 
ATOM      3  C   UNL     1      -4.688  -3.262  -1.101  0.00  0.00    +0.000 A 
ATOM      4  C   UNL     1      -6.016  -3.685  -1.028  0.00  0.00    +0.000 A 
ATOM      5  C   UNL     1      -6.608  -3.917   0.212  0.00  0.00    +0.000 A 
ATOM      6  C   UNL     1      -5.873  -3.725   1.380  0.00  0.00    +0.000 A 
ATOM      7  C   UNL     1      -4.545  -3.302   1.310  0.00  0.00    +0.000 A 
ENDBRANCH   1   2
BRANCH   1   8
ATOM      8  C   UNL     1      -2.420  -1.065  -0.013  0.00  0.00    +0.000 C 
BRANCH   8  13
ATOM      9  C   UNL     1      -0.819   0.988  -0.115  0.00  0.00    +0.000 C 
ATOM     10  C   UNL     1       0.676   1.085  -0.206  0.00  0.00    +0.000 C 
ATOM     11  C   UNL     1       1.209  -0.145  -0.234  0.00  0.00    +0.000 C 
ATOM     12  C   UNL     1       0.155  -1.126  -0.167  0.00  0.00    +0.000 C 
ATOM     13  C   UNL     1      -1.035  -0.505  -0.097  0.00  0.00    +0.000 C 
ENDBRANCH   8  13
ENDBRANCH   1   8
TORSDOF 3
