REMARK  Name = *****
REMARK  4 active torsions:
REMARK  status: ('A' for Active; 'I' for Inactive)
REMARK    1  A    between atoms: C_1  and  C_2
REMARK    2  A    between atoms: C_2  and  C_12
REMARK    3  A    between atoms: C_3  and  C_5
REMARK    4  A    between atoms: C_3  and  C_6
REMARK                            x       y       z     vdW  Elec       q    Type
REMARK                         _______ _______ _______ _____ _____    ______ ____
ROOT
ATOM      1  C   UNL     1       0.886   0.121  -0.192  0.00  0.00    +0.000 C 
ATOM      2  C   UNL     1       2.359   0.363   0.006  0.00  0.00    +0.000 C 
ATOM      3  C   UNL     1       3.176   1.143  -1.052  0.00  0.00    +0.000 C 
ATOM      4  O   UNL     1       3.165  -0.293  -0.987  0.00  0.00    +0.000 OA
ATOM      5  C   UNL     1       2.510   1.673  -2.294  0.00  0.00    +0.000 C 
ENDROOT
BRANCH   3   6
ATOM      6  C   UNL     1       4.461   1.851  -0.654  0.00  0.00    +0.000 A 
ATOM      7  C   UNL     1       5.720   1.260  -0.854  0.00  0.00    +0.000 A 
ATOM      8  C   UNL     1       6.901   1.917  -0.497  0.00  0.00    +0.000 A 
ATOM      9  C   UNL     1       6.847   3.188   0.065  0.00  0.00    +0.000 A 
ATOM     10  C   UNL     1       5.614   3.801   0.270  0.00  0.00    +0.000 A 
ATOM     11  C   UNL     1       4.437   3.139  -0.089  0.00  0.00    +0.000 A 
ENDBRANCH   3   6
BRANCH   2  12
ATOM     12  C   UNL     1       2.837   0.304   1.448  0.00  0.00    +0.000 A 
ATOM     13  C   UNL     1       3.579  -0.787   1.935  0.00  0.00    +0.000 A 
ATOM     14  C   UNL     1       4.009  -0.844   3.263  0.00  0.00    +0.000 A 
ATOM     15  C   UNL     1       3.699   0.192   4.139  0.00  0.00    +0.000 A 
ATOM     16  C   UNL     1       2.961   1.281   3.687  0.00  0.00    +0.000 A 
ATOM     17  C   UNL     1       2.534   1.333   2.357  0.00  0.00    +0.000 A 
ENDBRANCH   2  12
TORSDOF 2
