REMARK  Name = *****
REMARK  4 active torsions:
REMARK  status: ('A' for Active; 'I' for Inactive)
REMARK    1  A    between atoms: C_4  and  S_7
REMARK    2  A    between atoms: S_7  and  N_8
REMARK    3  A    between atoms: N_8  and  C_9
REMARK    4  A    between atoms: C_12  and  C_15
REMARK                            x       y       z     vdW  Elec       q    Type
REMARK                         _______ _______ _______ _____ _____    ______ ____
ROOT
ATOM      1  C   UNL     1      -5.593  -0.395  -0.495  0.00  0.00    +0.000 A 
ATOM      2  C   UNL     1      -5.895  -1.754  -0.676  0.00  0.00    +0.000 A 
ATOM      3  C   UNL     1      -7.130  -2.164  -1.194  0.00  0.00    +0.000 A 
ATOM      4  C   UNL     1      -8.108  -1.220  -1.529  0.00  0.00    +0.000 A 
ATOM      5  C   UNL     1      -7.832   0.135  -1.311  0.00  0.00    +0.000 A 
ATOM      6  C   UNL     1      -6.595   0.538  -0.792  0.00  0.00    +0.000 A 
ENDROOT
BRANCH   4   7
ATOM      7  C   UNL     1      -9.450  -1.657  -2.061  0.00  0.00    +0.000 C 
ATOM      8  F   UNL     1      -9.385  -2.804  -2.795  0.00  0.00    +0.000 F 
ATOM      9  F   UNL     1     -10.347  -1.902  -1.066  0.00  0.00    +0.000 F 
ATOM     10  F   UNL     1     -10.034  -0.731  -2.872  0.00  0.00    +0.000 F 
ENDBRANCH   4   7
BRANCH   1  11
ATOM     11  N   UNL     1      -4.354  -0.056   0.095  0.00  0.00    +0.000 N 
ATOM     12  H   UNL     1      -3.843  -0.761   0.555  0.00  0.00    +0.000 HD
BRANCH  11  13
ATOM     13  S   UNL     1      -3.719   1.484   0.049  0.00  0.00    +0.000 S 
BRANCH  13  17
ATOM     14  C   UNL     1      -1.028   1.366   3.763  0.00  0.00    +0.000 A 
ATOM     15  C   UNL     1      -2.353   0.944   3.857  0.00  0.00    +0.000 A 
ATOM     16  C   UNL     1      -3.178   0.975   2.731  0.00  0.00    +0.000 A 
ATOM     17  C   UNL     1      -2.681   1.423   1.502  0.00  0.00    +0.000 A 
ATOM     18  C   UNL     1      -1.353   1.853   1.417  0.00  0.00    +0.000 A 
ATOM     19  C   UNL     1      -0.528   1.822   2.544  0.00  0.00    +0.000 A 
ENDBRANCH  13  17
ENDBRANCH  11  13
ENDBRANCH   1  11
TORSDOF 4
