REMARK  Name = *****
REMARK  1 active torsions:
REMARK  status: ('A' for Active; 'I' for Inactive)
REMARK    1  A    between atoms: C_8  and  C_10
REMARK                            x       y       z     vdW  Elec       q    Type
REMARK                         _______ _______ _______ _____ _____    ______ ____
ROOT
ATOM      1  C   UNL     1      -2.334   0.796   0.744  0.00  0.00    +0.000 C 
ATOM      2  C   UNL     1      -2.565  -0.665   0.337  0.00  0.00    +0.000 C 
ATOM      3  C   UNL     1      -1.284  -1.508   0.396  0.00  0.00    +0.000 C 
ATOM      4  C   UNL     1      -0.191  -0.821  -0.409  0.00  0.00    +0.000 C 
ATOM      5  C   UNL     1       0.086   0.575   0.145  0.00  0.00    +0.000 C 
ATOM      6  C   UNL     1      -1.160   1.443  -0.002  0.00  0.00    +0.000 C 
ATOM      7  C   UNL     1       1.317   1.064  -0.610  0.00  0.00    +0.000 C 
ATOM      8  C   UNL     1       2.374  -0.041  -0.437  0.00  0.00    +0.000 C 
ATOM      9  S   UNL     1       1.435  -1.618  -0.380  0.00  0.00    +0.000 S 
ENDROOT
BRANCH   8  10
ATOM     10  C   UNL     1       3.454  -0.028  -1.494  0.00  0.00    +0.000 A 
ATOM     11  C   UNL     1       4.791   0.180  -1.119  0.00  0.00    +0.000 A 
ATOM     12  C   UNL     1       5.806   0.212  -2.078  0.00  0.00    +0.000 A 
ATOM     13  C   UNL     1       5.500   0.037  -3.425  0.00  0.00    +0.000 A 
ATOM     14  C   UNL     1       4.180  -0.173  -3.814  0.00  0.00    +0.000 A 
ATOM     15  C   UNL     1       3.164  -0.205  -2.857  0.00  0.00    +0.000 A 
ENDBRANCH   8  10
TORSDOF 1
