REMARK  Name = *****
REMARK  5 active torsions:
REMARK  status: ('A' for Active; 'I' for Inactive)
REMARK    1  A    between atoms: C_1  and  C_2
REMARK    2  A    between atoms: C_5  and  C_8
REMARK    3  A    between atoms: C_8  and  N_10
REMARK    4  A    between atoms: N_10  and  C_11
REMARK    5  A    between atoms: N_10  and  C_12
REMARK                            x       y       z     vdW  Elec       q    Type
REMARK                         _______ _______ _______ _____ _____    ______ ____
ROOT
ATOM      1  C   UNL     1      -3.389   0.049  -0.041  0.00  0.00    +0.000 C 
ATOM      2  C   UNL     1      -3.976  -1.159   0.040  0.00  0.00    +0.000 C 
ENDROOT
BRANCH   1   7
ATOM      3  C   UNL     1       2.384   0.165   0.627  0.00  0.00    +0.000 C 
ATOM      4  C   UNL     1       0.894   0.107   0.469  0.00  0.00    +0.000 A 
ATOM      5  C   UNL     1       0.318  -0.637  -0.566  0.00  0.00    +0.000 A 
ATOM      6  C   UNL     1      -1.070  -0.661  -0.735  0.00  0.00    +0.000 A 
ATOM      7  C   UNL     1      -1.908   0.067   0.122  0.00  0.00    +0.000 A 
ATOM      8  C   UNL     1      -1.325   0.825   1.146  0.00  0.00    +0.000 A 
ATOM      9  C   UNL     1       0.063   0.850   1.315  0.00  0.00    +0.000 A 
ENDBRANCH   1   7
BRANCH   1  10
ATOM     10  N   UNL     1      -4.060   1.277  -0.157  0.00  0.00    +0.000 N 
ATOM     11  C   UNL     1      -5.523   1.376  -0.077  0.00  0.00    +0.000 C 
BRANCH  10  12
ATOM     12  C   UNL     1      -3.526   2.363  -0.913  0.00  0.00    +0.000 A 
ATOM     13  C   UNL     1      -2.930   2.165  -2.169  0.00  0.00    +0.000 A 
ATOM     14  C   UNL     1      -2.419   3.241  -2.899  0.00  0.00    +0.000 A 
ATOM     15  C   UNL     1      -2.494   4.533  -2.385  0.00  0.00    +0.000 A 
ATOM     16  C   UNL     1      -3.079   4.750  -1.139  0.00  0.00    +0.000 A 
ATOM     17  C   UNL     1      -3.591   3.673  -0.411  0.00  0.00    +0.000 A 
ENDBRANCH  10  12
ENDBRANCH   1  10
TORSDOF 3
