REMARK  Name = *****
REMARK  2 active torsions:
REMARK  status: ('A' for Active; 'I' for Inactive)
REMARK    1  A    between atoms: C_4  and  C_7
REMARK    2  A    between atoms: C_8  and  C_9
REMARK                            x       y       z     vdW  Elec       q    Type
REMARK                         _______ _______ _______ _____ _____    ______ ____
ROOT
ATOM      1  C   UNL     1      -2.786   0.419  -0.348  0.00  0.00    +0.000 C 
ATOM      2  C   UNL     1      -3.732  -0.534  -0.388  0.00  0.00    +0.000 C 
ATOM      3  F   UNL     1      -3.383  -1.825  -0.175  0.00  0.00    +0.000 F 
ENDROOT
BRANCH   2   4
ATOM      4  C   UNL     1      -5.171  -0.279  -0.590  0.00  0.00    +0.000 A 
ATOM      5  C   UNL     1      -5.659   0.834  -1.294  0.00  0.00    +0.000 A 
ATOM      6  C   UNL     1      -7.034   1.020  -1.472  0.00  0.00    +0.000 A 
ATOM      7  C   UNL     1      -7.925   0.090  -0.955  0.00  0.00    +0.000 A 
ATOM      8  C   UNL     1      -7.470  -1.026  -0.266  0.00  0.00    +0.000 A 
ATOM      9  C   UNL     1      -6.096  -1.212  -0.089  0.00  0.00    +0.000 A 
ATOM     10  F   UNL     1      -9.241   0.269  -1.127  0.00  0.00    +0.000 F 
ENDBRANCH   2   4
BRANCH   1  14
ATOM     11  C   UNL     1       1.412  -0.154   0.264  0.00  0.00    +0.000 A 
ATOM     12  C   UNL     1       0.695  -1.085  -0.486  0.00  0.00    +0.000 A 
ATOM     13  C   UNL     1      -0.677  -0.916  -0.686  0.00  0.00    +0.000 A 
ATOM     14  C   UNL     1      -1.351   0.179  -0.128  0.00  0.00    +0.000 A 
ATOM     15  C   UNL     1      -0.615   1.116   0.610  0.00  0.00    +0.000 A 
ATOM     16  C   UNL     1       0.758   0.947   0.810  0.00  0.00    +0.000 A 
ENDBRANCH   1  14
TORSDOF 2
