REMARK  Name = *****
REMARK  5 active torsions:
REMARK  status: ('A' for Active; 'I' for Inactive)
REMARK    1  A    between atoms: C_1  and  S_2
REMARK    2  A    between atoms: S_2  and  N_3
REMARK    3  A    between atoms: S_2  and  C_12
REMARK    4  A    between atoms: N_3  and  S_4
REMARK    5  A    between atoms: S_4  and  C_5
REMARK                            x       y       z     vdW  Elec       q    Type
REMARK                         _______ _______ _______ _____ _____    ______ ____
ROOT
ATOM      1  C   UNL     1       1.177   0.224  -0.269  0.00  0.00    +0.000 C 
ATOM      2  S   UNL     1       2.924  -0.079  -0.310  0.00  0.00    +0.000 S 
ATOM      3  O   UNL     1       3.516   1.070   0.358  0.00  0.00    +0.000 OA
ENDROOT
BRANCH   2   4
ATOM      4  C   UNL     1       3.225  -1.453   0.793  0.00  0.00    +0.000 A 
ATOM      5  C   UNL     1       2.232  -2.389   1.093  0.00  0.00    +0.000 A 
ATOM      6  C   UNL     1       2.520  -3.434   1.973  0.00  0.00    +0.000 A 
ATOM      7  C   UNL     1       3.787  -3.539   2.549  0.00  0.00    +0.000 A 
ATOM      8  C   UNL     1       4.774  -2.601   2.249  0.00  0.00    +0.000 A 
ATOM      9  C   UNL     1       4.495  -1.554   1.370  0.00  0.00    +0.000 A 
ENDBRANCH   2   4
BRANCH   2  10
ATOM     10  N   UNL     1       3.331  -0.547  -1.728  0.00  0.00    +0.000 NA
BRANCH  10  11
ATOM     11  S   UNL     1       2.641  -1.902  -2.504  0.00  0.00    +0.000 S 
BRANCH  11  12
ATOM     12  C   UNL     1       3.851  -1.894  -3.890  0.00  0.00    +0.000 C 
ATOM     13  C   UNL     1       5.284  -2.189  -3.426  0.00  0.00    +0.000 C 
ATOM     14  C   UNL     1       6.244  -2.252  -4.615  0.00  0.00    +0.000 C 
ATOM     15  C   UNL     1       6.170  -0.988  -5.467  0.00  0.00    +0.000 C 
ATOM     16  C   UNL     1       4.744  -0.702  -5.930  0.00  0.00    +0.000 C 
ATOM     17  C   UNL     1       3.772  -0.626  -4.752  0.00  0.00    +0.000 C 
ENDBRANCH  11  12
ENDBRANCH  10  11
ENDBRANCH   2  10
TORSDOF 4
