REMARK  Name = *****
REMARK  1 active torsions:
REMARK  status: ('A' for Active; 'I' for Inactive)
REMARK    1  A    between atoms: C_8  and  C_10
REMARK                            x       y       z     vdW  Elec       q    Type
REMARK                         _______ _______ _______ _____ _____    ______ ____
ROOT
ATOM      1  C   UNL     1       2.201   0.667  -0.077  0.00  0.00    +0.000 A 
ATOM      2  C   UNL     1       2.138  -0.733  -0.078  0.00  0.00    +0.000 A 
ATOM      3  C   UNL     1       0.912  -1.408  -0.029  0.00  0.00    +0.000 A 
ATOM      4  C   UNL     1      -0.217  -0.600   0.022  0.00  0.00    +0.000 A 
ATOM      5  C   UNL     1      -0.199   0.784   0.027  0.00  0.00    +0.000 A 
ATOM      6  C   UNL     1       1.035   1.446  -0.025  0.00  0.00    +0.000 A 
ATOM      7  N   UNL     1      -1.482   1.266   0.078  0.00  0.00    +0.000 NA
ATOM      8  C   UNL     1      -2.227   0.174   0.131  0.00  0.00    +0.000 A 
ATOM      9  O   UNL     1      -1.519  -0.999   0.071  0.00  0.00    +0.000 OA
ENDROOT
BRANCH   8  10
ATOM     10  C   UNL     1      -3.684   0.076   0.137  0.00  0.00    +0.000 A 
ATOM     11  C   UNL     1      -4.412  -0.953   0.761  0.00  0.00    +0.000 A 
ATOM     12  C   UNL     1      -5.814  -0.966   0.704  0.00  0.00    +0.000 A 
ATOM     13  C   UNL     1      -6.505   0.045   0.036  0.00  0.00    +0.000 A 
ATOM     14  C   UNL     1      -5.795   1.076  -0.569  0.00  0.00    +0.000 A 
ATOM     15  C   UNL     1      -4.402   1.097  -0.518  0.00  0.00    +0.000 A 
ATOM     16 CL   UNL     1      -6.641   2.332  -1.384  0.00  0.00    +0.000 Cl
ATOM     17 CL   UNL     1      -3.674  -2.221   1.678  0.00  0.00    +0.000 Cl
ENDBRANCH   8  10
TORSDOF 1
