REMARK  Name = *****
REMARK  2 active torsions:
REMARK  status: ('A' for Active; 'I' for Inactive)
REMARK    1  A    between atoms: P_1  and  C_2
REMARK    2  A    between atoms: P_1  and  C_8
REMARK                            x       y       z     vdW  Elec       q    Type
REMARK                         _______ _______ _______ _____ _____    ______ ____
ROOT
ATOM      1  P   UNL     1       2.644  -0.139   0.366  0.00  0.00    +0.000 P 
ATOM      2  H   UNL     1       3.285  -0.820   1.381  0.00  0.00    +0.000 HD
ENDROOT
BRANCH   1   3
ATOM      3  C   UNL     1       3.115  -0.827  -1.297  0.00  0.00    +0.000 C 
ATOM      4  C   UNL     1       2.532  -2.244  -1.448  0.00  0.00    +0.000 C 
ATOM      5  C   UNL     1       2.923  -2.879  -2.781  0.00  0.00    +0.000 C 
ATOM      6  C   UNL     1       4.435  -2.885  -2.977  0.00  0.00    +0.000 C 
ATOM      7  C   UNL     1       5.022  -1.486  -2.831  0.00  0.00    +0.000 C 
ATOM      8  C   UNL     1       4.637  -0.848  -1.497  0.00  0.00    +0.000 C 
ENDBRANCH   1   3
BRANCH   1   9
ATOM      9  C   UNL     1       3.218   1.631   0.288  0.00  0.00    +0.000 C 
ATOM     10  C   UNL     1       2.899   2.323   1.627  0.00  0.00    +0.000 C 
ATOM     11  C   UNL     1       3.345   3.783   1.630  0.00  0.00    +0.000 C 
ATOM     12  C   UNL     1       2.738   4.556   0.465  0.00  0.00    +0.000 C 
ATOM     13  C   UNL     1       3.041   3.881  -0.868  0.00  0.00    +0.000 C 
ATOM     14  C   UNL     1       2.603   2.416  -0.878  0.00  0.00    +0.000 C 
ENDBRANCH   1   9
TORSDOF 2
