REMARK  Name = *****
REMARK  6 active torsions:
REMARK  status: ('A' for Active; 'I' for Inactive)
REMARK    1  A    between atoms: C_1  and  C_2
REMARK    2  A    between atoms: C_4  and  C_9
REMARK    3  A    between atoms: C_5  and  C_8
REMARK    4  A    between atoms: C_9  and  C_17
REMARK    5  A    between atoms: C_10  and  C_11
REMARK    6  A    between atoms: C_17  and  O_18
REMARK                            x       y       z     vdW  Elec       q    Type
REMARK                         _______ _______ _______ _____ _____    ______ ____
ROOT
ATOM      1  C   UNL     1      -1.505   2.511   0.018  0.00  0.00    +0.000 C 
ATOM      2  C   UNL     1      -2.828   2.586  -0.222  0.00  0.00    +0.000 C 
ENDROOT
BRANCH   1   6
ATOM      3  C   UNL     1      -0.004  -1.365   2.785  0.00  0.00    +0.000 C 
ATOM      4  C   UNL     1      -0.169  -0.718   1.442  0.00  0.00    +0.000 A 
ATOM      5  C   UNL     1      -0.733   0.557   1.320  0.00  0.00    +0.000 A 
ATOM      6  C   UNL     1      -0.900   1.162   0.062  0.00  0.00    +0.000 A 
ATOM      7  C   UNL     1      -0.509   0.468  -1.101  0.00  0.00    +0.000 A 
ATOM      8  C   UNL     1       0.071  -0.804  -0.969  0.00  0.00    +0.000 A 
ATOM      9  C   UNL     1       0.235  -1.391   0.287  0.00  0.00    +0.000 A 
ATOM     10  C   UNL     1      -0.644   1.063  -2.477  0.00  0.00    +0.000 C 
ENDBRANCH   1   6
BRANCH   2  11
ATOM     11  C   UNL     1      -3.598   3.830  -0.256  0.00  0.00    +0.000 A 
ATOM     12  C   UNL     1      -3.565   4.655  -1.385  0.00  0.00    +0.000 A 
ATOM     13  C   UNL     1      -4.301   5.841  -1.408  0.00  0.00    +0.000 A 
ATOM     14  C   UNL     1      -5.068   6.208  -0.304  0.00  0.00    +0.000 A 
ATOM     15  C   UNL     1      -5.102   5.390   0.825  0.00  0.00    +0.000 A 
ATOM     16  C   UNL     1      -4.370   4.202   0.849  0.00  0.00    +0.000 A 
ENDBRANCH   2  11
BRANCH   1  17
ATOM     17  C   UNL     1      -0.593   3.667   0.342  0.00  0.00    +0.000 C 
BRANCH  17  18
ATOM     18  O   UNL     1       0.420   3.798  -0.649  0.00  0.00    +0.000 OA
ATOM     19  H   UNL     1       0.950   2.987  -0.680  0.00  0.00    +0.000 HD
ENDBRANCH  17  18
ENDBRANCH   1  17
TORSDOF 4
