REMARK  Name = *****
REMARK  4 active torsions:
REMARK  status: ('A' for Active; 'I' for Inactive)
REMARK    1  A    between atoms: C_3  and  O_8
REMARK    2  A    between atoms: O_8  and  C_9
REMARK    3  A    between atoms: C_9  and  C_11
REMARK    4  A    between atoms: C_12  and  C_18
REMARK                            x       y       z     vdW  Elec       q    Type
REMARK                         _______ _______ _______ _____ _____    ______ ____
ROOT
ATOM      1  C   UNL     1      -1.939   4.979  -0.068  0.00  0.00    +0.000 A 
ATOM      2  C   UNL     1      -2.923   5.106   0.932  0.00  0.00    +0.000 A 
ATOM      3  C   UNL     1      -3.670   6.297   0.989  0.00  0.00    +0.000 A 
ATOM      4  C   UNL     1      -3.444   7.315   0.067  0.00  0.00    +0.000 A 
ATOM      5  C   UNL     1      -2.479   7.184  -0.923  0.00  0.00    +0.000 A 
ATOM      6  C   UNL     1      -1.720   6.016  -0.992  0.00  0.00    +0.000 A 
ATOM      7  F   UNL     1      -4.170   8.437   0.136  0.00  0.00    +0.000 F 
ENDROOT
BRANCH   2   8
ATOM      8  C   UNL     1      -3.195   4.003   1.925  0.00  0.00    +0.000 C 
ATOM      9  F   UNL     1      -3.239   2.769   1.354  0.00  0.00    +0.000 F 
ATOM     10  F   UNL     1      -2.285   3.952   2.931  0.00  0.00    +0.000 F 
ATOM     11  F   UNL     1      -4.406   4.151   2.540  0.00  0.00    +0.000 F 
ENDBRANCH   2   8
BRANCH   1  12
ATOM     12  C   UNL     1      -1.087   3.770  -0.134  0.00  0.00    +0.000 C 
ATOM     13  O   UNL     1      -0.558   3.277   0.846  0.00  0.00    +0.000 OA
BRANCH  12  14
ATOM     14  O   UNL     1      -1.058   3.335  -1.443  0.00  0.00    +0.000 OA
BRANCH  14  17
ATOM     15  C   UNL     1       1.417   1.006  -2.833  0.00  0.00    +0.000 A 
ATOM     16  C   UNL     1       0.719   2.181  -2.547  0.00  0.00    +0.000 A 
ATOM     17  C   UNL     1      -0.352   2.144  -1.654  0.00  0.00    +0.000 A 
ATOM     18  C   UNL     1      -0.763   0.948  -1.069  0.00  0.00    +0.000 A 
ATOM     19  C   UNL     1      -0.057  -0.212  -1.362  0.00  0.00    +0.000 A 
ATOM     20  C   UNL     1       1.029  -0.194  -2.235  0.00  0.00    +0.000 A 
ATOM     21  F   UNL     1      -0.431  -1.371  -0.805  0.00  0.00    +0.000 F 
ENDBRANCH  14  17
ENDBRANCH  12  14
ENDBRANCH   1  12
TORSDOF 4
