REMARK  Name = *****
REMARK  3 active torsions:
REMARK  status: ('A' for Active; 'I' for Inactive)
REMARK    1  A    between atoms: C_4  and  C_14
REMARK    2  A    between atoms: C_5  and  C_7
REMARK    3  A    between atoms: C_8  and  C_9
REMARK                            x       y       z     vdW  Elec       q    Type
REMARK                         _______ _______ _______ _____ _____    ______ ____
ROOT
ATOM      1  C   UNL     1      -0.533  -1.212   0.035  0.00  0.00    +0.000 A 
ATOM      2  C   UNL     1      -1.303  -0.051   0.083  0.00  0.00    +0.000 A 
ATOM      3  C   UNL     1      -0.685   1.198   0.013  0.00  0.00    +0.000 A 
ATOM      4  C   UNL     1       0.710   1.294  -0.106  0.00  0.00    +0.000 A 
ATOM      5  C   UNL     1       1.483   0.124  -0.154  0.00  0.00    +0.000 A 
ATOM      6  C   UNL     1       0.856  -1.126  -0.083  0.00  0.00    +0.000 A 
ENDROOT
BRANCH   5   7
ATOM      7  C   UNL     1       2.911   0.170  -0.277  0.00  0.00    +0.000 C 
ATOM      8  C   UNL     1       4.106   0.229  -0.382  0.00  0.00    +0.000 C 
BRANCH   8   9
ATOM      9  C   UNL     1       5.526   0.321  -0.510  0.00  0.00    +0.000 A 
ATOM     10  C   UNL     1       6.193   1.524  -0.567  0.00  0.00    +0.000 A 
ATOM     11  S   UNL     1       7.886   1.313  -0.722  0.00  0.00    +0.000 S 
ATOM     12  C   UNL     1       7.728  -0.392  -0.714  0.00  0.00    +0.000 A 
ATOM     13  C   UNL     1       6.413  -0.789  -0.595  0.00  0.00    +0.000 A 
ENDBRANCH   8   9
ENDBRANCH   5   7
BRANCH   4  14
ATOM     14  C   UNL     1       1.312   2.595  -0.175  0.00  0.00    +0.000 C 
ATOM     15  N   UNL     1       1.782   3.655  -0.229  0.00  0.00    +0.000 NA
ENDBRANCH   4  14
TORSDOF 3
