REMARK  Name = *****
REMARK  4 active torsions:
REMARK  status: ('A' for Active; 'I' for Inactive)
REMARK    1  A    between atoms: C_4  and  C_7
REMARK    2  A    between atoms: C_7  and  C_8
REMARK    3  A    between atoms: C_8  and  C_9
REMARK    4  A    between atoms: C_9  and  C_11
REMARK                            x       y       z     vdW  Elec       q    Type
REMARK                         _______ _______ _______ _____ _____    ______ ____
ROOT
ATOM      1  C   UNL     1      -5.128  -0.456  -0.104  0.00  0.00    +0.000 C 
ATOM      2  O   UNL     1      -5.557   0.668  -0.363  0.00  0.00    +0.000 OA
ENDROOT
BRANCH   1   3
ATOM      3  C   UNL     1      -6.110  -1.559   0.106  0.00  0.00    +0.000 A 
ATOM      4  C   UNL     1      -5.739  -2.896   0.269  0.00  0.00    +0.000 A 
ATOM      5  C   UNL     1      -6.695  -3.892   0.465  0.00  0.00    +0.000 A 
ATOM      6  C   UNL     1      -8.044  -3.553   0.499  0.00  0.00    +0.000 A 
ATOM      7  C   UNL     1      -8.440  -2.228   0.336  0.00  0.00    +0.000 A 
ATOM      8  C   UNL     1      -7.476  -1.234   0.139  0.00  0.00    +0.000 A 
ATOM      9 CL   UNL     1      -9.227  -4.776   0.741  0.00  0.00    +0.000 Cl
ATOM     10  F   UNL     1      -4.454  -3.275   0.235  0.00  0.00    +0.000 F 
ENDBRANCH   1   3
BRANCH   1  11
ATOM     11  C   UNL     1      -3.643  -0.742   0.010  0.00  0.00    +0.000 C 
BRANCH  11  12
ATOM     12  C   UNL     1      -2.813   0.539  -0.090  0.00  0.00    +0.000 C 
BRANCH  12  16
ATOM     13  C   UNL     1       1.391  -0.323   0.334  0.00  0.00    +0.000 A 
ATOM     14  C   UNL     1       0.799  -0.341  -0.927  0.00  0.00    +0.000 A 
ATOM     15  C   UNL     1      -0.560  -0.056  -1.067  0.00  0.00    +0.000 A 
ATOM     16  C   UNL     1      -1.339   0.254   0.056  0.00  0.00    +0.000 A 
ATOM     17  C   UNL     1      -0.736   0.265   1.321  0.00  0.00    +0.000 A 
ATOM     18  C   UNL     1       0.624  -0.021   1.458  0.00  0.00    +0.000 A 
ENDBRANCH  12  16
ENDBRANCH  11  12
ENDBRANCH   1  11
TORSDOF 4
