REMARK  Name = *****
REMARK  3 active torsions:
REMARK  status: ('A' for Active; 'I' for Inactive)
REMARK    1  A    between atoms: C_1  and  C_2
REMARK    2  A    between atoms: C_9  and  C_11
REMARK    3  A    between atoms: C_16  and  C_17
REMARK                            x       y       z     vdW  Elec       q    Type
REMARK                         _______ _______ _______ _____ _____    ______ ____
ROOT
ATOM      1  C   UNL     1       1.032  -0.100  -0.154  0.00  0.00    +0.000 C 
ATOM      2  C   UNL     1       2.533  -0.045  -0.111  0.00  0.00    +0.000 A 
ATOM      3  C   UNL     1       3.284  -1.233  -0.081  0.00  0.00    +0.000 A 
ATOM      4  C   UNL     1       4.665  -1.081  -0.039  0.00  0.00    +0.000 A 
ATOM      5  C   UNL     1       5.327   0.132  -0.024  0.00  0.00    +0.000 A 
ATOM      6  C   UNL     1       4.577   1.313  -0.053  0.00  0.00    +0.000 A 
ATOM      7  C   UNL     1       3.178   1.207  -0.096  0.00  0.00    +0.000 A 
ATOM      8  N   UNL     1       6.681  -0.078   0.020  0.00  0.00    +0.000 NA
ATOM      9  C   UNL     1       6.805  -1.395   0.030  0.00  0.00    +0.000 A 
ATOM     10  O   UNL     1       5.604  -2.068  -0.005  0.00  0.00    +0.000 OA
ENDROOT
BRANCH   9  11
ATOM     11  C   UNL     1       8.016  -2.229   0.075  0.00  0.00    +0.000 A 
ATOM     12  C   UNL     1       7.898  -3.631  -0.023  0.00  0.00    +0.000 A 
ATOM     13  C   UNL     1       9.018  -4.464   0.011  0.00  0.00    +0.000 A 
ATOM     14  C   UNL     1      10.285  -3.913   0.144  0.00  0.00    +0.000 A 
ATOM     15  C   UNL     1      10.432  -2.531   0.244  0.00  0.00    +0.000 A 
ATOM     16  C   UNL     1       9.312  -1.677   0.212  0.00  0.00    +0.000 A 
ATOM     17  C   UNL     1       9.552  -0.194   0.327  0.00  0.00    +0.000 C 
ENDBRANCH   9  11
TORSDOF 1
