REMARK  Name = *****
REMARK  3 active torsions:
REMARK  status: ('A' for Active; 'I' for Inactive)
REMARK    1  A    between atoms: C_2  and  C_12
REMARK    2  A    between atoms: C_3  and  C_4
REMARK    3  A    between atoms: C_7  and  C_10
REMARK                            x       y       z     vdW  Elec       q    Type
REMARK                         _______ _______ _______ _____ _____    ______ ____
ROOT
ATOM      1  C   UNL     1       0.003   0.594   0.121  0.00  0.00    +0.000 C 
ATOM      2  C   UNL     1       0.792  -0.677   0.303  0.00  0.00    +0.000 C 
ATOM      3  C   UNL     1      -0.675  -0.734  -0.100  0.00  0.00    +0.000 C 
ENDROOT
BRANCH   3   4
ATOM      4  C   UNL     1      -1.704  -1.236   0.885  0.00  0.00    +0.000 A 
ATOM      5  C   UNL     1      -2.832  -0.468   1.217  0.00  0.00    +0.000 A 
ATOM      6  C   UNL     1      -3.795  -0.935   2.117  0.00  0.00    +0.000 A 
ATOM      7  C   UNL     1      -3.652  -2.194   2.703  0.00  0.00    +0.000 A 
ATOM      8  C   UNL     1      -2.544  -2.980   2.381  0.00  0.00    +0.000 A 
ATOM      9  C   UNL     1      -1.586  -2.504   1.479  0.00  0.00    +0.000 A 
BRANCH   7  10
ATOM     10  C   UNL     1      -4.636  -2.678   3.626  0.00  0.00    +0.000 C 
ATOM     11  N   UNL     1      -5.433  -3.069   4.374  0.00  0.00    +0.000 NA
ENDBRANCH   7  10
ENDBRANCH   3   4
BRANCH   2  12
ATOM     12  C   UNL     1       1.860  -1.059  -0.695  0.00  0.00    +0.000 A 
ATOM     13  C   UNL     1       2.925  -0.192  -0.991  0.00  0.00    +0.000 A 
ATOM     14  C   UNL     1       3.924  -0.547  -1.901  0.00  0.00    +0.000 A 
ATOM     15  C   UNL     1       3.882  -1.787  -2.532  0.00  0.00    +0.000 A 
ATOM     16  C   UNL     1       2.843  -2.669  -2.250  0.00  0.00    +0.000 A 
ATOM     17  C   UNL     1       1.847  -2.308  -1.339  0.00  0.00    +0.000 A 
ENDBRANCH   2  12
TORSDOF 3
