REMARK  Name = *****
REMARK  3 active torsions:
REMARK  status: ('A' for Active; 'I' for Inactive)
REMARK    1  A    between atoms: C_3  and  C_15
REMARK    2  A    between atoms: C_6  and  C_7
REMARK    3  A    between atoms: C_8  and  C_9
REMARK                            x       y       z     vdW  Elec       q    Type
REMARK                         _______ _______ _______ _____ _____    ______ ____
ROOT
ATOM      1  C   UNL     1       1.446  -0.303  -0.206  0.00  0.00    +0.000 A 
ATOM      2  C   UNL     1       0.550  -1.371  -0.071  0.00  0.00    +0.000 A 
ATOM      3  C   UNL     1      -0.826  -1.138   0.039  0.00  0.00    +0.000 A 
ATOM      4  C   UNL     1      -1.289   0.181  -0.023  0.00  0.00    +0.000 A 
ATOM      5  C   UNL     1      -0.393   1.248  -0.159  0.00  0.00    +0.000 A 
ATOM      6  C   UNL     1       0.984   1.017  -0.235  0.00  0.00    +0.000 A 
ENDROOT
BRANCH   3   7
ATOM      7  C   UNL     1      -1.804  -2.228   0.153  0.00  0.00    +0.000 C 
ATOM      8  C   UNL     1      -1.583  -3.362   0.825  0.00  0.00    +0.000 C 
ATOM      9 CL   UNL     1      -2.760  -4.603   0.945  0.00  0.00    +0.000 Cl
ENDBRANCH   3   7
BRANCH   6  10
ATOM     10  C   UNL     1       1.890   2.161  -0.407  0.00  0.00    +0.000 C 
ATOM     11  C   UNL     1       3.081   2.263   0.205  0.00  0.00    +0.000 C 
BRANCH  11  12
ATOM     12  C   UNL     1       3.994   3.404   0.041  0.00  0.00    +0.000 A 
ATOM     13  C   UNL     1       3.539   4.719  -0.071  0.00  0.00    +0.000 A 
ATOM     14  C   UNL     1       4.473   5.737  -0.189  0.00  0.00    +0.000 A 
ATOM     15  N   UNL     1       5.807   5.536  -0.197  0.00  0.00    +0.000 NA
ATOM     16  C   UNL     1       6.226   4.260  -0.072  0.00  0.00    +0.000 A 
ATOM     17  C   UNL     1       5.371   3.176   0.054  0.00  0.00    +0.000 A 
ENDBRANCH  11  12
ENDBRANCH   6  10
TORSDOF 3
