REMARK  Name = *****
REMARK  5 active torsions:
REMARK  status: ('A' for Active; 'I' for Inactive)
REMARK    1  A    between atoms: C_1  and  N_2
REMARK    2  A    between atoms: N_2  and  S_3
REMARK    3  A    between atoms: S_3  and  C_5
REMARK    4  A    between atoms: S_3  and  C_12
REMARK    5  A    between atoms: C_5  and  C_6
REMARK                            x       y       z     vdW  Elec       q    Type
REMARK                         _______ _______ _______ _____ _____    ______ ____
ROOT
ATOM      1  S   UNL     1       3.288   0.973   0.937  0.00  0.00    +0.000 S 
ATOM      2  O   UNL     1       2.744   0.236  -0.188  0.00  0.00    +0.000 OA
ENDROOT
BRANCH   1   3
ATOM      3  C   UNL     1       5.047   0.643   0.950  0.00  0.00    +0.000 A 
ATOM      4  C   UNL     1       5.582  -0.300   0.068  0.00  0.00    +0.000 A 
ATOM      5  C   UNL     1       6.955  -0.551   0.085  0.00  0.00    +0.000 A 
ATOM      6  C   UNL     1       7.782   0.139   0.973  0.00  0.00    +0.000 A 
ATOM      7  C   UNL     1       7.243   1.086   1.845  0.00  0.00    +0.000 A 
ATOM      8  C   UNL     1       5.872   1.344   1.835  0.00  0.00    +0.000 A 
ENDBRANCH   1   3
BRANCH   1  10
ATOM      9  C   UNL     1       3.108   3.316  -0.102  0.00  0.00    +0.000 C 
ATOM     10  N   UNL     1       3.143   2.503   1.106  0.00  0.00    +0.000 NA
ENDBRANCH   1  10
BRANCH   1  11
ATOM     11  C   UNL     1       2.739   0.175   2.439  0.00  0.00    +0.000 C 
BRANCH  11  12
ATOM     12  C   UNL     1       1.272   0.462   2.801  0.00  0.00    +0.000 C 
ATOM     13  C   UNL     1       1.006  -0.007   4.243  0.00  0.00    +0.000 C 
ATOM     14  C   UNL     1      -0.446   0.209   4.660  0.00  0.00    +0.000 C 
ATOM     15  C   UNL     1      -1.410  -0.465   3.691  0.00  0.00    +0.000 C 
ATOM     16  C   UNL     1      -1.168  -0.004   2.259  0.00  0.00    +0.000 C 
ATOM     17  C   UNL     1       0.284  -0.210   1.832  0.00  0.00    +0.000 C 
ENDBRANCH  11  12
ENDBRANCH   1  11
TORSDOF 4
