REMARK  Name = *****
REMARK  3 active torsions:
REMARK  status: ('A' for Active; 'I' for Inactive)
REMARK    1  A    between atoms: C_1  and  C_2
REMARK    2  A    between atoms: C_5  and  N_8
REMARK    3  A    between atoms: C_9  and  C_10
REMARK                            x       y       z     vdW  Elec       q    Type
REMARK                         _______ _______ _______ _____ _____    ______ ____
ROOT
ATOM      1  C   UNL     1       0.493   2.200  -0.194  0.00  0.00    +0.000 C 
ATOM      2  C   UNL     1      -0.365   0.981  -0.002  0.00  0.00    +0.000 A 
ATOM      3  C   UNL     1       0.004  -0.275  -0.508  0.00  0.00    +0.000 A 
ATOM      4  C   UNL     1      -0.812  -1.392  -0.311  0.00  0.00    +0.000 A 
ATOM      5  C   UNL     1      -2.013  -1.272   0.386  0.00  0.00    +0.000 A 
ATOM      6  C   UNL     1      -2.380  -0.031   0.909  0.00  0.00    +0.000 A 
ATOM      7  C   UNL     1      -1.567   1.089   0.714  0.00  0.00    +0.000 A 
ATOM      8 CL   UNL     1       1.474  -0.495  -1.390  0.00  0.00    +0.000 Cl
ENDROOT
BRANCH   5   9
ATOM      9  N   UNL     1      -2.823  -2.396   0.598  0.00  0.00    +0.000 NA
ATOM     10  C   UNL     1      -3.750  -2.601  -0.285  0.00  0.00    +0.000 C 
BRANCH  10  11
ATOM     11  C   UNL     1      -4.678  -3.745  -0.194  0.00  0.00    +0.000 A 
ATOM     12  C   UNL     1      -4.581  -4.665   0.854  0.00  0.00    +0.000 A 
ATOM     13  C   UNL     1      -5.470  -5.738   0.918  0.00  0.00    +0.000 A 
ATOM     14  C   UNL     1      -6.452  -5.891  -0.062  0.00  0.00    +0.000 A 
ATOM     15  C   UNL     1      -6.548  -4.971  -1.107  0.00  0.00    +0.000 A 
ATOM     16  C   UNL     1      -5.661  -3.896  -1.176  0.00  0.00    +0.000 A 
ENDBRANCH  10  11
ENDBRANCH   5   9
TORSDOF 2
