REMARK  Name = *****
REMARK  3 active torsions:
REMARK  status: ('A' for Active; 'I' for Inactive)
REMARK    1  A    between atoms: C_4  and  C_7
REMARK    2  A    between atoms: C_7  and  O_8
REMARK    3  A    between atoms: O_8  and  C_9
REMARK                            x       y       z     vdW  Elec       q    Type
REMARK                         _______ _______ _______ _____ _____    ______ ____
ROOT
ATOM      1  O   UNL     1      -3.500  -0.422  -1.442  0.00  0.00    +0.000 OA
ENDROOT
BRANCH   1   2
ATOM      2  C   UNL     1      -4.793  -0.528  -1.006  0.00  0.00    +0.000 A 
ATOM      3  C   UNL     1      -5.824   0.296  -1.472  0.00  0.00    +0.000 A 
ATOM      4  C   UNL     1      -7.129   0.104  -1.013  0.00  0.00    +0.000 A 
ATOM      5  C   UNL     1      -7.396  -0.920  -0.105  0.00  0.00    +0.000 A 
ATOM      6  C   UNL     1      -6.375  -1.758   0.343  0.00  0.00    +0.000 A 
ATOM      7  C   UNL     1      -5.071  -1.566  -0.115  0.00  0.00    +0.000 A 
ATOM      8 CL   UNL     1      -9.003  -1.160   0.460  0.00  0.00    +0.000 Cl
ATOM      9 CL   UNL     1      -5.539   1.547  -2.626  0.00  0.00    +0.000 Cl
ENDBRANCH   1   2
BRANCH   1  10
ATOM     10  C   UNL     1      -2.819   0.691  -0.842  0.00  0.00    +0.000 C 
BRANCH  10  14
ATOM     11  C   UNL     1       1.055  -0.502   0.653  0.00  0.00    +0.000 A 
ATOM     12  C   UNL     1       0.579  -1.034  -0.544  0.00  0.00    +0.000 A 
ATOM     13  C   UNL     1      -0.676  -0.657  -1.026  0.00  0.00    +0.000 A 
ATOM     14  C   UNL     1      -1.475   0.247  -0.311  0.00  0.00    +0.000 A 
ATOM     15  C   UNL     1      -0.978   0.786   0.886  0.00  0.00    +0.000 A 
ATOM     16  C   UNL     1       0.279   0.409   1.366  0.00  0.00    +0.000 A 
ENDBRANCH  10  14
ENDBRANCH   1  10
TORSDOF 3
