REMARK  Name = *****
REMARK  5 active torsions:
REMARK  status: ('A' for Active; 'I' for Inactive)
REMARK    1  A    between atoms: C_1  and  C_2
REMARK    2  A    between atoms: C_5  and  C_7
REMARK    3  A    between atoms: C_7  and  C_8
REMARK    4  A    between atoms: C_8  and  C_9
REMARK    5  A    between atoms: C_9  and  C_10
REMARK                            x       y       z     vdW  Elec       q    Type
REMARK                         _______ _______ _______ _____ _____    ______ ____
ROOT
ATOM      1  C   UNL     1       4.077   2.904   2.649  0.00  0.00    +0.000 C 
ENDROOT
BRANCH   1   2
ATOM      2  C   UNL     1       4.030   1.402   2.949  0.00  0.00    +0.000 C 
BRANCH   2   7
ATOM      3  C   UNL     1       0.892  -0.281  -0.134  0.00  0.00    +0.000 C 
ATOM      4  C   UNL     1       2.416  -0.267  -0.098  0.00  0.00    +0.000 C 
ATOM      5  C   UNL     1       2.999  -1.457   0.675  0.00  0.00    +0.000 C 
ATOM      6  C   UNL     1       3.332  -0.935   2.073  0.00  0.00    +0.000 C 
ATOM      7  C   UNL     1       3.443   0.547   1.866  0.00  0.00    +0.000 C 
ATOM      8  C   UNL     1       2.940   0.905   0.676  0.00  0.00    +0.000 C 
ENDBRANCH   2   7
ENDBRANCH   1   2
BRANCH   1   9
ATOM      9  C   UNL     1       4.692   3.679   3.817  0.00  0.00    +0.000 C 
BRANCH   9  10
ATOM     10  C   UNL     1       4.751   5.159   3.533  0.00  0.00    +0.000 A 
ATOM     11  C   UNL     1       3.670   5.989   3.860  0.00  0.00    +0.000 A 
ATOM     12  C   UNL     1       3.717   7.355   3.579  0.00  0.00    +0.000 A 
ATOM     13  C   UNL     1       4.842   7.904   2.966  0.00  0.00    +0.000 A 
ATOM     14  C   UNL     1       5.920   7.086   2.630  0.00  0.00    +0.000 A 
ATOM     15  C   UNL     1       5.874   5.719   2.910  0.00  0.00    +0.000 A 
ENDBRANCH   9  10
ENDBRANCH   1   9
TORSDOF 4
