REMARK  Name = *****
REMARK  2 active torsions:
REMARK  status: ('A' for Active; 'I' for Inactive)
REMARK    1  A    between atoms: C_8  and  C_9
REMARK    2  A    between atoms: C_10  and  C_11
REMARK                            x       y       z     vdW  Elec       q    Type
REMARK                         _______ _______ _______ _____ _____    ______ ____
ROOT
ATOM      1  C   UNL     1      -3.363  -0.011  -0.673  0.00  0.00    +0.000 C 
ATOM      2  C   UNL     1      -4.097  -1.084  -1.013  0.00  0.00    +0.000 C 
ENDROOT
BRANCH   1  10
ATOM      3  C   UNL     1       1.525   0.845  -0.414  0.00  0.00    +0.000 C 
ATOM      4  C   UNL     1       1.560  -0.701  -0.514  0.00  0.00    +0.000 C 
ATOM      5  C   UNL     1       0.332  -1.124   0.326  0.00  0.00    +0.000 C 
ATOM      6  C   UNL     1       0.396  -0.078   1.449  0.00  0.00    +0.000 C 
ATOM      7  C   UNL     1       0.282   1.101   0.470  0.00  0.00    +0.000 C 
ATOM      8  C   UNL     1      -0.946   0.762  -0.372  0.00  0.00    +0.000 C 
ATOM      9  C   UNL     1      -0.912  -0.733  -0.470  0.00  0.00    +0.000 C 
ATOM     10  C   UNL     1      -2.127  -0.049   0.120  0.00  0.00    +0.000 C 
ENDBRANCH   1  10
BRANCH   2  11
ATOM     11  C   UNL     1      -5.341  -1.035  -1.792  0.00  0.00    +0.000 A 
ATOM     12  C   UNL     1      -5.535  -0.121  -2.839  0.00  0.00    +0.000 A 
ATOM     13  C   UNL     1      -6.722  -0.128  -3.577  0.00  0.00    +0.000 A 
ATOM     14  C   UNL     1      -7.710  -1.057  -3.276  0.00  0.00    +0.000 A 
ATOM     15  C   UNL     1      -7.533  -1.982  -2.255  0.00  0.00    +0.000 A 
ATOM     16  C   UNL     1      -6.347  -1.975  -1.518  0.00  0.00    +0.000 A 
ATOM     17  F   UNL     1      -8.847  -1.064  -3.985  0.00  0.00    +0.000 F 
ENDBRANCH   2  11
TORSDOF 2
