REMARK  Name = *****
REMARK  4 active torsions:
REMARK  status: ('A' for Active; 'I' for Inactive)
REMARK    1  A    between atoms: C_1  and  C_2
REMARK    2  A    between atoms: C_2  and  N_3
REMARK    3  A    between atoms: C_4  and  C_17
REMARK    4  A    between atoms: C_9  and  C_11
REMARK                            x       y       z     vdW  Elec       q    Type
REMARK                         _______ _______ _______ _____ _____    ______ ____
ROOT
ATOM      1  N   UNL     1       3.015  -0.969  -0.795  0.00  0.00    +0.000 N 
ATOM      2  C   UNL     1       3.807  -0.945  -1.865  0.00  0.00    +0.000 C 
ATOM      3  S   UNL     1       4.085  -2.535  -2.466  0.00  0.00    +0.000 S 
ATOM      4  C   UNL     1       3.089  -3.194  -1.200  0.00  0.00    +0.000 A 
ATOM      5  C   UNL     1       2.591  -2.221  -0.389  0.00  0.00    +0.000 A 
ATOM      6  S   UNL     1       1.604  -2.726   0.886  0.00  0.00    +0.000 S 
ATOM      7  C   UNL     1       1.828  -4.364   0.362  0.00  0.00    +0.000 A 
ATOM      8  C   UNL     1       2.637  -4.476  -0.763  0.00  0.00    +0.000 A 
ATOM      9  C   UNL     1       4.406   0.247  -2.524  0.00  0.00    +0.000 C 
ENDROOT
BRANCH   7  10
ATOM     10  C   UNL     1       1.153  -5.450   1.089  0.00  0.00    +0.000 A 
ATOM     11  C   UNL     1       0.433  -6.424   0.379  0.00  0.00    +0.000 A 
ATOM     12  C   UNL     1      -0.206  -7.468   1.051  0.00  0.00    +0.000 A 
ATOM     13  C   UNL     1      -0.130  -7.555   2.439  0.00  0.00    +0.000 A 
ATOM     14  C   UNL     1       0.586  -6.600   3.157  0.00  0.00    +0.000 A 
ATOM     15  C   UNL     1       1.226  -5.554   2.486  0.00  0.00    +0.000 A 
ENDBRANCH   7  10
BRANCH   1  17
ATOM     16  C   UNL     1       3.580   0.613   1.030  0.00  0.00    +0.000 C 
ATOM     17  C   UNL     1       2.630   0.283  -0.109  0.00  0.00    +0.000 C 
ENDBRANCH   1  17
TORSDOF 2
