REMARK  Name = *****
REMARK  2 active torsions:
REMARK  status: ('A' for Active; 'I' for Inactive)
REMARK    1  A    between atoms: C_6  and  C_7
REMARK    2  A    between atoms: N_8  and  C_9
REMARK                            x       y       z     vdW  Elec       q    Type
REMARK                         _______ _______ _______ _____ _____    ______ ____
ROOT
ATOM      1  C   UNL     1       3.928   0.204   0.187  0.00  0.00    +0.000 C 
ATOM      2  N   UNL     1       4.610   1.199  -0.288  0.00  0.00    +0.000 NA
ENDROOT
BRANCH   1   8
ATOM      3  C   UNL     1       1.785  -0.962   0.603  0.00  0.00    +0.000 A 
ATOM      4  C   UNL     1       0.392  -1.033   0.511  0.00  0.00    +0.000 A 
ATOM      5  C   UNL     1      -0.318   0.001  -0.101  0.00  0.00    +0.000 A 
ATOM      6  C   UNL     1       0.351   1.108  -0.622  0.00  0.00    +0.000 A 
ATOM      7  C   UNL     1       1.743   1.183  -0.532  0.00  0.00    +0.000 A 
ATOM      8  C   UNL     1       2.457   0.147   0.080  0.00  0.00    +0.000 A 
ATOM      9 CL   UNL     1      -2.032  -0.091  -0.211  0.00  0.00    +0.000 Cl
ENDBRANCH   1   8
BRANCH   2  10
ATOM     10  C   UNL     1       5.998   1.126  -0.119  0.00  0.00    +0.000 A 
ATOM     11  C   UNL     1       6.793   0.460  -1.057  0.00  0.00    +0.000 A 
ATOM     12  C   UNL     1       8.179   0.402  -0.895  0.00  0.00    +0.000 A 
ATOM     13  C   UNL     1       8.772   1.025   0.202  0.00  0.00    +0.000 A 
ATOM     14  C   UNL     1       7.992   1.706   1.134  0.00  0.00    +0.000 A 
ATOM     15  C   UNL     1       6.606   1.759   0.969  0.00  0.00    +0.000 A 
ATOM     16 CL   UNL     1      10.480   0.956   0.403  0.00  0.00    +0.000 Cl
ENDBRANCH   2  10
TORSDOF 2
