REMARK  Name = *****
REMARK  1 active torsions:
REMARK  status: ('A' for Active; 'I' for Inactive)
REMARK    1  A    between atoms: C_2  and  C_10
REMARK                            x       y       z     vdW  Elec       q    Type
REMARK                         _______ _______ _______ _____ _____    ______ ____
ROOT
ATOM      1  C   UNL     1      -1.317  -1.620  -0.341  0.00  0.00    +0.000 C 
ATOM      2  C   UNL     1      -2.602  -0.780  -0.148  0.00  0.00    +0.000 C 
ATOM      3  S   UNL     1      -2.118   0.986  -0.303  0.00  0.00    +0.000 S 
ATOM      4  C   UNL     1      -0.403   0.629  -0.074  0.00  0.00    +0.000 A 
ATOM      5  C   UNL     1       0.608   1.561   0.110  0.00  0.00    +0.000 A 
ATOM      6  C   UNL     1       1.916   1.108   0.290  0.00  0.00    +0.000 A 
ATOM      7  C   UNL     1       2.198  -0.264   0.280  0.00  0.00    +0.000 A 
ATOM      8  C   UNL     1       1.175  -1.195   0.091  0.00  0.00    +0.000 A 
ATOM      9  C   UNL     1      -0.129  -0.739  -0.078  0.00  0.00    +0.000 A 
ENDROOT
BRANCH   2  10
ATOM     10  C   UNL     1      -3.323  -1.058   1.164  0.00  0.00    +0.000 A 
ATOM     11  C   UNL     1      -2.651  -0.891   2.395  0.00  0.00    +0.000 A 
ATOM     12  C   UNL     1      -3.285  -1.144   3.613  0.00  0.00    +0.000 A 
ATOM     13  C   UNL     1      -4.606  -1.575   3.634  0.00  0.00    +0.000 A 
ATOM     14  C   UNL     1      -5.292  -1.750   2.434  0.00  0.00    +0.000 A 
ATOM     15  C   UNL     1      -4.660  -1.495   1.210  0.00  0.00    +0.000 A 
ATOM     16 CL   UNL     1      -5.605  -1.760  -0.215  0.00  0.00    +0.000 Cl
ENDBRANCH   2  10
TORSDOF 1
