REMARK  Name = *****
REMARK  4 active torsions:
REMARK  status: ('A' for Active; 'I' for Inactive)
REMARK    1  A    between atoms: C_1  and  C_2
REMARK    2  A    between atoms: C_2  and  C_3
REMARK    3  A    between atoms: C_2  and  O_9
REMARK    4  A    between atoms: O_9  and  C_10
REMARK                            x       y       z     vdW  Elec       q    Type
REMARK                         _______ _______ _______ _____ _____    ______ ____
ROOT
ATOM      1  C   UNL     1       1.127  -0.293  -0.185  0.00  0.00    +0.000 C 
ATOM      2  C   UNL     1       2.617   0.021  -0.048  0.00  0.00    +0.000 C 
ENDROOT
BRANCH   2   3
ATOM      3  C   UNL     1       2.806   1.182   0.919  0.00  0.00    +0.000 A 
ATOM      4  C   UNL     1       2.845   0.983   2.309  0.00  0.00    +0.000 A 
ATOM      5  C   UNL     1       2.995   2.063   3.180  0.00  0.00    +0.000 A 
ATOM      6  C   UNL     1       3.101   3.357   2.676  0.00  0.00    +0.000 A 
ATOM      7  C   UNL     1       3.056   3.573   1.300  0.00  0.00    +0.000 A 
ATOM      8  C   UNL     1       2.907   2.494   0.427  0.00  0.00    +0.000 A 
ENDBRANCH   2   3
BRANCH   2   9
ATOM      9  O   UNL     1       3.312  -1.122   0.467  0.00  0.00    +0.000 OA
BRANCH   9  10
ATOM     10  C   UNL     1       3.778  -2.076  -0.392  0.00  0.00    +0.000 A 
ATOM     11  C   UNL     1       3.565  -2.131  -1.771  0.00  0.00    +0.000 A 
ATOM     12  C   UNL     1       4.105  -3.180  -2.522  0.00  0.00    +0.000 A 
ATOM     13  C   UNL     1       4.852  -4.169  -1.892  0.00  0.00    +0.000 A 
ATOM     14  C   UNL     1       5.069  -4.132  -0.523  0.00  0.00    +0.000 A 
ATOM     15  C   UNL     1       4.529  -3.084   0.226  0.00  0.00    +0.000 A 
ATOM     16  F   UNL     1       5.365  -5.171  -2.617  0.00  0.00    +0.000 F 
ENDBRANCH   9  10
ENDBRANCH   2   9
TORSDOF 3
