REMARK  Name = *****
REMARK  3 active torsions:
REMARK  status: ('A' for Active; 'I' for Inactive)
REMARK    1  A    between atoms: C_4  and  C_7
REMARK    2  A    between atoms: C_8  and  C_9
REMARK    3  A    between atoms: C_12  and  C_15
REMARK                            x       y       z     vdW  Elec       q    Type
REMARK                         _______ _______ _______ _____ _____    ______ ____
ROOT
ATOM      1  C   UNL     1      -2.702   0.569  -0.095  0.00  0.00    +0.000 C 
ATOM      2  C   UNL     1      -3.109   1.847  -0.161  0.00  0.00    +0.000 C 
ATOM      3  F   UNL     1      -3.665  -0.381  -0.181  0.00  0.00    +0.000 F 
ENDROOT
BRANCH   1   7
ATOM      4  C   UNL     1       1.271  -0.987   0.223  0.00  0.00    +0.000 A 
ATOM      5  C   UNL     1       0.882   0.068   1.044  0.00  0.00    +0.000 A 
ATOM      6  C   UNL     1      -0.412   0.587   0.951  0.00  0.00    +0.000 A 
ATOM      7  C   UNL     1      -1.325   0.065   0.024  0.00  0.00    +0.000 A 
ATOM      8  C   UNL     1      -0.927  -1.011  -0.781  0.00  0.00    +0.000 A 
ATOM      9  C   UNL     1       0.367  -1.530  -0.687  0.00  0.00    +0.000 A 
ENDBRANCH   1   7
BRANCH   2  10
ATOM     10  C   UNL     1      -2.280   3.057  -0.173  0.00  0.00    +0.000 A 
ATOM     11  C   UNL     1      -1.262   3.238  -1.118  0.00  0.00    +0.000 A 
ATOM     12  C   UNL     1      -0.498   4.408  -1.121  0.00  0.00    +0.000 A 
ATOM     13  C   UNL     1      -0.753   5.415  -0.185  0.00  0.00    +0.000 A 
ATOM     14  C   UNL     1      -1.780   5.247   0.749  0.00  0.00    +0.000 A 
ATOM     15  C   UNL     1      -2.543   4.075   0.751  0.00  0.00    +0.000 A 
BRANCH  13  16
ATOM     16  C   UNL     1       0.031   6.615  -0.186  0.00  0.00    +0.000 C 
ATOM     17  N   UNL     1       0.666   7.587  -0.184  0.00  0.00    +0.000 NA
ENDBRANCH  13  16
ENDBRANCH   2  10
TORSDOF 3
