REMARK  Name = *****
REMARK  3 active torsions:
REMARK  status: ('A' for Active; 'I' for Inactive)
REMARK    1  A    between atoms: C_4  and  O_7
REMARK    2  A    between atoms: O_7  and  C_8
REMARK    3  A    between atoms: C_8  and  C_10
REMARK                            x       y       z     vdW  Elec       q    Type
REMARK                         _______ _______ _______ _____ _____    ______ ____
ROOT
ATOM      1  C   UNL     1      -3.659  -0.677   0.007  0.00  0.00    +0.000 C 
ATOM      2  O   UNL     1      -3.401  -1.731   0.568  0.00  0.00    +0.000 OA
ENDROOT
BRANCH   1   3
ATOM      3  C   UNL     1      -5.029  -0.324  -0.419  0.00  0.00    +0.000 A 
ATOM      4  C   UNL     1      -5.460   0.999  -0.543  0.00  0.00    +0.000 A 
ATOM      5  C   UNL     1      -6.765   1.289  -0.944  0.00  0.00    +0.000 A 
ATOM      6  C   UNL     1      -7.653   0.248  -1.216  0.00  0.00    +0.000 A 
ATOM      7  C   UNL     1      -7.226  -1.069  -1.077  0.00  0.00    +0.000 A 
ATOM      8  C   UNL     1      -5.928  -1.367  -0.678  0.00  0.00    +0.000 A 
ATOM      9  F   UNL     1      -8.082  -2.066  -1.333  0.00  0.00    +0.000 F 
ATOM     10  F   UNL     1      -4.649   2.027  -0.257  0.00  0.00    +0.000 F 
ENDBRANCH   1   3
BRANCH   1  11
ATOM     11  O   UNL     1      -2.778   0.306  -0.397  0.00  0.00    +0.000 OA
BRANCH  11  15
ATOM     12  C   UNL     1       1.284  -0.123   0.476  0.00  0.00    +0.000 A 
ATOM     13  C   UNL     1       0.635  -1.125  -0.250  0.00  0.00    +0.000 A 
ATOM     14  C   UNL     1      -0.724  -1.008  -0.542  0.00  0.00    +0.000 A 
ATOM     15  C   UNL     1      -1.426   0.107  -0.085  0.00  0.00    +0.000 A 
ATOM     16  C   UNL     1      -0.782   1.122   0.621  0.00  0.00    +0.000 A 
ATOM     17  C   UNL     1       0.577   1.001   0.908  0.00  0.00    +0.000 A 
ENDBRANCH  11  15
ENDBRANCH   1  11
TORSDOF 3
