REMARK  Name = *****
REMARK  4 active torsions:
REMARK  status: ('A' for Active; 'I' for Inactive)
REMARK    1  A    between atoms: C_5  and  C_7
REMARK    2  A    between atoms: C_7  and  O_8
REMARK    3  A    between atoms: O_8  and  C_9
REMARK    4  A    between atoms: C_9  and  C_11
REMARK                            x       y       z     vdW  Elec       q    Type
REMARK                         _______ _______ _______ _____ _____    ______ ____
ROOT
ATOM      1  C   UNL     1      -0.487  -2.243  -0.894  0.00  0.00    +0.000 C 
ENDROOT
BRANCH   1   6
ATOM      2  C   UNL     1      -0.014   1.308   0.479  0.00  0.00    +0.000 A 
ATOM      3  C   UNL     1       1.370   1.381   0.598  0.00  0.00    +0.000 A 
ATOM      4  C   UNL     1       2.153   0.287   0.237  0.00  0.00    +0.000 A 
ATOM      5  C   UNL     1       1.552  -0.881  -0.243  0.00  0.00    +0.000 A 
ATOM      6  C   UNL     1       0.154  -0.974  -0.371  0.00  0.00    +0.000 A 
ATOM      7  C   UNL     1      -0.617   0.143  -0.001  0.00  0.00    +0.000 A 
ATOM      8 CL   UNL     1       2.591  -2.195  -0.671  0.00  0.00    +0.000 Cl
ENDBRANCH   1   6
BRANCH   1   9
ATOM      9  O   UNL     1      -1.916  -2.132  -0.940  0.00  0.00    +0.000 OA
BRANCH   9  10
ATOM     10  C   UNL     1      -2.538  -3.248  -1.423  0.00  0.00    +0.000 C 
ATOM     11  O   UNL     1      -1.944  -4.256  -1.784  0.00  0.00    +0.000 OA
BRANCH  10  12
ATOM     12  C   UNL     1      -3.974  -3.038  -1.433  0.00  0.00    +0.000 A 
ATOM     13  C   UNL     1      -4.710  -1.935  -1.034  0.00  0.00    +0.000 A 
ATOM     14  C   UNL     1      -6.113  -2.119  -1.204  0.00  0.00    +0.000 A 
ATOM     15  C   UNL     1      -6.408  -3.357  -1.728  0.00  0.00    +0.000 A 
ATOM     16  S   UNL     1      -5.001  -4.285  -2.010  0.00  0.00    +0.000 S 
ENDBRANCH  10  12
ENDBRANCH   9  10
ENDBRANCH   1   9
TORSDOF 4
