REMARK  Name = *****
REMARK  4 active torsions:
REMARK  status: ('A' for Active; 'I' for Inactive)
REMARK    1  A    between atoms: C_2  and  O_3
REMARK    2  A    between atoms: O_3  and  C_4
REMARK    3  A    between atoms: C_9  and  C_10
REMARK    4  A    between atoms: C_11  and  C_12
REMARK                            x       y       z     vdW  Elec       q    Type
REMARK                         _______ _______ _______ _____ _____    ______ ____
ROOT
ATOM      1  C   UNL     1       4.701  -1.321   0.081  0.00  0.00    +0.000 A 
ATOM      2  C   UNL     1       5.376  -0.637   1.098  0.00  0.00    +0.000 A 
ATOM      3  C   UNL     1       6.749  -0.419   0.993  0.00  0.00    +0.000 A 
ATOM      4  C   UNL     1       7.447  -0.894  -0.118  0.00  0.00    +0.000 A 
ATOM      5  C   UNL     1       6.775  -1.594  -1.124  0.00  0.00    +0.000 A 
ATOM      6  C   UNL     1       5.397  -1.817  -1.027  0.00  0.00    +0.000 A 
ENDROOT
BRANCH   6   7
ATOM      7  C   UNL     1       4.730  -2.542  -2.066  0.00  0.00    +0.000 C 
ATOM      8  C   UNL     1       4.159  -3.145  -2.934  0.00  0.00    +0.000 C 
BRANCH   8   9
ATOM      9  C   UNL     1       3.465  -3.858  -3.962  0.00  0.00    +0.000 A 
ATOM     10  C   UNL     1       4.180  -4.584  -4.918  0.00  0.00    +0.000 A 
ATOM     11  C   UNL     1       3.499  -5.278  -5.920  0.00  0.00    +0.000 A 
ATOM     12  C   UNL     1       2.105  -5.247  -5.967  0.00  0.00    +0.000 A 
ATOM     13  C   UNL     1       1.390  -4.523  -5.013  0.00  0.00    +0.000 A 
ATOM     14  C   UNL     1       2.070  -3.828  -4.010  0.00  0.00    +0.000 A 
ENDBRANCH   8   9
ENDBRANCH   6   7
BRANCH   1  15
ATOM     15  O   UNL     1       3.352  -1.556   0.220  0.00  0.00    +0.000 OA
BRANCH  15  17
ATOM     16  C   UNL     1       1.204  -0.569   0.086  0.00  0.00    +0.000 C 
ATOM     17  C   UNL     1       2.527  -0.494  -0.070  0.00  0.00    +0.000 C 
ENDBRANCH  15  17
ENDBRANCH   1  15
TORSDOF 4
