REMARK  Name = *****
REMARK  3 active torsions:
REMARK  status: ('A' for Active; 'I' for Inactive)
REMARK    1  A    between atoms: C_5  and  C_7
REMARK    2  A    between atoms: N_8  and  C_9
REMARK    3  A    between atoms: C_14  and  S_15
REMARK                            x       y       z     vdW  Elec       q    Type
REMARK                         _______ _______ _______ _____ _____    ______ ____
ROOT
ATOM      1  C   UNL     1      -0.667  -2.461  -0.284  0.00  0.00    +0.000 C 
ATOM      2  N   UNL     1      -1.815  -2.711   0.268  0.00  0.00    +0.000 NA
ENDROOT
BRANCH   1   7
ATOM      3  C   UNL     1      -0.095   1.136   0.695  0.00  0.00    +0.000 A 
ATOM      4  C   UNL     1       1.148   1.396   0.123  0.00  0.00    +0.000 A 
ATOM      5  C   UNL     1       1.811   0.394  -0.587  0.00  0.00    +0.000 A 
ATOM      6  C   UNL     1       1.235  -0.874  -0.730  0.00  0.00    +0.000 A 
ATOM      7  C   UNL     1      -0.016  -1.138  -0.156  0.00  0.00    +0.000 A 
ATOM      8  C   UNL     1      -0.676  -0.126   0.557  0.00  0.00    +0.000 A 
ATOM      9 CL   UNL     1       2.131  -2.051  -1.621  0.00  0.00    +0.000 Cl
ENDBRANCH   1   7
BRANCH   2  10
ATOM     10  C   UNL     1      -2.324  -4.011   0.062  0.00  0.00    +0.000 A 
ATOM     11  C   UNL     1      -1.886  -5.055   0.886  0.00  0.00    +0.000 A 
ATOM     12  C   UNL     1      -2.374  -6.351   0.714  0.00  0.00    +0.000 A 
ATOM     13  C   UNL     1      -3.315  -6.614  -0.278  0.00  0.00    +0.000 A 
ATOM     14  C   UNL     1      -3.775  -5.580  -1.096  0.00  0.00    +0.000 A 
ATOM     15  C   UNL     1      -3.292  -4.277  -0.926  0.00  0.00    +0.000 A 
BRANCH  15  16
ATOM     16  S   UNL     1      -3.926  -2.984  -1.987  0.00  0.00    +0.000 S 
ATOM     17  H   UNL     1      -3.335  -1.802  -1.665  0.00  0.00    +0.000 HD
ENDBRANCH  15  16
ENDBRANCH   2  10
TORSDOF 3
