REMARK  Name = *****
REMARK  2 active torsions:
REMARK  status: ('A' for Active; 'I' for Inactive)
REMARK    1  A    between atoms: C_4  and  C_7
REMARK    2  A    between atoms: C_8  and  C_9
REMARK                            x       y       z     vdW  Elec       q    Type
REMARK                         _______ _______ _______ _____ _____    ______ ____
ROOT
ATOM      1  C   UNL     1      -2.802   0.529  -0.216  0.00  0.00    +0.000 C 
ATOM      2  C   UNL     1      -3.755  -0.406  -0.378  0.00  0.00    +0.000 C 
ENDROOT
BRANCH   1   6
ATOM      3  C   UNL     1       1.378  -0.267   0.220  0.00  0.00    +0.000 A 
ATOM      4  C   UNL     1       0.633  -0.998  -0.703  0.00  0.00    +0.000 A 
ATOM      5  C   UNL     1      -0.735  -0.753  -0.850  0.00  0.00    +0.000 A 
ATOM      6  C   UNL     1      -1.373   0.219  -0.069  0.00  0.00    +0.000 A 
ATOM      7  C   UNL     1      -0.609   0.960   0.843  0.00  0.00    +0.000 A 
ATOM      8  C   UNL     1       0.758   0.714   0.991  0.00  0.00    +0.000 A 
ENDBRANCH   1   6
BRANCH   2   9
ATOM      9  C   UNL     1      -5.166  -0.168  -0.526  0.00  0.00    +0.000 A 
ATOM     10  C   UNL     1      -5.787   1.018  -0.174  0.00  0.00    +0.000 A 
ATOM     11  S   UNL     1      -7.477   0.998  -0.456  0.00  0.00    +0.000 S 
ATOM     12  C   UNL     1      -7.411  -0.603  -1.050  0.00  0.00    +0.000 A 
ATOM     13  C   UNL     1      -6.129  -1.098  -1.029  0.00  0.00    +0.000 A 
ATOM     14 BR   UNL     1      -5.713  -2.845  -1.637  0.00  0.00    +0.000 Br
ENDBRANCH   2   9
TORSDOF 2
