REMARK  Name = *****
REMARK  3 active torsions:
REMARK  status: ('A' for Active; 'I' for Inactive)
REMARK    1  A    between atoms: C_4  and  S_7
REMARK    2  A    between atoms: S_7  and  C_8
REMARK    3  A    between atoms: C_8  and  C_10
REMARK                            x       y       z     vdW  Elec       q    Type
REMARK                         _______ _______ _______ _____ _____    ______ ____
ROOT
ATOM      1  C   UNL     1      -3.969  -0.722  -0.298  0.00  0.00    +0.000 C 
ATOM      2  O   UNL     1      -3.349  -1.608   0.279  0.00  0.00    +0.000 OA
ENDROOT
BRANCH   1   3
ATOM      3  C   UNL     1      -5.425  -0.899  -0.594  0.00  0.00    +0.000 A 
ATOM      4  C   UNL     1      -6.190   0.018  -1.328  0.00  0.00    +0.000 A 
ATOM      5  C   UNL     1      -7.544  -0.232  -1.562  0.00  0.00    +0.000 A 
ATOM      6  C   UNL     1      -8.152  -1.388  -1.077  0.00  0.00    +0.000 A 
ATOM      7  C   UNL     1      -7.402  -2.307  -0.349  0.00  0.00    +0.000 A 
ATOM      8  C   UNL     1      -6.047  -2.064  -0.110  0.00  0.00    +0.000 A 
ATOM      9 CL   UNL     1      -8.474   0.901  -2.465  0.00  0.00    +0.000 Cl
ENDBRANCH   1   3
BRANCH   1  10
ATOM     10  S   UNL     1      -3.199   0.790  -0.773  0.00  0.00    +0.000 S 
BRANCH  10  14
ATOM     11  C   UNL     1       1.251  -0.292  -0.925  0.00  0.00    +0.000 A 
ATOM     12  C   UNL     1       0.356  -0.924  -1.787  0.00  0.00    +0.000 A 
ATOM     13  C   UNL     1      -1.003  -0.608  -1.739  0.00  0.00    +0.000 A 
ATOM     14  C   UNL     1      -1.477   0.337  -0.822  0.00  0.00    +0.000 A 
ATOM     15  C   UNL     1      -0.572   0.975   0.032  0.00  0.00    +0.000 A 
ATOM     16  C   UNL     1       0.788   0.658  -0.016  0.00  0.00    +0.000 A 
ENDBRANCH  10  14
ENDBRANCH   1  10
TORSDOF 3
