REMARK  Name = *****
REMARK  1 active torsions:
REMARK  status: ('A' for Active; 'I' for Inactive)
REMARK    1  A    between atoms: C_9  and  C_12
REMARK                            x       y       z     vdW  Elec       q    Type
REMARK                         _______ _______ _______ _____ _____    ______ ____
ROOT
ATOM      1  C   UNL     1      -2.838   0.408   0.535  0.00  0.00    +0.000 C 
ATOM      2  C   UNL     1      -2.480  -0.474  -0.657  0.00  0.00    +0.000 C 
ATOM      3  C   UNL     1      -1.198  -1.265  -0.403  0.00  0.00    +0.000 C 
ATOM      4  C   UNL     1      -0.015  -0.364  -0.013  0.00  0.00    +0.000 C 
ATOM      5  C   UNL     1      -0.403   0.511   1.191  0.00  0.00    +0.000 C 
ATOM      6  C   UNL     1      -1.678   1.313   0.937  0.00  0.00    +0.000 C 
ATOM      7  O   UNL     1       1.075  -1.247   0.294  0.00  0.00    +0.000 OA
ATOM      8  O   UNL     1       2.238  -0.419   0.625  0.00  0.00    +0.000 OA
ATOM      9  C   UNL     1       2.590   0.335  -0.548  0.00  0.00    +0.000 C 
ATOM     10  O   UNL     1       1.506   1.224  -0.894  0.00  0.00    +0.000 OA
ATOM     11  O   UNL     1       0.302   0.422  -1.175  0.00  0.00    +0.000 OA
ENDROOT
BRANCH   9  12
ATOM     12  C   UNL     1       3.148  -0.515  -1.682  0.00  0.00    +0.000 A 
ATOM     13  C   UNL     1       2.589  -0.468  -2.974  0.00  0.00    +0.000 A 
ATOM     14  C   UNL     1       3.102  -1.243  -4.018  0.00  0.00    +0.000 A 
ATOM     15  C   UNL     1       4.195  -2.073  -3.797  0.00  0.00    +0.000 A 
ATOM     16  C   UNL     1       4.781  -2.119  -2.534  0.00  0.00    +0.000 A 
ATOM     17  C   UNL     1       4.268  -1.344  -1.487  0.00  0.00    +0.000 A 
ATOM     18 CL   UNL     1       5.106  -1.424   0.025  0.00  0.00    +0.000 Cl
ENDBRANCH   9  12
TORSDOF 1
