REMARK  Name = *****
REMARK  5 active torsions:
REMARK  status: ('A' for Active; 'I' for Inactive)
REMARK    1  A    between atoms: C_1  and  C_2
REMARK    2  A    between atoms: C_2  and  C_3
REMARK    3  A    between atoms: C_2  and  O_9
REMARK    4  A    between atoms: O_9  and  C_10
REMARK    5  A    between atoms: C_10  and  C_12
REMARK                            x       y       z     vdW  Elec       q    Type
REMARK                         _______ _______ _______ _____ _____    ______ ____
ROOT
ATOM      1  O   UNL     1       2.958  -0.955  -0.989  0.00  0.00    +0.000 OA
ENDROOT
BRANCH   1   3
ATOM      2  C   UNL     1       3.087  -0.347   1.338  0.00  0.00    +0.000 C 
ATOM      3  C   UNL     1       2.502   0.013  -0.026  0.00  0.00    +0.000 C 
BRANCH   3   4
ATOM      4  C   UNL     1       0.986   0.005  -0.007  0.00  0.00    +0.000 A 
ATOM      5  C   UNL     1       0.258  -1.153   0.303  0.00  0.00    +0.000 A 
ATOM      6  C   UNL     1      -1.137  -1.121   0.365  0.00  0.00    +0.000 A 
ATOM      7  C   UNL     1      -1.821   0.065   0.107  0.00  0.00    +0.000 A 
ATOM      8  C   UNL     1      -1.113   1.217  -0.225  0.00  0.00    +0.000 A 
ATOM      9  C   UNL     1       0.281   1.187  -0.285  0.00  0.00    +0.000 A 
ENDBRANCH   3   4
ENDBRANCH   1   3
BRANCH   1  10
ATOM     10  C   UNL     1       3.795  -0.495  -1.949  0.00  0.00    +0.000 C 
ATOM     11  O   UNL     1       4.198   0.651  -2.069  0.00  0.00    +0.000 OA
BRANCH  10  12
ATOM     12  C   UNL     1       4.188  -1.587  -2.880  0.00  0.00    +0.000 A 
ATOM     13  C   UNL     1       3.807  -2.920  -2.684  0.00  0.00    +0.000 A 
ATOM     14  C   UNL     1       4.214  -3.894  -3.596  0.00  0.00    +0.000 A 
ATOM     15  C   UNL     1       4.995  -3.557  -4.701  0.00  0.00    +0.000 A 
ATOM     16  C   UNL     1       5.379  -2.232  -4.899  0.00  0.00    +0.000 A 
ATOM     17  C   UNL     1       4.978  -1.251  -3.991  0.00  0.00    +0.000 A 
ATOM     18 CL   UNL     1       3.748  -5.534  -3.355  0.00  0.00    +0.000 Cl
ENDBRANCH  10  12
ENDBRANCH   1  10
TORSDOF 4
