REMARK  Name = *****
REMARK  5 active torsions:
REMARK  status: ('A' for Active; 'I' for Inactive)
REMARK    1  A    between atoms: C_1  and  C_2
REMARK    2  A    between atoms: C_3  and  C_18
REMARK    3  A    between atoms: C_5  and  O_8
REMARK    4  A    between atoms: O_8  and  C_9
REMARK    5  A    between atoms: C_9  and  C_11
REMARK                            x       y       z     vdW  Elec       q    Type
REMARK                         _______ _______ _______ _____ _____    ______ ____
ROOT
ATOM      1  O   UNL     1      -3.166  -1.246   0.121  0.00  0.00    +0.000 OA
ENDROOT
BRANCH   1   6
ATOM      2  C   UNL     1       1.884   1.399   0.060  0.00  0.00    +0.000 C 
ATOM      3  C   UNL     1       0.556   0.691   0.061  0.00  0.00    +0.000 A 
ATOM      4  C   UNL     1       0.472  -0.713  -0.047  0.00  0.00    +0.000 A 
ATOM      5  C   UNL     1      -0.790  -1.327  -0.044  0.00  0.00    +0.000 A 
ATOM      6  C   UNL     1      -1.946  -0.555   0.061  0.00  0.00    +0.000 A 
ATOM      7  C   UNL     1      -1.872   0.827   0.202  0.00  0.00    +0.000 A 
ATOM      8  C   UNL     1      -0.622   1.446   0.192  0.00  0.00    +0.000 A 
ATOM      9  C   UNL     1       1.704  -1.566  -0.174  0.00  0.00    +0.000 C 
ENDBRANCH   1   6
BRANCH   1  10
ATOM     10  C   UNL     1      -4.181  -0.835  -0.725  0.00  0.00    +0.000 C 
ATOM     11  O   UNL     1      -4.142   0.065  -1.550  0.00  0.00    +0.000 OA
BRANCH  10  12
ATOM     12  C   UNL     1      -5.394  -1.668  -0.492  0.00  0.00    +0.000 A 
ATOM     13  C   UNL     1      -5.408  -2.751   0.397  0.00  0.00    +0.000 A 
ATOM     14  C   UNL     1      -6.578  -3.492   0.565  0.00  0.00    +0.000 A 
ATOM     15  C   UNL     1      -7.736  -3.167  -0.141  0.00  0.00    +0.000 A 
ATOM     16  C   UNL     1      -7.727  -2.091  -1.027  0.00  0.00    +0.000 A 
ATOM     17  C   UNL     1      -6.560  -1.345  -1.203  0.00  0.00    +0.000 A 
ATOM     18 CL   UNL     1      -6.593  -4.824   1.655  0.00  0.00    +0.000 Cl
ENDBRANCH  10  12
ENDBRANCH   1  10
TORSDOF 3
