REMARK  Name = *****
REMARK  4 active torsions:
REMARK  status: ('A' for Active; 'I' for Inactive)
REMARK    1  A    between atoms: C_4  and  C_7
REMARK    2  A    between atoms: C_7  and  O_8
REMARK    3  A    between atoms: O_8  and  C_9
REMARK    4  A    between atoms: C_14  and  C_15
REMARK                            x       y       z     vdW  Elec       q    Type
REMARK                         _______ _______ _______ _____ _____    ______ ____
ROOT
ATOM      1  C   UNL     1      -4.937  -0.676  -0.487  0.00  0.00    +0.000 A 
ATOM      2  C   UNL     1      -5.670   0.496  -0.702  0.00  0.00    +0.000 A 
ATOM      3  C   UNL     1      -7.016   0.432  -1.070  0.00  0.00    +0.000 A 
ATOM      4  C   UNL     1      -7.641  -0.801  -1.222  0.00  0.00    +0.000 A 
ATOM      5  C   UNL     1      -6.920  -1.974  -1.005  0.00  0.00    +0.000 A 
ATOM      6  C   UNL     1      -5.563  -1.924  -0.635  0.00  0.00    +0.000 A 
ENDROOT
BRANCH   6   7
ATOM      7  C   UNL     1      -4.794  -3.201  -0.402  0.00  0.00    +0.000 C 
ATOM      8  F   UNL     1      -3.687  -3.317  -1.190  0.00  0.00    +0.000 F 
ATOM      9  F   UNL     1      -4.369  -3.346   0.884  0.00  0.00    +0.000 F 
ATOM     10  F   UNL     1      -5.533  -4.322  -0.663  0.00  0.00    +0.000 F 
ENDBRANCH   6   7
BRANCH   1  11
ATOM     11  O   UNL     1      -3.621  -0.712  -0.116  0.00  0.00    +0.000 OA
BRANCH  11  12
ATOM     12  C   UNL     1      -2.879   0.508  -0.164  0.00  0.00    +0.000 C 
BRANCH  12  16
ATOM     13  C   UNL     1       1.323  -0.217   0.531  0.00  0.00    +0.000 A 
ATOM     14  C   UNL     1       0.569  -1.144  -0.186  0.00  0.00    +0.000 A 
ATOM     15  C   UNL     1      -0.791  -0.919  -0.405  0.00  0.00    +0.000 A 
ATOM     16  C   UNL     1      -1.417   0.231   0.102  0.00  0.00    +0.000 A 
ATOM     17  C   UNL     1      -0.642   1.162   0.809  0.00  0.00    +0.000 A 
ATOM     18  C   UNL     1       0.719   0.936   1.026  0.00  0.00    +0.000 A 
ENDBRANCH  12  16
ENDBRANCH  11  12
ENDBRANCH   1  11
TORSDOF 4
