REMARK  Name = *****
REMARK  0 active torsions:
REMARK  status: ('A' for Active; 'I' for Inactive)
REMARK                            x       y       z     vdW  Elec       q    Type
REMARK                         _______ _______ _______ _____ _____    ______ ____
ROOT
ATOM      1  C   UNL     1       1.068  -0.089   0.829  0.00  0.00    +0.000 C 
ATOM      2  C   UNL     1       1.944   0.338   2.020  0.00  0.00    +0.000 C 
ATOM      3  C   UNL     1       2.928   1.015   1.003  0.00  0.00    +0.000 C 
ATOM      4  C   UNL     1       2.315   0.040  -0.064  0.00  0.00    +0.000 C 
ATOM      5  C   UNL     1       2.644   2.472   0.611  0.00  0.00    +0.000 C 
ATOM      6  S   UNL     1       2.760   3.655   1.974  0.00  0.00    +0.000 S 
ATOM      7  C   UNL     1       4.522   3.962   1.959  0.00  0.00    +0.000 A 
ATOM      8  C   UNL     1       4.936   5.262   1.634  0.00  0.00    +0.000 A 
ATOM      9  C   UNL     1       6.290   5.599   1.621  0.00  0.00    +0.000 A 
ATOM     10  C   UNL     1       7.245   4.642   1.947  0.00  0.00    +0.000 A 
ATOM     11  C   UNL     1       6.845   3.349   2.286  0.00  0.00    +0.000 A 
ATOM     12  C   UNL     1       5.487   2.994   2.289  0.00  0.00    +0.000 A 
ATOM     13  S   UNL     1       5.090   1.318   2.769  0.00  0.00    +0.000 S 
ATOM     14  C   UNL     1       4.414   0.707   1.206  0.00  0.00    +0.000 C 
ENDROOT
TORSDOF 0
