REMARK  Name = *****
REMARK  1 active torsions:
REMARK  status: ('A' for Active; 'I' for Inactive)
REMARK    1  A    between atoms: P_9  and  C_12
REMARK                            x       y       z     vdW  Elec       q    Type
REMARK                         _______ _______ _______ _____ _____    ______ ____
ROOT
ATOM      1  C   UNL     1      -1.091  -1.538   0.058  0.00  0.00    +0.000 C 
ATOM      2  C   UNL     1       0.187  -0.731  -0.006  0.00  0.00    +0.000 A 
ATOM      3  C   UNL     1       1.400  -1.431  -0.131  0.00  0.00    +0.000 A 
ATOM      4  C   UNL     1       2.616  -0.752  -0.228  0.00  0.00    +0.000 A 
ATOM      5  C   UNL     1       2.637   0.638  -0.210  0.00  0.00    +0.000 A 
ATOM      6  C   UNL     1       1.445   1.349  -0.099  0.00  0.00    +0.000 A 
ATOM      7  C   UNL     1       0.215   0.676  -0.010  0.00  0.00    +0.000 A 
ATOM      8  C   UNL     1      -1.046   1.484   0.152  0.00  0.00    +0.000 C 
ATOM      9  P   UNL     1      -2.600   0.582  -0.158  0.00  0.00    +0.000 P 
ATOM     10  S   UNL     1      -3.059   0.373  -2.052  0.00  0.00    +0.000 S 
ATOM     11  O   UNL     1      -2.210  -0.826   0.563  0.00  0.00    +0.000 OA
ENDROOT
BRANCH   9  12
ATOM     12  C   UNL     1      -3.799   1.318   0.953  0.00  0.00    +0.000 A 
ATOM     13  C   UNL     1      -4.558   2.424   0.539  0.00  0.00    +0.000 A 
ATOM     14  C   UNL     1      -5.477   3.022   1.403  0.00  0.00    +0.000 A 
ATOM     15  C   UNL     1      -5.646   2.526   2.693  0.00  0.00    +0.000 A 
ATOM     16  C   UNL     1      -4.900   1.430   3.120  0.00  0.00    +0.000 A 
ATOM     17  C   UNL     1      -3.982   0.830   2.256  0.00  0.00    +0.000 A 
ENDBRANCH   9  12
TORSDOF 1
