REMARK  Name = *****
REMARK  5 active torsions:
REMARK  status: ('A' for Active; 'I' for Inactive)
REMARK    1  A    between atoms: C_1  and  P_2
REMARK    2  A    between atoms: P_2  and  N_3
REMARK    3  A    between atoms: P_2  and  C_10
REMARK    4  A    between atoms: P_2  and  C_12
REMARK    5  A    between atoms: N_3  and  C_4
REMARK                            x       y       z     vdW  Elec       q    Type
REMARK                         _______ _______ _______ _____ _____    ______ ____
ROOT
ATOM      1  C   UNL     1       0.970   0.017  -0.094  0.00  0.00    +0.000 C 
ATOM      2  P   UNL     1       2.800   0.017  -0.094  0.00  0.00    +0.000 P 
ENDROOT
BRANCH   2   3
ATOM      3  C   UNL     1       4.630   0.017  -0.094  0.00  0.00    +0.000 A 
ATOM      4  C   UNL     1       5.506   0.810  -0.857  0.00  0.00    +0.000 A 
ATOM      5  C   UNL     1       6.893   0.717  -0.704  0.00  0.00    +0.000 A 
ATOM      6  C   UNL     1       7.435  -0.169   0.225  0.00  0.00    +0.000 A 
ATOM      7  C   UNL     1       6.590  -0.962   0.997  0.00  0.00    +0.000 A 
ATOM      8  C   UNL     1       5.205  -0.867   0.838  0.00  0.00    +0.000 A 
ENDBRANCH   2   3
BRANCH   2   9
ATOM      9  C   UNL     1       2.771   1.843  -0.202  0.00  0.00    +0.000 C 
ATOM     10  C   UNL     1       2.889   2.604   0.897  0.00  0.00    +0.000 C 
ENDBRANCH   2   9
BRANCH   2  11
ATOM     11  N   UNL     1       2.945  -0.029  -1.626  0.00  0.00    +0.000 NA
BRANCH  11  12
ATOM     12  C   UNL     1       2.682  -1.183  -2.291  0.00  0.00    +0.000 A 
ATOM     13  C   UNL     1       2.685  -2.469  -1.725  0.00  0.00    +0.000 A 
ATOM     14  C   UNL     1       2.419  -3.612  -2.488  0.00  0.00    +0.000 A 
ATOM     15  C   UNL     1       2.150  -3.498  -3.848  0.00  0.00    +0.000 A 
ATOM     16  C   UNL     1       2.154  -2.240  -4.440  0.00  0.00    +0.000 A 
ATOM     17  C   UNL     1       2.421  -1.104  -3.668  0.00  0.00    +0.000 A 
ENDBRANCH  11  12
ENDBRANCH   2  11
TORSDOF 4
