REMARK  Name = *****
REMARK  3 active torsions:
REMARK  status: ('A' for Active; 'I' for Inactive)
REMARK    1  A    between atoms: C_1  and  C_2
REMARK    2  A    between atoms: C_5  and  C_8
REMARK    3  A    between atoms: C_9  and  C_10
REMARK                            x       y       z     vdW  Elec       q    Type
REMARK                         _______ _______ _______ _____ _____    ______ ____
ROOT
ATOM      1  C   UNL     1      -3.272   0.034  -0.025  0.00  0.00    +0.000 C 
ATOM      2  C   UNL     1      -4.050   1.128  -0.076  0.00  0.00    +0.000 C 
ENDROOT
BRANCH   1   7
ATOM      3  C   UNL     1       2.519   0.031  -0.077  0.00  0.00    +0.000 C 
ATOM      4  C   UNL     1       1.020   0.062  -0.084  0.00  0.00    +0.000 A 
ATOM      5  C   UNL     1       0.325   1.039   0.636  0.00  0.00    +0.000 A 
ATOM      6  C   UNL     1      -1.074   1.047   0.655  0.00  0.00    +0.000 A 
ATOM      7  C   UNL     1      -1.802   0.079  -0.047  0.00  0.00    +0.000 A 
ATOM      8  C   UNL     1      -1.104  -0.916  -0.740  0.00  0.00    +0.000 A 
ATOM      9  C   UNL     1       0.294  -0.925  -0.760  0.00  0.00    +0.000 A 
ENDBRANCH   1   7
BRANCH   2  10
ATOM     10  C   UNL     1      -5.522   1.113  -0.048  0.00  0.00    +0.000 A 
ATOM     11  C   UNL     1      -6.277   0.070  -0.604  0.00  0.00    +0.000 A 
ATOM     12  C   UNL     1      -7.676   0.111  -0.582  0.00  0.00    +0.000 A 
ATOM     13  C   UNL     1      -8.339   1.199  -0.015  0.00  0.00    +0.000 A 
ATOM     14  C   UNL     1      -7.603   2.251   0.524  0.00  0.00    +0.000 A 
ATOM     15  C   UNL     1      -6.210   2.205   0.499  0.00  0.00    +0.000 A 
ATOM     16  F   UNL     1      -5.531   3.239   1.021  0.00  0.00    +0.000 F 
ENDBRANCH   2  10
TORSDOF 2
