REMARK  Name = *****
REMARK  2 active torsions:
REMARK  status: ('A' for Active; 'I' for Inactive)
REMARK    1  A    between atoms: C_3  and  C_5
REMARK    2  A    between atoms: C_7  and  C_9
REMARK                            x       y       z     vdW  Elec       q    Type
REMARK                         _______ _______ _______ _____ _____    ______ ____
ROOT
ATOM      1  C   UNL     1      -0.362  -1.477  -1.522  0.00  0.00    +0.000 C 
ATOM      2  C   UNL     1       0.262  -0.638  -2.656  0.00  0.00    +0.000 C 
ATOM      3  C   UNL     1      -1.000  -0.900  -3.502  0.00  0.00    +0.000 C 
ATOM      4  C   UNL     1      -1.735  -1.304  -2.205  0.00  0.00    +0.000 C 
ENDROOT
BRANCH   1   7
ATOM      5  C   UNL     1       1.096   0.656   0.261  0.00  0.00    +0.000 C 
ATOM      6  C   UNL     1      -0.431   0.622   0.065  0.00  0.00    +0.000 C 
ATOM      7  C   UNL     1      -0.356  -0.905  -0.095  0.00  0.00    +0.000 C 
ATOM      8  C   UNL     1       1.067  -0.863   0.498  0.00  0.00    +0.000 C 
ENDBRANCH   1   7
BRANCH   3   9
ATOM      9  C   UNL     1      -0.957  -2.053  -4.517  0.00  0.00    +0.000 C 
ATOM     10  C   UNL     1      -0.036  -3.260  -4.235  0.00  0.00    +0.000 C 
ATOM     11  C   UNL     1       0.310  -3.238  -5.742  0.00  0.00    +0.000 C 
ATOM     12  C   UNL     1      -0.037  -1.734  -5.719  0.00  0.00    +0.000 C 
ENDBRANCH   3   9
TORSDOF 2
