REMARK  Name = *****
REMARK  5 active torsions:
REMARK  status: ('A' for Active; 'I' for Inactive)
REMARK    1  A    between atoms: C_1  and  C_2
REMARK    2  A    between atoms: C_2  and  C_18
REMARK    3  A    between atoms: C_8  and  C_9
REMARK    4  A    between atoms: C_9  and  S_11
REMARK    5  A    between atoms: S_11  and  C_12
REMARK                            x       y       z     vdW  Elec       q    Type
REMARK                         _______ _______ _______ _____ _____    ______ ____
ROOT
ATOM      1  C   UNL     1       1.007  -0.074   0.244  0.00  0.00    +0.000 C 
ATOM      2  C   UNL     1       2.545   0.010   0.064  0.00  0.00    +0.000 C 
ATOM      3  C   UNL     1       2.875   1.096  -0.994  0.00  0.00    +0.000 C 
ATOM      4  C   UNL     1       2.477   0.702  -2.420  0.00  0.00    +0.000 C 
ATOM      5  C   UNL     1       3.027  -0.664  -2.825  0.00  0.00    +0.000 C 
ATOM      6  C   UNL     1       2.681  -1.716  -1.799  0.00  0.00    +0.000 C 
ATOM      7  C   UNL     1       2.028  -2.844  -2.127  0.00  0.00    +0.000 C 
ATOM      8  C   UNL     1       3.088  -1.393  -0.367  0.00  0.00    +0.000 C 
ATOM      9  C   UNL     1       3.124   0.437   1.430  0.00  0.00    +0.000 C 
ENDROOT
BRANCH   8  10
ATOM     10  C   UNL     1       4.618  -1.538  -0.265  0.00  0.00    +0.000 C 
ATOM     11  O   UNL     1       5.423  -0.642  -0.493  0.00  0.00    +0.000 OA
BRANCH  10  12
ATOM     12  S   UNL     1       5.173  -3.155   0.199  0.00  0.00    +0.000 S 
BRANCH  12  13
ATOM     13  C   UNL     1       5.998  -3.651  -1.303  0.00  0.00    +0.000 A 
ATOM     14  C   UNL     1       7.108  -2.954  -1.790  0.00  0.00    +0.000 A 
ATOM     15  C   UNL     1       7.743  -3.366  -2.963  0.00  0.00    +0.000 A 
ATOM     16  C   UNL     1       7.280  -4.485  -3.651  0.00  0.00    +0.000 A 
ATOM     17  C   UNL     1       6.183  -5.195  -3.166  0.00  0.00    +0.000 A 
ATOM     18  C   UNL     1       5.545  -4.781  -1.994  0.00  0.00    +0.000 A 
ENDBRANCH  12  13
ENDBRANCH  10  12
ENDBRANCH   8  10
TORSDOF 3
