REMARK  Name = *****
REMARK  4 active torsions:
REMARK  status: ('A' for Active; 'I' for Inactive)
REMARK    1  A    between atoms: C_1  and  C_2
REMARK    2  A    between atoms: C_5  and  C_8
REMARK    3  A    between atoms: C_8  and  C_10
REMARK    4  A    between atoms: C_10  and  C_11
REMARK                            x       y       z     vdW  Elec       q    Type
REMARK                         _______ _______ _______ _____ _____    ______ ____
ROOT
ATOM      1  C   UNL     1      -3.335   0.020   0.265  0.00  0.00    +0.000 C 
ATOM      2  O   UNL     1      -3.985  -1.025   0.323  0.00  0.00    +0.000 OA
ENDROOT
BRANCH   1   7
ATOM      3  C   UNL     1       2.111  -0.091   2.298  0.00  0.00    +0.000 C 
ATOM      4  C   UNL     1       0.701  -0.046   1.787  0.00  0.00    +0.000 A 
ATOM      5  C   UNL     1      -0.107  -1.186   1.824  0.00  0.00    +0.000 A 
ATOM      6  C   UNL     1      -1.411  -1.144   1.324  0.00  0.00    +0.000 A 
ATOM      7  C   UNL     1      -1.926   0.035   0.768  0.00  0.00    +0.000 A 
ATOM      8  C   UNL     1      -1.110   1.170   0.711  0.00  0.00    +0.000 A 
ATOM      9  C   UNL     1       0.195   1.127   1.214  0.00  0.00    +0.000 A 
ENDBRANCH   1   7
BRANCH   1  10
ATOM     10  C   UNL     1      -3.962   1.290  -0.282  0.00  0.00    +0.000 C 
BRANCH  10  11
ATOM     11  C   UNL     1      -4.352   2.298   0.780  0.00  0.00    +0.000 A 
ATOM     12  C   UNL     1      -4.175   3.683   0.611  0.00  0.00    +0.000 A 
ATOM     13  C   UNL     1      -4.568   4.584   1.606  0.00  0.00    +0.000 A 
ATOM     14  C   UNL     1      -5.155   4.112   2.775  0.00  0.00    +0.000 A 
ATOM     15  C   UNL     1      -5.365   2.749   2.955  0.00  0.00    +0.000 A 
ATOM     16  C   UNL     1      -4.976   1.849   1.961  0.00  0.00    +0.000 A 
ATOM     17 CL   UNL     1      -5.635   5.220   4.000  0.00  0.00    +0.000 Cl
ATOM     18 CL   UNL     1      -3.473   4.351  -0.820  0.00  0.00    +0.000 Cl
ENDBRANCH  10  11
ENDBRANCH   1  10
TORSDOF 3
