REMARK  Name = *****
REMARK  3 active torsions:
REMARK  status: ('A' for Active; 'I' for Inactive)
REMARK    1  A    between atoms: N_2  and  C_3
REMARK    2  A    between atoms: C_8  and  C_9
REMARK    3  A    between atoms: C_10  and  C_11
REMARK                            x       y       z     vdW  Elec       q    Type
REMARK                         _______ _______ _______ _____ _____    ______ ____
ROOT
ATOM      1  C   UNL     1       3.688  -2.546  -0.268  0.00  0.00    +0.000 C 
ATOM      2  C   UNL     1       3.120  -3.603  -0.329  0.00  0.00    +0.000 C 
ENDROOT
BRANCH   2   3
ATOM      3  C   UNL     1       2.435  -4.854  -0.430  0.00  0.00    +0.000 A 
ATOM      4  C   UNL     1       3.109  -6.047  -0.150  0.00  0.00    +0.000 A 
ATOM      5  C   UNL     1       2.443  -7.268  -0.268  0.00  0.00    +0.000 A 
ATOM      6  C   UNL     1       1.109  -7.286  -0.663  0.00  0.00    +0.000 A 
ATOM      7  C   UNL     1       0.427  -6.106  -0.940  0.00  0.00    +0.000 A 
ATOM      8  C   UNL     1       1.092  -4.884  -0.822  0.00  0.00    +0.000 A 
ATOM      9  F   UNL     1       0.473  -8.458  -0.781  0.00  0.00    +0.000 F 
ENDBRANCH   2   3
BRANCH   1  15
ATOM     10  C   UNL     1       3.660  -0.077  -0.114  0.00  0.00    +0.000 A 
ATOM     11  C   UNL     1       4.328   1.150  -0.088  0.00  0.00    +0.000 A 
ATOM     12  C   UNL     1       5.720   1.173  -0.172  0.00  0.00    +0.000 A 
ATOM     13  C   UNL     1       6.431  -0.024  -0.278  0.00  0.00    +0.000 A 
ATOM     14  C   UNL     1       5.754  -1.247  -0.303  0.00  0.00    +0.000 A 
ATOM     15  C   UNL     1       4.359  -1.283  -0.222  0.00  0.00    +0.000 A 
BRANCH  10  17
ATOM     16  C   UNL     1       1.101  -0.038   0.034  0.00  0.00    +0.000 C 
ATOM     17  N   UNL     1       2.271  -0.068  -0.033  0.00  0.00    +0.000 NA
ENDBRANCH  10  17
ENDBRANCH   1  15
TORSDOF 3
