REMARK  Name = *****
REMARK  3 active torsions:
REMARK  status: ('A' for Active; 'I' for Inactive)
REMARK    1  A    between atoms: C_1  and  C_2
REMARK    2  A    between atoms: C_5  and  C_18
REMARK    3  A    between atoms: C_6  and  C_12
REMARK                            x       y       z     vdW  Elec       q    Type
REMARK                         _______ _______ _______ _____ _____    ______ ____
ROOT
ATOM      1  C   UNL     1       0.899   0.244   0.131  0.00  0.00    +0.000 C 
ATOM      2  C   UNL     1       2.399   0.209   0.123  0.00  0.00    +0.000 A 
ATOM      3  C   UNL     1       3.082  -1.017   0.177  0.00  0.00    +0.000 A 
ATOM      4  C   UNL     1       4.496  -1.099   0.140  0.00  0.00    +0.000 A 
ATOM      5  C   UNL     1       5.233  -2.316   0.211  0.00  0.00    +0.000 A 
ATOM      6  C   UNL     1       6.635  -2.257   0.101  0.00  0.00    +0.000 A 
ATOM      7  N   UNL     1       7.313  -1.087   0.002  0.00  0.00    +0.000 NA
ATOM      8  C   UNL     1       6.593   0.053  -0.033  0.00  0.00    +0.000 A 
ATOM      9  C   UNL     1       5.205   0.114   0.021  0.00  0.00    +0.000 A 
ATOM     10  C   UNL     1       4.525   1.342  -0.046  0.00  0.00    +0.000 A 
ATOM     11  C   UNL     1       3.133   1.388   0.000  0.00  0.00    +0.000 A 
ATOM     12  C   UNL     1       4.521  -3.635   0.378  0.00  0.00    +0.000 C 
ENDROOT
BRANCH   6  13
ATOM     13  C   UNL     1       7.511  -3.439   0.073  0.00  0.00    +0.000 A 
ATOM     14  C   UNL     1       7.450  -4.368  -0.981  0.00  0.00    +0.000 A 
ATOM     15  C   UNL     1       8.286  -5.488  -1.000  0.00  0.00    +0.000 A 
ATOM     16  C   UNL     1       9.203  -5.691   0.028  0.00  0.00    +0.000 A 
ATOM     17  C   UNL     1       9.291  -4.773   1.072  0.00  0.00    +0.000 A 
ATOM     18  C   UNL     1       8.455  -3.654   1.091  0.00  0.00    +0.000 A 
ENDBRANCH   6  13
TORSDOF 1
