REMARK  Name = *****
REMARK  3 active torsions:
REMARK  status: ('A' for Active; 'I' for Inactive)
REMARK    1  A    between atoms: C_1  and  C_2
REMARK    2  A    between atoms: C_5  and  C_8
REMARK    3  A    between atoms: C_9  and  C_10
REMARK                            x       y       z     vdW  Elec       q    Type
REMARK                         _______ _______ _______ _____ _____    ______ ____
ROOT
ATOM      1  C   UNL     1      -3.265  -0.048  -0.050  0.00  0.00    +0.000 C 
ATOM      2  C   UNL     1      -4.075  -1.121  -0.093  0.00  0.00    +0.000 C 
ATOM      3  F   UNL     1      -3.534  -2.364  -0.114  0.00  0.00    +0.000 F 
ATOM      4  F   UNL     1      -3.809   1.194  -0.028  0.00  0.00    +0.000 F 
ENDROOT
BRANCH   1   9
ATOM      5  C   UNL     1       2.539  -0.021  -0.080  0.00  0.00    +0.000 C 
ATOM      6  C   UNL     1       1.039  -0.031  -0.068  0.00  0.00    +0.000 A 
ATOM      7  C   UNL     1       0.306   1.013  -0.637  0.00  0.00    +0.000 A 
ATOM      8  C   UNL     1      -1.092   0.987  -0.622  0.00  0.00    +0.000 A 
ATOM      9  C   UNL     1      -1.790  -0.087  -0.050  0.00  0.00    +0.000 A 
ATOM     10  C   UNL     1      -1.048  -1.122   0.534  0.00  0.00    +0.000 A 
ATOM     11  C   UNL     1       0.352  -1.097   0.520  0.00  0.00    +0.000 A 
ENDBRANCH   1   9
BRANCH   2  12
ATOM     12  C   UNL     1      -5.550  -1.079  -0.099  0.00  0.00    +0.000 A 
ATOM     13  C   UNL     1      -6.287  -0.047  -0.703  0.00  0.00    +0.000 A 
ATOM     14  C   UNL     1      -7.685  -0.073  -0.704  0.00  0.00    +0.000 A 
ATOM     15  C   UNL     1      -8.353  -1.136  -0.111  0.00  0.00    +0.000 A 
ATOM     16  C   UNL     1      -7.650  -2.177   0.479  0.00  0.00    +0.000 A 
ATOM     17  C   UNL     1      -6.252  -2.151   0.479  0.00  0.00    +0.000 A 
ATOM     18  F   UNL     1      -9.691  -1.161  -0.115  0.00  0.00    +0.000 F 
ENDBRANCH   2  12
TORSDOF 2
