REMARK  Name = *****
REMARK  5 active torsions:
REMARK  status: ('A' for Active; 'I' for Inactive)
REMARK    1  A    between atoms: C_1  and  C_2
REMARK    2  A    between atoms: C_5  and  C_8
REMARK    3  A    between atoms: C_8  and  C_9
REMARK    4  A    between atoms: C_9  and  C_10
REMARK    5  A    between atoms: C_10  and  C_12
REMARK                            x       y       z     vdW  Elec       q    Type
REMARK                         _______ _______ _______ _____ _____    ______ ____
ROOT
ATOM      1  C   UNL     1      -3.745  -0.776   1.333  0.00  0.00    +0.000 C 
ATOM      2 CL   UNL     1      -3.244  -1.435   2.930  0.00  0.00    +0.000 Cl
ENDROOT
BRANCH   1   3
ATOM      3  C   UNL     1      -5.272  -0.688   1.136  0.00  0.00    +0.000 C 
ATOM      4 CL   UNL     1      -6.139  -2.223   1.469  0.00  0.00    +0.000 Cl
BRANCH   3   9
ATOM      5  C   UNL     1      -7.587   3.873   3.971  0.00  0.00    +0.000 C 
ATOM      6  C   UNL     1      -7.027   2.687   3.243  0.00  0.00    +0.000 A 
ATOM      7  C   UNL     1      -6.688   1.524   3.941  0.00  0.00    +0.000 A 
ATOM      8  C   UNL     1      -6.137   0.428   3.272  0.00  0.00    +0.000 A 
ATOM      9  C   UNL     1      -5.904   0.471   1.890  0.00  0.00    +0.000 A 
ATOM     10  C   UNL     1      -6.234   1.649   1.198  0.00  0.00    +0.000 A 
ATOM     11  C   UNL     1      -6.785   2.745   1.868  0.00  0.00    +0.000 A 
ENDBRANCH   3   9
ENDBRANCH   1   3
BRANCH   1  12
ATOM     12  C   UNL     1      -3.108  -1.605   0.222  0.00  0.00    +0.000 C 
ATOM     13  O   UNL     1      -2.764  -2.777   0.370  0.00  0.00    +0.000 OA
BRANCH  12  14
ATOM     14  C   UNL     1      -2.926  -0.991  -1.136  0.00  0.00    +0.000 A 
ATOM     15  C   UNL     1      -2.606  -1.845  -2.203  0.00  0.00    +0.000 A 
ATOM     16  C   UNL     1      -2.433  -1.339  -3.493  0.00  0.00    +0.000 A 
ATOM     17  C   UNL     1      -2.576   0.025  -3.729  0.00  0.00    +0.000 A 
ATOM     18  C   UNL     1      -2.888   0.884  -2.677  0.00  0.00    +0.000 A 
ATOM     19  C   UNL     1      -3.061   0.382  -1.383  0.00  0.00    +0.000 A 
ENDBRANCH  12  14
ENDBRANCH   1  12
TORSDOF 4
