REMARK  Name = *****
REMARK  4 active torsions:
REMARK  status: ('A' for Active; 'I' for Inactive)
REMARK    1  A    between atoms: C_1  and  C_2
REMARK    2  A    between atoms: C_3  and  C_18
REMARK    3  A    between atoms: C_5  and  N_8
REMARK    4  A    between atoms: C_9  and  C_10
REMARK                            x       y       z     vdW  Elec       q    Type
REMARK                         _______ _______ _______ _____ _____    ______ ____
ROOT
ATOM      1  N   UNL     1      -3.171  -1.230   0.596  0.00  0.00    +0.000 NA
ATOM      2  C   UNL     1      -3.975  -1.178  -0.419  0.00  0.00    +0.000 C 
ENDROOT
BRANCH   1   7
ATOM      3  C   UNL     1       1.834   1.478  -0.012  0.00  0.00    +0.000 C 
ATOM      4  C   UNL     1       0.529   0.745   0.133  0.00  0.00    +0.000 A 
ATOM      5  C   UNL     1       0.426  -0.634  -0.139  0.00  0.00    +0.000 A 
ATOM      6  C   UNL     1      -0.815  -1.274   0.018  0.00  0.00    +0.000 A 
ATOM      7  C   UNL     1      -1.945  -0.568   0.436  0.00  0.00    +0.000 A 
ATOM      8  C   UNL     1      -1.830   0.790   0.727  0.00  0.00    +0.000 A 
ATOM      9  C   UNL     1      -0.606   1.443   0.573  0.00  0.00    +0.000 A 
ATOM     10  C   UNL     1       1.614  -1.437  -0.593  0.00  0.00    +0.000 C 
ENDBRANCH   1   7
BRANCH   2  11
ATOM     11  C   UNL     1      -5.298  -1.829  -0.392  0.00  0.00    +0.000 A 
ATOM     12  C   UNL     1      -6.124  -1.721  -1.513  0.00  0.00    +0.000 A 
ATOM     13  C   UNL     1      -7.374  -2.333  -1.493  0.00  0.00    +0.000 A 
ATOM     14  C   UNL     1      -7.799  -3.043  -0.375  0.00  0.00    +0.000 A 
ATOM     15  C   UNL     1      -6.980  -3.153   0.744  0.00  0.00    +0.000 A 
ATOM     16  C   UNL     1      -5.723  -2.543   0.737  0.00  0.00    +0.000 A 
ATOM     17  F   UNL     1      -9.004  -3.628  -0.367  0.00  0.00    +0.000 F 
ATOM     18  F   UNL     1      -8.168  -2.230  -2.567  0.00  0.00    +0.000 F 
ENDBRANCH   2  11
TORSDOF 2
