REMARK  Name = *****
REMARK  3 active torsions:
REMARK  status: ('A' for Active; 'I' for Inactive)
REMARK    1  A    between atoms: C_4  and  C_6
REMARK    2  A    between atoms: C_7  and  C_8
REMARK    3  A    between atoms: C_11  and  C_14
REMARK                            x       y       z     vdW  Elec       q    Type
REMARK                         _______ _______ _______ _____ _____    ______ ____
ROOT
ATOM      1  C   UNL     1       2.085  -0.060   0.019  0.00  0.00    +0.000 A 
ATOM      2  C   UNL     1       2.714   1.186   0.027  0.00  0.00    +0.000 A 
ATOM      3  C   UNL     1       4.109   1.269   0.043  0.00  0.00    +0.000 A 
ATOM      4  C   UNL     1       4.892   0.104   0.052  0.00  0.00    +0.000 A 
ATOM      5  C   UNL     1       4.249  -1.144   0.043  0.00  0.00    +0.000 A 
ATOM      6  C   UNL     1       2.854  -1.225   0.027  0.00  0.00    +0.000 A 
ENDROOT
BRANCH   4   7
ATOM      7  C   UNL     1       6.400   0.174   0.072  0.00  0.00    +0.000 C 
ATOM      8  F   UNL     1       6.888   1.446   0.073  0.00  0.00    +0.000 F 
ATOM      9  F   UNL     1       6.934  -0.430   1.169  0.00  0.00    +0.000 F 
ATOM     10  F   UNL     1       6.964  -0.440  -1.005  0.00  0.00    +0.000 F 
ENDBRANCH   4   7
BRANCH   1  12
ATOM     11  C   UNL     1      -0.542  -0.204  -0.002  0.00  0.00    +0.000 C 
ATOM     12  C   UNL     1       0.658  -0.142   0.006  0.00  0.00    +0.000 C 
BRANCH  11  16
ATOM     13  C   UNL     1      -4.104  -1.194  -0.012  0.00  0.00    +0.000 A 
ATOM     14  C   UNL     1      -4.390   0.153  -0.018  0.00  0.00    +0.000 A 
ATOM     15  S   UNL     1      -2.971   1.109  -0.018  0.00  0.00    +0.000 S 
ATOM     16  C   UNL     1      -1.966  -0.273  -0.008  0.00  0.00    +0.000 A 
ATOM     17  C   UNL     1      -2.699  -1.440  -0.007  0.00  0.00    +0.000 A 
ENDBRANCH  11  16
ENDBRANCH   1  12
TORSDOF 3
