REMARK  Name = *****
REMARK  4 active torsions:
REMARK  status: ('A' for Active; 'I' for Inactive)
REMARK    1  A    between atoms: C_1  and  C_2
REMARK    2  A    between atoms: C_7  and  C_8
REMARK    3  A    between atoms: C_8  and  C_9
REMARK    4  A    between atoms: C_9  and  C_10
REMARK                            x       y       z     vdW  Elec       q    Type
REMARK                         _______ _______ _______ _____ _____    ______ ____
ROOT
ATOM      1  C   UNL     1       0.923  -2.480   0.022  0.00  0.00    +0.000 C 
ENDROOT
BRANCH   1   8
ATOM      2  C   UNL     1       0.185  -0.861   2.468  0.00  0.00    +0.000 C 
ATOM      3  C   UNL     1      -0.019  -0.336   1.073  0.00  0.00    +0.000 A 
ATOM      4  C   UNL     1      -0.576   0.943   0.904  0.00  0.00    +0.000 A 
ATOM      5  C   UNL     1      -0.791   1.470  -0.369  0.00  0.00    +0.000 A 
ATOM      6  C   UNL     1      -0.455   0.726  -1.494  0.00  0.00    +0.000 A 
ATOM      7  C   UNL     1       0.093  -0.547  -1.344  0.00  0.00    +0.000 A 
ATOM      8  C   UNL     1       0.311  -1.096  -0.068  0.00  0.00    +0.000 A 
ENDBRANCH   1   8
BRANCH   1   9
ATOM      9  C   UNL     1       2.456  -2.429  -0.004  0.00  0.00    +0.000 C 
BRANCH   9  10
ATOM     10  C   UNL     1       3.185  -3.756   0.039  0.00  0.00    +0.000 A 
ATOM     11  C   UNL     1       2.541  -5.000   0.058  0.00  0.00    +0.000 A 
ATOM     12  C   UNL     1       3.280  -6.187   0.083  0.00  0.00    +0.000 A 
ATOM     13  C   UNL     1       4.672  -6.147   0.089  0.00  0.00    +0.000 A 
ATOM     14  C   UNL     1       5.328  -4.920   0.072  0.00  0.00    +0.000 A 
ATOM     15  C   UNL     1       4.590  -3.735   0.046  0.00  0.00    +0.000 A 
ENDBRANCH   9  10
ENDBRANCH   1   9
TORSDOF 3
