REMARK  Name = *****
REMARK  3 active torsions:
REMARK  status: ('A' for Active; 'I' for Inactive)
REMARK    1  A    between atoms: C_1  and  C_2
REMARK    2  A    between atoms: N_10  and  C_12
REMARK    3  A    between atoms: C_12  and  C_13
REMARK                            x       y       z     vdW  Elec       q    Type
REMARK                         _______ _______ _______ _____ _____    ______ ____
ROOT
ATOM      1  C   UNL     1       1.003  -0.049  -0.912  0.00  0.00    +0.000 C 
ATOM      2  C   UNL     1       2.421  -0.112  -0.427  0.00  0.00    +0.000 A 
ATOM      3  C   UNL     1       3.149   1.042  -0.123  0.00  0.00    +0.000 A 
ATOM      4  C   UNL     1       4.459   0.961   0.330  0.00  0.00    +0.000 A 
ATOM      5  C   UNL     1       5.080  -0.272   0.507  0.00  0.00    +0.000 A 
ATOM      6  C   UNL     1       4.369  -1.434   0.215  0.00  0.00    +0.000 A 
ATOM      7  C   UNL     1       3.051  -1.355  -0.250  0.00  0.00    +0.000 A 
ATOM      8  S   UNL     1       5.266   2.530   0.625  0.00  0.00    +0.000 S 
ATOM      9  O   UNL     1       5.946   2.382   1.954  0.00  0.00    +0.000 OA
ATOM     10  N   UNL     1       3.832   3.393   0.671  0.00  0.00    +0.000 NA
ATOM     11  S   UNL     1       2.599   2.719  -0.214  0.00  0.00    +0.000 S 
ENDROOT
BRANCH  10  12
ATOM     12  C   UNL     1       3.578   4.344   1.754  0.00  0.00    +0.000 C 
BRANCH  12  13
ATOM     13  C   UNL     1       4.390   5.614   1.616  0.00  0.00    +0.000 A 
ATOM     14  C   UNL     1       4.002   6.612   0.709  0.00  0.00    +0.000 A 
ATOM     15  C   UNL     1       4.757   7.777   0.573  0.00  0.00    +0.000 A 
ATOM     16  C   UNL     1       5.910   7.955   1.335  0.00  0.00    +0.000 A 
ATOM     17  C   UNL     1       6.312   6.966   2.231  0.00  0.00    +0.000 A 
ATOM     18  C   UNL     1       5.557   5.800   2.371  0.00  0.00    +0.000 A 
ENDBRANCH  12  13
ENDBRANCH  10  12
TORSDOF 2
