REMARK  Name = *****
REMARK  2 active torsions:
REMARK  status: ('A' for Active; 'I' for Inactive)
REMARK    1  A    between atoms: C_4  and  C_7
REMARK    2  A    between atoms: C_8  and  C_9
REMARK                            x       y       z     vdW  Elec       q    Type
REMARK                         _______ _______ _______ _____ _____    ______ ____
ROOT
ATOM      1  C   UNL     1       2.928   0.195  -0.241  0.00  0.00    +0.000 C 
ATOM      2  C   UNL     1       4.121   0.250  -0.375  0.00  0.00    +0.000 C 
ENDROOT
BRANCH   2   3
ATOM      3  C   UNL     1       5.540   0.306  -0.566  0.00  0.00    +0.000 A 
ATOM      4  C   UNL     1       6.155   1.562  -0.644  0.00  0.00    +0.000 A 
ATOM      5  C   UNL     1       7.533   1.662  -0.853  0.00  0.00    +0.000 A 
ATOM      6  C   UNL     1       8.304   0.509  -0.984  0.00  0.00    +0.000 A 
ATOM      7  C   UNL     1       7.700  -0.746  -0.903  0.00  0.00    +0.000 A 
ATOM      8  C   UNL     1       6.321  -0.851  -0.694  0.00  0.00    +0.000 A 
ATOM      9 CL   UNL     1       5.636  -2.436  -0.607  0.00  0.00    +0.000 Cl
ENDBRANCH   2   3
BRANCH   1  13
ATOM     10  C   UNL     1      -1.274  -0.058   0.088  0.00  0.00    +0.000 A 
ATOM     11  C   UNL     1      -0.654   1.190   0.041  0.00  0.00    +0.000 A 
ATOM     12  C   UNL     1       0.736   1.276  -0.060  0.00  0.00    +0.000 A 
ATOM     13  C   UNL     1       1.506   0.112  -0.114  0.00  0.00    +0.000 A 
ATOM     14  C   UNL     1       0.883  -1.137  -0.063  0.00  0.00    +0.000 A 
ATOM     15  C   UNL     1      -0.507  -1.222   0.038  0.00  0.00    +0.000 A 
ENDBRANCH   1  13
TORSDOF 2
