REMARK  Name = *****
REMARK  2 active torsions:
REMARK  status: ('A' for Active; 'I' for Inactive)
REMARK    1  A    between atoms: C_5  and  C_7
REMARK    2  A    between atoms: C_8  and  C_9
REMARK                            x       y       z     vdW  Elec       q    Type
REMARK                         _______ _______ _______ _____ _____    ______ ____
ROOT
ATOM      1  C   UNL     1       2.937   0.207  -0.318  0.00  0.00    +0.000 C 
ATOM      2  C   UNL     1       4.130   0.263  -0.453  0.00  0.00    +0.000 C 
ENDROOT
BRANCH   1   7
ATOM      3  C   UNL     1      -0.481  -1.212   0.077  0.00  0.00    +0.000 A 
ATOM      4  C   UNL     1      -1.265  -0.062   0.147  0.00  0.00    +0.000 A 
ATOM      5  C   UNL     1      -0.666   1.196   0.065  0.00  0.00    +0.000 A 
ATOM      6  C   UNL     1       0.721   1.304  -0.088  0.00  0.00    +0.000 A 
ATOM      7  C   UNL     1       1.514   0.151  -0.160  0.00  0.00    +0.000 A 
ATOM      8  C   UNL     1       0.903  -1.106  -0.075  0.00  0.00    +0.000 A 
ATOM      9 BR   UNL     1       1.461   3.052  -0.193  0.00  0.00    +0.000 Br
ENDBRANCH   1   7
BRANCH   2  10
ATOM     10  C   UNL     1       5.548   0.349  -0.616  0.00  0.00    +0.000 A 
ATOM     11  C   UNL     1       6.165   1.598  -0.691  0.00  0.00    +0.000 A 
ATOM     12  C   UNL     1       7.544   1.667  -0.852  0.00  0.00    +0.000 A 
ATOM     13  C   UNL     1       8.318   0.514  -0.939  0.00  0.00    +0.000 A 
ATOM     14  C   UNL     1       7.702  -0.734  -0.865  0.00  0.00    +0.000 A 
ATOM     15  C   UNL     1       6.316  -0.817  -0.703  0.00  0.00    +0.000 A 
ATOM     16  F   UNL     1       8.140   2.865  -0.924  0.00  0.00    +0.000 F 
ENDBRANCH   2  10
TORSDOF 2
