REMARK  Name = *****
REMARK  3 active torsions:
REMARK  status: ('A' for Active; 'I' for Inactive)
REMARK    1  A    between atoms: C_5  and  C_7
REMARK    2  A    between atoms: C_7  and  S_8
REMARK    3  A    between atoms: S_8  and  C_9
REMARK                            x       y       z     vdW  Elec       q    Type
REMARK                         _______ _______ _______ _____ _____    ______ ____
ROOT
ATOM      1  C   UNL     1      -0.891  -2.253  -0.521  0.00  0.00    +0.000 C 
ENDROOT
BRANCH   1   6
ATOM      2  C   UNL     1       0.534   1.227  -1.112  0.00  0.00    +0.000 A 
ATOM      3  C   UNL     1       1.520   1.317  -0.133  0.00  0.00    +0.000 A 
ATOM      4  C   UNL     1       1.735   0.247   0.735  0.00  0.00    +0.000 A 
ATOM      5  C   UNL     1       0.967  -0.917   0.624  0.00  0.00    +0.000 A 
ATOM      6  C   UNL     1      -0.024  -1.028  -0.365  0.00  0.00    +0.000 A 
ATOM      7  C   UNL     1      -0.234   0.066  -1.226  0.00  0.00    +0.000 A 
ATOM      8 CL   UNL     1       1.289  -2.194   1.744  0.00  0.00    +0.000 Cl
ENDBRANCH   1   6
BRANCH   1   9
ATOM      9  S   UNL     1      -2.385  -2.144   0.521  0.00  0.00    +0.000 S 
BRANCH   9  10
ATOM     10  C   UNL     1      -3.054  -3.770   0.217  0.00  0.00    +0.000 A 
ATOM     11  C   UNL     1      -3.743  -4.155  -0.935  0.00  0.00    +0.000 A 
ATOM     12  N   UNL     1      -4.238  -5.398  -1.154  0.00  0.00    +0.000 NA
ATOM     13  C   UNL     1      -4.054  -6.304  -0.173  0.00  0.00    +0.000 A 
ATOM     14  C   UNL     1      -3.398  -6.027   1.015  0.00  0.00    +0.000 A 
ATOM     15  C   UNL     1      -2.894  -4.742   1.209  0.00  0.00    +0.000 A 
ATOM     16 CL   UNL     1      -4.059  -3.084  -2.248  0.00  0.00    +0.000 Cl
ENDBRANCH   9  10
ENDBRANCH   1   9
TORSDOF 3
