REMARK  Name = *****
REMARK  3 active torsions:
REMARK  status: ('A' for Active; 'I' for Inactive)
REMARK    1  A    between atoms: C_1  and  C_2
REMARK    2  A    between atoms: C_5  and  S_7
REMARK    3  A    between atoms: S_7  and  C_8
REMARK                            x       y       z     vdW  Elec       q    Type
REMARK                         _______ _______ _______ _____ _____    ______ ____
ROOT
ATOM      1  C   UNL     1       4.218   3.251   2.904  0.00  0.00    +0.000 A 
ATOM      2  C   UNL     1       5.416   3.974   2.899  0.00  0.00    +0.000 A 
ATOM      3  C   UNL     1       5.439   5.331   2.534  0.00  0.00    +0.000 A 
ATOM      4  C   UNL     1       6.636   6.065   2.521  0.00  0.00    +0.000 A 
ATOM      5  C   UNL     1       6.642   7.413   2.157  0.00  0.00    +0.000 A 
ATOM      6  C   UNL     1       5.454   8.044   1.802  0.00  0.00    +0.000 A 
ATOM      7  C   UNL     1       4.255   7.328   1.810  0.00  0.00    +0.000 A 
ATOM      8  C   UNL     1       4.231   5.972   2.174  0.00  0.00    +0.000 A 
ATOM      9  C   UNL     1       3.034   5.240   2.189  0.00  0.00    +0.000 A 
ATOM     10  C   UNL     1       3.028   3.891   2.554  0.00  0.00    +0.000 A 
ENDROOT
BRANCH   1  11
ATOM     11  S   UNL     1       4.200   1.542   3.404  0.00  0.00    +0.000 S 
BRANCH  11  16
ATOM     12  C   UNL     1       3.566   0.064  -1.019  0.00  0.00    +0.000 C 
ATOM     13  C   UNL     1       4.837   0.202  -0.191  0.00  0.00    +0.000 C 
ATOM     14  C   UNL     1       5.113  -1.015   0.670  0.00  0.00    +0.000 C 
ATOM     15  O   UNL     1       4.632  -0.650   1.954  0.00  0.00    +0.000 OA
ATOM     16  C   UNL     1       4.523   0.707   1.911  0.00  0.00    +0.000 C 
ATOM     17  N   UNL     1       4.662   1.300   0.768  0.00  0.00    +0.000 NA
ENDBRANCH  11  16
ENDBRANCH   1  11
TORSDOF 2
