REMARK  Name = *****
REMARK  3 active torsions:
REMARK  status: ('A' for Active; 'I' for Inactive)
REMARK    1  A    between atoms: C_5  and  C_6
REMARK    2  A    between atoms: C_6  and  S_7
REMARK    3  A    between atoms: S_7  and  C_8
REMARK                            x       y       z     vdW  Elec       q    Type
REMARK                         _______ _______ _______ _____ _____    ______ ____
ROOT
ATOM      1  C   UNL     1      -3.318  -1.281   0.362  0.00  0.00    +0.000 C 
ENDROOT
BRANCH   1   6
ATOM      2  C   UNL     1       1.772   0.064   0.181  0.00  0.00    +0.000 C 
ATOM      3  C   UNL     1       1.008  -1.232   0.450  0.00  0.00    +0.000 C 
ATOM      4  C   UNL     1      -0.251  -1.343  -0.413  0.00  0.00    +0.000 C 
ATOM      5  C   UNL     1      -1.120  -0.116  -0.265  0.00  0.00    +0.000 C 
ATOM      6  C   UNL     1      -2.423  -0.110   0.080  0.00  0.00    +0.000 C 
ATOM      7  C   UNL     1      -0.384   1.181  -0.526  0.00  0.00    +0.000 C 
ATOM      8  C   UNL     1       0.870   1.287   0.342  0.00  0.00    +0.000 C 
ENDBRANCH   1   6
BRANCH   1   9
ATOM      9  S   UNL     1      -3.820  -1.233   2.111  0.00  0.00    +0.000 S 
BRANCH   9  10
ATOM     10  C   UNL     1      -4.900  -2.649   2.117  0.00  0.00    +0.000 A 
ATOM     11  C   UNL     1      -4.387  -3.924   2.374  0.00  0.00    +0.000 A 
ATOM     12  C   UNL     1      -5.234  -5.034   2.377  0.00  0.00    +0.000 A 
ATOM     13  C   UNL     1      -6.596  -4.873   2.128  0.00  0.00    +0.000 A 
ATOM     14  C   UNL     1      -7.114  -3.603   1.880  0.00  0.00    +0.000 A 
ATOM     15  C   UNL     1      -6.268  -2.492   1.876  0.00  0.00    +0.000 A 
ENDBRANCH   9  10
ENDBRANCH   1   9
TORSDOF 3
