REMARK  Name = *****
REMARK  6 active torsions:
REMARK  status: ('A' for Active; 'I' for Inactive)
REMARK    1  A    between atoms: C_1  and  C_2
REMARK    2  A    between atoms: C_5  and  C_8
REMARK    3  A    between atoms: C_8  and  N_9
REMARK    4  A    between atoms: N_11  and  C_17
REMARK    5  A    between atoms: C_12  and  C_16
REMARK    6  A    between atoms: C_13  and  C_15
REMARK                            x       y       z     vdW  Elec       q    Type
REMARK                         _______ _______ _______ _____ _____    ______ ____
ROOT
ATOM      1  N   UNL     1      -3.879   1.445  -0.008  0.00  0.00    +0.000 NA
ATOM      2  C   UNL     1      -5.144   1.669  -0.024  0.00  0.00    +0.000 A 
ATOM      3  N   UNL     1      -5.758   2.915   0.021  0.00  0.00    +0.000 N 
ATOM      4  C   UNL     1      -7.161   2.890  -0.087  0.00  0.00    +0.000 A 
ATOM      5  C   UNL     1      -7.681   1.646  -0.160  0.00  0.00    +0.000 A 
ATOM      6  S   UNL     1      -6.416   0.425  -0.118  0.00  0.00    +0.000 S 
ATOM      7  C   UNL     1      -9.103   1.208  -0.270  0.00  0.00    +0.000 C 
ATOM      8  C   UNL     1      -7.939   4.170  -0.121  0.00  0.00    +0.000 C 
ATOM      9  C   UNL     1      -4.948   4.123   0.011  0.00  0.00    +0.000 C 
ENDROOT
BRANCH   1  10
ATOM     10  C   UNL     1      -3.387   0.074  -0.063  0.00  0.00    +0.000 C 
BRANCH  10  15
ATOM     11  C   UNL     1       2.440   0.059   0.097  0.00  0.00    +0.000 C 
ATOM     12  C   UNL     1       0.941   0.032   0.059  0.00  0.00    +0.000 A 
ATOM     13  C   UNL     1       0.198   0.102   1.242  0.00  0.00    +0.000 A 
ATOM     14  C   UNL     1      -1.199   0.111   1.202  0.00  0.00    +0.000 A 
ATOM     15  C   UNL     1      -1.877   0.050  -0.023  0.00  0.00    +0.000 A 
ATOM     16  C   UNL     1      -1.131   0.012  -1.207  0.00  0.00    +0.000 A 
ATOM     17  C   UNL     1       0.266   0.003  -1.167  0.00  0.00    +0.000 A 
ENDBRANCH  10  15
ENDBRANCH   1  10
TORSDOF 2
