REMARK  Name = *****
REMARK  5 active torsions:
REMARK  status: ('A' for Active; 'I' for Inactive)
REMARK    1  A    between atoms: C_1  and  C_2
REMARK    2  A    between atoms: C_2  and  C_6
REMARK    3  A    between atoms: C_6  and  S_7
REMARK    4  A    between atoms: S_7  and  C_8
REMARK    5  A    between atoms: C_8  and  C_9
REMARK                            x       y       z     vdW  Elec       q    Type
REMARK                         _______ _______ _______ _____ _____    ______ ____
ROOT
ATOM      1  S   UNL     1       4.749  -0.062  -1.827  0.00  0.00    +0.000 S 
ENDROOT
BRANCH   1   2
ATOM      2  C   UNL     1       2.955  -0.038  -1.557  0.00  0.00    +0.000 C 
BRANCH   2   4
ATOM      3  C   UNL     1       3.042   1.254   0.647  0.00  0.00    +0.000 C 
ATOM      4  C   UNL     1       2.577  -0.026  -0.063  0.00  0.00    +0.000 C 
ATOM      5  C   UNL     1       1.038  -0.235   0.148  0.00  0.00    +0.000 C 
ATOM      6  S   UNL     1       1.279  -2.029   0.343  0.00  0.00    +0.000 S 
ATOM      7  C   UNL     1       2.914  -1.328   0.744  0.00  0.00    +0.000 C 
ENDBRANCH   2   4
ENDBRANCH   1   2
BRANCH   1   8
ATOM      8  C   UNL     1       4.751  -0.134  -3.645  0.00  0.00    +0.000 C 
BRANCH   8   9
ATOM      9  C   UNL     1       6.152  -0.134  -4.199  0.00  0.00    +0.000 A 
ATOM     10  C   UNL     1       6.843  -1.339  -4.392  0.00  0.00    +0.000 A 
ATOM     11  C   UNL     1       8.144  -1.337  -4.898  0.00  0.00    +0.000 A 
ATOM     12  C   UNL     1       8.770  -0.132  -5.210  0.00  0.00    +0.000 A 
ATOM     13  C   UNL     1       8.098   1.073  -5.013  0.00  0.00    +0.000 A 
ATOM     14  C   UNL     1       6.797   1.073  -4.507  0.00  0.00    +0.000 A 
ENDBRANCH   8   9
ENDBRANCH   1   8
TORSDOF 4
