REMARK  Name = *****
REMARK  4 active torsions:
REMARK  status: ('A' for Active; 'I' for Inactive)
REMARK    1  A    between atoms: C_4  and  C_7
REMARK    2  A    between atoms: C_7  and  C_8
REMARK    3  A    between atoms: C_8  and  C_9
REMARK    4  A    between atoms: C_12  and  P_15
REMARK                            x       y       z     vdW  Elec       q    Type
REMARK                         _______ _______ _______ _____ _____    ______ ____
ROOT
ATOM      1  C   UNL     1      -5.091  -0.621  -0.518  0.00  0.00    +0.000 A 
ATOM      2  C   UNL     1      -5.635  -0.483  -1.800  0.00  0.00    +0.000 A 
ATOM      3  C   UNL     1      -7.003  -0.247  -1.968  0.00  0.00    +0.000 A 
ATOM      4  C   UNL     1      -7.849  -0.138  -0.858  0.00  0.00    +0.000 A 
ATOM      5  C   UNL     1      -7.303  -0.274   0.423  0.00  0.00    +0.000 A 
ATOM      6  C   UNL     1      -5.935  -0.511   0.592  0.00  0.00    +0.000 A 
ENDROOT
BRANCH   4   7
ATOM      7  P   UNL     1      -9.624   0.171  -1.076  0.00  0.00    +0.000 P 
ATOM      8  H   UNL     1      -9.912   0.266  -2.423  0.00  0.00    +0.000 HD
ATOM      9  H   UNL     1      -9.966   1.351  -0.448  0.00  0.00    +0.000 HD
ENDBRANCH   4   7
BRANCH   1  10
ATOM     10  C   UNL     1      -3.611  -0.856  -0.336  0.00  0.00    +0.000 C 
BRANCH  10  11
ATOM     11  C   UNL     1      -2.843   0.462  -0.204  0.00  0.00    +0.000 C 
BRANCH  11  15
ATOM     12  C   UNL     1       1.382  -0.255   0.282  0.00  0.00    +0.000 A 
ATOM     13  C   UNL     1       0.845  -0.087  -0.993  0.00  0.00    +0.000 A 
ATOM     14  C   UNL     1      -0.521   0.150  -1.151  0.00  0.00    +0.000 A 
ATOM     15  C   UNL     1      -1.362   0.227  -0.033  0.00  0.00    +0.000 A 
ATOM     16  C   UNL     1      -0.814   0.051   1.244  0.00  0.00    +0.000 A 
ATOM     17  C   UNL     1       0.553  -0.187   1.400  0.00  0.00    +0.000 A 
ENDBRANCH  11  15
ENDBRANCH  10  11
ENDBRANCH   1  10
TORSDOF 4
