REMARK  Name = *****
REMARK  2 active torsions:
REMARK  status: ('A' for Active; 'I' for Inactive)
REMARK    1  A    between atoms: C_4  and  O_7
REMARK    2  A    between atoms: O_7  and  C_8
REMARK                            x       y       z     vdW  Elec       q    Type
REMARK                         _______ _______ _______ _____ _____    ______ ____
ROOT
ATOM      1  C   UNL     1       3.047  -2.163  -0.445  0.00  0.00    +0.000 A 
ATOM      2  N   UNL     1       2.732  -2.835   0.638  0.00  0.00    +0.000 NA
ATOM      3  C   UNL     1       3.593  -3.908   0.788  0.00  0.00    +0.000 A 
ATOM      4  C   UNL     1       3.561  -4.853   1.834  0.00  0.00    +0.000 A 
ATOM      5  C   UNL     1       4.496  -5.893   1.861  0.00  0.00    +0.000 A 
ATOM      6  C   UNL     1       5.459  -6.002   0.862  0.00  0.00    +0.000 A 
ATOM      7  C   UNL     1       5.513  -5.077  -0.185  0.00  0.00    +0.000 A 
ATOM      8  C   UNL     1       4.569  -4.037  -0.203  0.00  0.00    +0.000 A 
ATOM      9  S   UNL     1       4.376  -2.760  -1.340  0.00  0.00    +0.000 S 
ENDROOT
BRANCH   1  10
ATOM     10  O   UNL     1       2.391  -1.076  -0.858  0.00  0.00    +0.000 OA
BRANCH  10  14
ATOM     11  C   UNL     1      -1.398   0.596   0.053  0.00  0.00    +0.000 C 
ATOM     12  C   UNL     1      -1.212  -0.900   0.288  0.00  0.00    +0.000 C 
ATOM     13  C   UNL     1       0.021  -1.434  -0.435  0.00  0.00    +0.000 C 
ATOM     14  C   UNL     1       1.286  -0.657  -0.050  0.00  0.00    +0.000 C 
ATOM     15  C   UNL     1       1.087   0.842  -0.305  0.00  0.00    +0.000 C 
ATOM     16  C   UNL     1      -0.142   1.383   0.418  0.00  0.00    +0.000 C 
ENDBRANCH  10  14
ENDBRANCH   1  10
TORSDOF 2
