REMARK  Name = *****
REMARK  4 active torsions:
REMARK  status: ('A' for Active; 'I' for Inactive)
REMARK    1  A    between atoms: C_4  and  C_7
REMARK    2  A    between atoms: C_7  and  C_8
REMARK    3  A    between atoms: C_8  and  C_10
REMARK    4  A    between atoms: C_13  and  C_16
REMARK                            x       y       z     vdW  Elec       q    Type
REMARK                         _______ _______ _______ _____ _____    ______ ____
ROOT
ATOM      1  C   UNL     1      -5.025  -0.912  -0.506  0.00  0.00    +0.000 A 
ATOM      2  C   UNL     1      -5.645   0.340  -0.582  0.00  0.00    +0.000 A 
ATOM      3  C   UNL     1      -7.011   0.434  -0.877  0.00  0.00    +0.000 A 
ATOM      4  C   UNL     1      -7.779  -0.718  -1.103  0.00  0.00    +0.000 A 
ATOM      5  C   UNL     1      -7.155  -1.970  -1.019  0.00  0.00    +0.000 A 
ATOM      6  C   UNL     1      -5.792  -2.065  -0.722  0.00  0.00    +0.000 A 
ENDROOT
BRANCH   4   7
ATOM      7  C   UNL     1      -9.253  -0.628  -1.417  0.00  0.00    +0.000 C 
ATOM      8  F   UNL     1      -9.696   0.649  -1.589  0.00  0.00    +0.000 F 
ATOM      9  F   UNL     1      -9.584  -1.293  -2.559  0.00  0.00    +0.000 F 
ATOM     10  F   UNL     1     -10.028  -1.163  -0.434  0.00  0.00    +0.000 F 
ENDBRANCH   4   7
BRANCH   1  11
ATOM     11  C   UNL     1      -3.570  -1.081  -0.199  0.00  0.00    +0.000 C 
ATOM     12  O   UNL     1      -3.133  -2.211   0.025  0.00  0.00    +0.000 OA
BRANCH  11  13
ATOM     13  C   UNL     1      -2.652   0.128  -0.180  0.00  0.00    +0.000 C 
BRANCH  13  17
ATOM     14  C   UNL     1      -2.677   2.402   3.490  0.00  0.00    +0.000 A 
ATOM     15  C   UNL     1      -2.640   1.010   3.537  0.00  0.00    +0.000 A 
ATOM     16  C   UNL     1      -2.636   0.269   2.353  0.00  0.00    +0.000 A 
ATOM     17  C   UNL     1      -2.684   0.914   1.109  0.00  0.00    +0.000 A 
ATOM     18  C   UNL     1      -2.699   2.316   1.075  0.00  0.00    +0.000 A 
ATOM     19  C   UNL     1      -2.702   3.055   2.260  0.00  0.00    +0.000 A 
ENDBRANCH  13  17
ENDBRANCH  11  13
ENDBRANCH   1  11
TORSDOF 4
