REMARK  Name = *****
REMARK  5 active torsions:
REMARK  status: ('A' for Active; 'I' for Inactive)
REMARK    1  A    between atoms: N_2  and  C_3
REMARK    2  A    between atoms: C_3  and  C_4
REMARK    3  A    between atoms: C_3  and  C_11
REMARK    4  A    between atoms: C_4  and  C_5
REMARK    5  A    between atoms: C_11  and  C_12
REMARK                            x       y       z     vdW  Elec       q    Type
REMARK                         _______ _______ _______ _____ _____    ______ ____
ROOT
ATOM      1  C   UNL     1       3.459   0.420  -0.280  0.00  0.00    +0.000 C 
ENDROOT
BRANCH   1   3
ATOM      2  C   UNL     1       1.067   1.401  -0.667  0.00  0.00    +0.000 C 
ATOM      3  N   UNL     1       2.138   0.959  -0.489  0.00  0.00    +0.000 NA
ENDBRANCH   1   3
BRANCH   1   4
ATOM      4  C   UNL     1       3.840  -0.488  -1.462  0.00  0.00    +0.000 C 
BRANCH   4   5
ATOM      5  C   UNL     1       3.125  -1.819  -1.434  0.00  0.00    +0.000 A 
ATOM      6  C   UNL     1       1.923  -1.999  -2.131  0.00  0.00    +0.000 A 
ATOM      7  C   UNL     1       1.258  -3.225  -2.087  0.00  0.00    +0.000 A 
ATOM      8  C   UNL     1       1.786  -4.281  -1.348  0.00  0.00    +0.000 A 
ATOM      9  C   UNL     1       2.980  -4.113  -0.650  0.00  0.00    +0.000 A 
ATOM     10  C   UNL     1       3.647  -2.887  -0.690  0.00  0.00    +0.000 A 
ENDBRANCH   4   5
ENDBRANCH   1   4
BRANCH   1  11
ATOM     11  C   UNL     1       4.472   1.571  -0.154  0.00  0.00    +0.000 C 
BRANCH  11  12
ATOM     12  C   UNL     1       4.359   2.314   1.157  0.00  0.00    +0.000 A 
ATOM     13  C   UNL     1       4.987   1.820   2.309  0.00  0.00    +0.000 A 
ATOM     14  C   UNL     1       4.871   2.497   3.524  0.00  0.00    +0.000 A 
ATOM     15  C   UNL     1       4.125   3.671   3.600  0.00  0.00    +0.000 A 
ATOM     16  C   UNL     1       3.494   4.169   2.462  0.00  0.00    +0.000 A 
ATOM     17  C   UNL     1       3.610   3.495   1.246  0.00  0.00    +0.000 A 
ENDBRANCH  11  12
ENDBRANCH   1  11
TORSDOF 5
