REMARK  Name = *****
REMARK  3 active torsions:
REMARK  status: ('A' for Active; 'I' for Inactive)
REMARK    1  A    between atoms: C_6  and  S_7
REMARK    2  A    between atoms: S_7  and  C_8
REMARK    3  A    between atoms: C_8  and  C_9
REMARK                            x       y       z     vdW  Elec       q    Type
REMARK                         _______ _______ _______ _____ _____    ______ ____
ROOT
ATOM      1  C   UNL     1       4.845   1.563   0.115  0.00  0.00    +0.000 C 
ENDROOT
BRANCH   1   2
ATOM      2  C   UNL     1       6.347   1.539   0.209  0.00  0.00    +0.000 A 
ATOM      3  C   UNL     1       7.133   2.083  -0.813  0.00  0.00    +0.000 A 
ATOM      4  C   UNL     1       8.526   2.059  -0.752  0.00  0.00    +0.000 A 
ATOM      5  C   UNL     1       9.157   1.479   0.347  0.00  0.00    +0.000 A 
ATOM      6  C   UNL     1       8.385   0.931   1.367  0.00  0.00    +0.000 A 
ATOM      7  C   UNL     1       6.993   0.954   1.309  0.00  0.00    +0.000 A 
ATOM      8  F   UNL     1       8.990   0.372   2.422  0.00  0.00    +0.000 F 
ATOM      9  F   UNL     1       6.547   2.649  -1.877  0.00  0.00    +0.000 F 
ENDBRANCH   1   2
BRANCH   1  10
ATOM     10  S   UNL     1       4.192  -0.040  -0.462  0.00  0.00    +0.000 S 
BRANCH  10  16
ATOM     11  C   UNL     1       1.654  -0.657   0.390  0.00  0.00    +0.000 A 
ATOM     12  C   UNL     1       0.273  -0.469   0.501  0.00  0.00    +0.000 A 
ATOM     13  C   UNL     1      -0.327   0.629  -0.110  0.00  0.00    +0.000 A 
ATOM     14  C   UNL     1       0.441   1.537  -0.835  0.00  0.00    +0.000 A 
ATOM     15  C   UNL     1       1.822   1.347  -0.947  0.00  0.00    +0.000 A 
ATOM     16  C   UNL     1       2.439   0.257  -0.324  0.00  0.00    +0.000 A 
ATOM     17 CL   UNL     1      -2.026   0.860   0.021  0.00  0.00    +0.000 Cl
ENDBRANCH  10  16
ENDBRANCH   1  10
TORSDOF 3
