REMARK  Name = *****
REMARK  4 active torsions:
REMARK  status: ('A' for Active; 'I' for Inactive)
REMARK    1  A    between atoms: C_1  and  S_2
REMARK    2  A    between atoms: S_2  and  C_3
REMARK    3  A    between atoms: C_3  and  C_11
REMARK    4  A    between atoms: C_4  and  C_5
REMARK                            x       y       z     vdW  Elec       q    Type
REMARK                         _______ _______ _______ _____ _____    ______ ____
ROOT
ATOM      1  C   UNL     1       3.484  -1.637  -0.197  0.00  0.00    +0.000 C 
ATOM      2  C   UNL     1       2.545  -2.573   0.034  0.00  0.00    +0.000 C 
ENDROOT
BRANCH   2   3
ATOM      3  C   UNL     1       1.091  -2.432  -0.119  0.00  0.00    +0.000 A 
ATOM      4  C   UNL     1       0.508  -2.177  -1.365  0.00  0.00    +0.000 A 
ATOM      5  C   UNL     1      -0.878  -2.071  -1.488  0.00  0.00    +0.000 A 
ATOM      6  C   UNL     1      -1.692  -2.229  -0.367  0.00  0.00    +0.000 A 
ATOM      7  C   UNL     1      -1.121  -2.496   0.876  0.00  0.00    +0.000 A 
ATOM      8  C   UNL     1       0.266  -2.602   0.999  0.00  0.00    +0.000 A 
ENDBRANCH   2   3
BRANCH   1   9
ATOM      9  C   UNL     1       4.905  -1.974   0.010  0.00  0.00    +0.000 A 
ATOM     10  C   UNL     1       5.776  -2.100  -1.082  0.00  0.00    +0.000 A 
ATOM     11  C   UNL     1       7.117  -2.433  -0.884  0.00  0.00    +0.000 A 
ATOM     12  C   UNL     1       7.600  -2.646   0.406  0.00  0.00    +0.000 A 
ATOM     13  C   UNL     1       6.744  -2.527   1.500  0.00  0.00    +0.000 A 
ATOM     14  C   UNL     1       5.402  -2.193   1.303  0.00  0.00    +0.000 A 
ENDBRANCH   1   9
BRANCH   1  16
ATOM     15  C   UNL     1       2.764   0.763   0.839  0.00  0.00    +0.000 C 
ATOM     16  S   UNL     1       3.175  -0.017  -0.739  0.00  0.00    +0.000 S 
ENDBRANCH   1  16
TORSDOF 3
