REMARK  Name = *****
REMARK  3 active torsions:
REMARK  status: ('A' for Active; 'I' for Inactive)
REMARK    1  A    between atoms: C_1  and  C_2
REMARK    2  A    between atoms: C_2  and  C_8
REMARK    3  A    between atoms: C_8  and  C_9
REMARK                            x       y       z     vdW  Elec       q    Type
REMARK                         _______ _______ _______ _____ _____    ______ ____
ROOT
ATOM      1  C   UNL     1       0.995   0.275  -0.005  0.00  0.00    +0.000 C 
ATOM      2  C   UNL     1       2.495  -0.069  -0.080  0.00  0.00    +0.000 C 
ATOM      3  S   UNL     1       3.285   0.837  -1.475  0.00  0.00    +0.000 S 
ATOM      4  C   UNL     1       2.452   0.106  -2.908  0.00  0.00    +0.000 C 
ATOM      5  C   UNL     1       2.649  -1.397  -3.011  0.00  0.00    +0.000 C 
ATOM      6  C   UNL     1       1.967  -2.179  -1.902  0.00  0.00    +0.000 C 
ATOM      7  S   UNL     1       2.695  -1.890  -0.267  0.00  0.00    +0.000 S 
ENDROOT
BRANCH   2   8
ATOM      8  C   UNL     1       3.142   0.397   1.273  0.00  0.00    +0.000 C 
BRANCH   8   9
ATOM      9  C   UNL     1       4.658   0.386   1.448  0.00  0.00    +0.000 C 
ATOM     10  C   UNL     1       5.363   1.535   1.473  0.00  0.00    +0.000 C 
ATOM     11  C   UNL     1       6.851   1.610   1.660  0.00  0.00    +0.000 C 
ATOM     12  C   UNL     1       7.545   0.252   1.568  0.00  0.00    +0.000 C 
ATOM     13  C   UNL     1       6.736  -0.823   2.282  0.00  0.00    +0.000 C 
ATOM     14  C   UNL     1       5.336  -0.946   1.672  0.00  0.00    +0.000 C 
ENDBRANCH   8   9
ENDBRANCH   2   8
TORSDOF 2
