REMARK  Name = *****
REMARK  2 active torsions:
REMARK  status: ('A' for Active; 'I' for Inactive)
REMARK    1  A    between atoms: C_4  and  N_7
REMARK    2  A    between atoms: C_8  and  C_9
REMARK                            x       y       z     vdW  Elec       q    Type
REMARK                         _______ _______ _______ _____ _____    ______ ____
ROOT
ATOM      1  N   UNL     1      -2.720   0.416  -0.779  0.00  0.00    +0.000 NA
ATOM      2  C   UNL     1      -3.603  -0.332  -0.197  0.00  0.00    +0.000 C 
ENDROOT
BRANCH   2   3
ATOM      3  C   UNL     1      -5.046  -0.197  -0.481  0.00  0.00    +0.000 A 
ATOM      4  C   UNL     1      -5.510   0.763  -1.388  0.00  0.00    +0.000 A 
ATOM      5  C   UNL     1      -6.879   0.873  -1.639  0.00  0.00    +0.000 A 
ATOM      6  C   UNL     1      -7.766   0.025  -0.985  0.00  0.00    +0.000 A 
ATOM      7  C   UNL     1      -7.313  -0.932  -0.081  0.00  0.00    +0.000 A 
ATOM      8  C   UNL     1      -5.945  -1.046   0.175  0.00  0.00    +0.000 A 
ATOM      9  F   UNL     1      -9.079   0.131  -1.227  0.00  0.00    +0.000 F 
ENDBRANCH   2   3
BRANCH   1  13
ATOM     10  C   UNL     1       1.285  -0.267   0.294  0.00  0.00    +0.000 A 
ATOM     11  C   UNL     1       0.699  -1.018  -0.725  0.00  0.00    +0.000 A 
ATOM     12  C   UNL     1      -0.632  -0.790  -1.082  0.00  0.00    +0.000 A 
ATOM     13  C   UNL     1      -1.387   0.179  -0.416  0.00  0.00    +0.000 A 
ATOM     14  C   UNL     1      -0.788   0.937   0.593  0.00  0.00    +0.000 A 
ATOM     15  C   UNL     1       0.543   0.713   0.951  0.00  0.00    +0.000 A 
ENDBRANCH   1  13
TORSDOF 2
