REMARK  Name = *****
REMARK  4 active torsions:
REMARK  status: ('A' for Active; 'I' for Inactive)
REMARK    1  A    between atoms: C_4  and  O_7
REMARK    2  A    between atoms: O_7  and  C_8
REMARK    3  A    between atoms: C_8  and  S_9
REMARK    4  A    between atoms: S_9  and  C_10
REMARK                            x       y       z     vdW  Elec       q    Type
REMARK                         _______ _______ _______ _____ _____    ______ ____
ROOT
ATOM      1  C   UNL     1      -3.798  -0.546  -0.128  0.00  0.00    +0.000 C 
ENDROOT
BRANCH   1   2
ATOM      2  O   UNL     1      -2.859   0.486   0.164  0.00  0.00    +0.000 OA
BRANCH   2   6
ATOM      3  C   UNL     1       1.228  -0.301   0.296  0.00  0.00    +0.000 A 
ATOM      4  C   UNL     1       0.364  -1.352  -0.003  0.00  0.00    +0.000 A 
ATOM      5  C   UNL     1      -1.017  -1.137  -0.060  0.00  0.00    +0.000 A 
ATOM      6  C   UNL     1      -1.538   0.136   0.185  0.00  0.00    +0.000 A 
ATOM      7  C   UNL     1      -0.664   1.185   0.484  0.00  0.00    +0.000 A 
ATOM      8  C   UNL     1       0.714   0.970   0.540  0.00  0.00    +0.000 A 
ENDBRANCH   2   6
ENDBRANCH   1   2
BRANCH   1   9
ATOM      9  S   UNL     1      -5.498   0.120  -0.100  0.00  0.00    +0.000 S 
BRANCH   9  10
ATOM     10  C   UNL     1      -6.390  -1.336  -0.606  0.00  0.00    +0.000 A 
ATOM     11  C   UNL     1      -6.439  -2.474   0.206  0.00  0.00    +0.000 A 
ATOM     12  C   UNL     1      -7.152  -3.603  -0.207  0.00  0.00    +0.000 A 
ATOM     13  C   UNL     1      -7.824  -3.591  -1.428  0.00  0.00    +0.000 A 
ATOM     14  C   UNL     1      -7.793  -2.457  -2.237  0.00  0.00    +0.000 A 
ATOM     15  C   UNL     1      -7.079  -1.329  -1.824  0.00  0.00    +0.000 A 
ATOM     16 CL   UNL     1      -8.701  -4.981  -1.936  0.00  0.00    +0.000 Cl
ENDBRANCH   9  10
ENDBRANCH   1   9
TORSDOF 4
