REMARK  Name = *****
REMARK  4 active torsions:
REMARK  status: ('A' for Active; 'I' for Inactive)
REMARK    1  A    between atoms: C_1  and  C_2
REMARK    2  A    between atoms: C_4  and  S_9
REMARK    3  A    between atoms: S_9  and  C_10
REMARK    4  A    between atoms: C_10  and  C_11
REMARK                            x       y       z     vdW  Elec       q    Type
REMARK                         _______ _______ _______ _____ _____    ______ ____
ROOT
ATOM      1  C   UNL     1       1.565   0.156   1.953  0.00  0.00    +0.000 C 
ATOM      2  C   UNL     1       2.606  -0.010   0.879  0.00  0.00    +0.000 A 
ATOM      3  C   UNL     1       3.549  -0.960   0.964  0.00  0.00    +0.000 A 
ATOM      4  C   UNL     1       4.587  -1.191  -0.014  0.00  0.00    +0.000 A 
ATOM      5  C   UNL     1       4.778  -0.406  -1.080  0.00  0.00    +0.000 A 
ATOM      6  C   UNL     1       3.936   0.756  -1.421  0.00  0.00    +0.000 A 
ATOM      7  O   UNL     1       4.223   1.451  -2.390  0.00  0.00    +0.000 OA
ATOM      8  S   UNL     1       2.514   1.091  -0.460  0.00  0.00    +0.000 S 
ENDROOT
BRANCH   4   9
ATOM      9  S   UNL     1       5.670  -2.528   0.260  0.00  0.00    +0.000 S 
BRANCH   9  10
ATOM     10  C   UNL     1       4.667  -3.883  -0.430  0.00  0.00    +0.000 C 
BRANCH  10  11
ATOM     11  C   UNL     1       5.401  -5.198  -0.377  0.00  0.00    +0.000 A 
ATOM     12  C   UNL     1       5.325  -6.012   0.763  0.00  0.00    +0.000 A 
ATOM     13  C   UNL     1       6.013  -7.225   0.815  0.00  0.00    +0.000 A 
ATOM     14  C   UNL     1       6.788  -7.635  -0.269  0.00  0.00    +0.000 A 
ATOM     15  C   UNL     1       6.879  -6.830  -1.403  0.00  0.00    +0.000 A 
ATOM     16  C   UNL     1       6.192  -5.617  -1.457  0.00  0.00    +0.000 A 
ENDBRANCH  10  11
ENDBRANCH   9  10
ENDBRANCH   4   9
TORSDOF 3
