REMARK  Name = *****
REMARK  5 active torsions:
REMARK  status: ('A' for Active; 'I' for Inactive)
REMARK    1  A    between atoms: C_1  and  C_2
REMARK    2  A    between atoms: C_5  and  S_8
REMARK    3  A    between atoms: S_8  and  N_10
REMARK    4  A    between atoms: N_10  and  C_11
REMARK    5  A    between atoms: C_16  and  C_17
REMARK                            x       y       z     vdW  Elec       q    Type
REMARK                         _______ _______ _______ _____ _____    ______ ____
ROOT
ATOM      1  S   UNL     1      -3.702  -0.505   0.003  0.00  0.00    +0.000 S 
ATOM      2  O   UNL     1      -4.057  -1.171   1.298  0.00  0.00    +0.000 OA
ENDROOT
BRANCH   1   7
ATOM      3  C   UNL     1       2.224   0.983   0.302  0.00  0.00    +0.000 C 
ATOM      4  C   UNL     1       0.764   0.644   0.232  0.00  0.00    +0.000 A 
ATOM      5  C   UNL     1       0.116   0.542  -1.005  0.00  0.00    +0.000 A 
ATOM      6  C   UNL     1      -1.235   0.193  -1.070  0.00  0.00    +0.000 A 
ATOM      7  C   UNL     1      -1.952  -0.068   0.104  0.00  0.00    +0.000 A 
ATOM      8  C   UNL     1      -1.302   0.015   1.339  0.00  0.00    +0.000 A 
ATOM      9  C   UNL     1       0.048   0.365   1.402  0.00  0.00    +0.000 A 
ENDBRANCH   1   7
BRANCH   1  10
ATOM     10  N   UNL     1      -4.204   1.086   0.008  0.00  0.00    +0.000 N 
ATOM     11  H   UNL     1      -3.509   1.783  -0.023  0.00  0.00    +0.000 HD
BRANCH  10  12
ATOM     12  C   UNL     1      -5.552   1.509   0.053  0.00  0.00    +0.000 A 
ATOM     13  C   UNL     1      -6.605   0.640   0.385  0.00  0.00    +0.000 A 
ATOM     14  C   UNL     1      -7.928   1.084   0.458  0.00  0.00    +0.000 A 
ATOM     15  C   UNL     1      -8.228   2.418   0.218  0.00  0.00    +0.000 A 
ATOM     16  C   UNL     1      -7.203   3.310  -0.080  0.00  0.00    +0.000 A 
ATOM     17  C   UNL     1      -5.865   2.876  -0.150  0.00  0.00    +0.000 A 
ATOM     18  C   UNL     1      -4.802   3.900  -0.452  0.00  0.00    +0.000 C 
ENDBRANCH  10  12
ENDBRANCH   1  10
TORSDOF 3
