REMARK  Name = *****
REMARK  4 active torsions:
REMARK  status: ('A' for Active; 'I' for Inactive)
REMARK    1  A    between atoms: C_1  and  C_2
REMARK    2  A    between atoms: C_2  and  C_11
REMARK    3  A    between atoms: N_3  and  C_4
REMARK    4  A    between atoms: C_4  and  C_5
REMARK                            x       y       z     vdW  Elec       q    Type
REMARK                         _______ _______ _______ _____ _____    ______ ____
ROOT
ATOM      1  C   UNL     1       0.885  -0.048  -0.094  0.00  0.00    +0.000 C 
ATOM      2  C   UNL     1       2.398   0.030  -0.045  0.00  0.00    +0.000 C 
ATOM      3  N   UNL     1       3.071   0.332   1.017  0.00  0.00    +0.000 NA
ENDROOT
BRANCH   2   4
ATOM      4  C   UNL     1       3.204  -0.305  -1.310  0.00  0.00    +0.000 C 
ATOM      5  C   UNL     1       2.869   0.613  -2.455  0.00  0.00    +0.000 C 
ATOM      6  C   UNL     1       2.401  -0.105  -3.489  0.00  0.00    +0.000 C 
ATOM      7  C   UNL     1       2.383  -1.503  -3.132  0.00  0.00    +0.000 C 
ATOM      8  C   UNL     1       2.840  -1.651  -1.879  0.00  0.00    +0.000 C 
ENDBRANCH   2   4
BRANCH   3   9
ATOM      9  C   UNL     1       2.353   0.631   2.255  0.00  0.00    +0.000 C 
BRANCH   9  10
ATOM     10  C   UNL     1       3.299   0.785   3.425  0.00  0.00    +0.000 A 
ATOM     11  C   UNL     1       3.230   1.909   4.260  0.00  0.00    +0.000 A 
ATOM     12  C   UNL     1       4.086   2.031   5.356  0.00  0.00    +0.000 A 
ATOM     13  C   UNL     1       5.015   1.030   5.633  0.00  0.00    +0.000 A 
ATOM     14  C   UNL     1       5.090  -0.095   4.814  0.00  0.00    +0.000 A 
ATOM     15  C   UNL     1       4.235  -0.218   3.718  0.00  0.00    +0.000 A 
ENDBRANCH   9  10
ENDBRANCH   3   9
TORSDOF 3
