REMARK  Name = *****
REMARK  1 active torsions:
REMARK  status: ('A' for Active; 'I' for Inactive)
REMARK    1  A    between atoms: C_6  and  C_11
REMARK                            x       y       z     vdW  Elec       q    Type
REMARK                         _______ _______ _______ _____ _____    ______ ____
ROOT
ATOM      1  C   UNL     1       2.431  -0.679  -0.011  0.00  0.00    +0.000 A 
ATOM      2  C   UNL     1       2.421   0.712  -0.042  0.00  0.00    +0.000 A 
ATOM      3  C   UNL     1       1.207   1.401  -0.043  0.00  0.00    +0.000 A 
ATOM      4  C   UNL     1      -0.013   0.706  -0.012  0.00  0.00    +0.000 A 
ATOM      5  C   UNL     1      -1.244   1.385  -0.012  0.00  0.00    +0.000 A 
ATOM      6  C   UNL     1      -2.465   0.692   0.023  0.00  0.00    +0.000 A 
ATOM      7  C   UNL     1      -2.438  -0.708   0.048  0.00  0.00    +0.000 A 
ATOM      8  C   UNL     1      -1.221  -1.398   0.048  0.00  0.00    +0.000 A 
ATOM      9  C   UNL     1      -0.002  -0.706   0.020  0.00  0.00    +0.000 A 
ATOM     10  C   UNL     1       1.227  -1.385   0.020  0.00  0.00    +0.000 A 
ENDROOT
BRANCH   6  11
ATOM     11  C   UNL     1      -3.717   1.443   0.024  0.00  0.00    +0.000 A 
ATOM     12  C   UNL     1      -4.931   0.954   0.477  0.00  0.00    +0.000 A 
ATOM     13  S   UNL     1      -6.094   2.202   0.289  0.00  0.00    +0.000 S 
ATOM     14  N   UNL     1      -4.980   3.274  -0.344  0.00  0.00    +0.000 NA
ATOM     15  N   UNL     1      -3.765   2.760  -0.429  0.00  0.00    +0.000 NA
ENDBRANCH   6  11
TORSDOF 1
