REMARK  Name = *****
REMARK  1 active torsions:
REMARK  status: ('A' for Active; 'I' for Inactive)
REMARK    1  A    between atoms: C_8  and  C_10
REMARK                            x       y       z     vdW  Elec       q    Type
REMARK                         _______ _______ _______ _____ _____    ______ ____
ROOT
ATOM      1  C   UNL     1       2.200   0.661   0.023  0.00  0.00    +0.000 A 
ATOM      2  C   UNL     1       2.141  -0.738   0.064  0.00  0.00    +0.000 A 
ATOM      3  C   UNL     1       0.917  -1.417   0.059  0.00  0.00    +0.000 A 
ATOM      4  C   UNL     1      -0.216  -0.614   0.011  0.00  0.00    +0.000 A 
ATOM      5  C   UNL     1      -0.202   0.770  -0.030  0.00  0.00    +0.000 A 
ATOM      6  C   UNL     1       1.030   1.436  -0.024  0.00  0.00    +0.000 A 
ATOM      7  N   UNL     1      -1.487   1.247  -0.072  0.00  0.00    +0.000 NA
ATOM      8  C   UNL     1      -2.230   0.154  -0.055  0.00  0.00    +0.000 A 
ATOM      9  O   UNL     1      -1.518  -1.019  -0.004  0.00  0.00    +0.000 OA
ENDROOT
BRANCH   8  10
ATOM     10  C   UNL     1      -3.687   0.036  -0.084  0.00  0.00    +0.000 A 
ATOM     11  C   UNL     1      -4.474   1.199  -0.150  0.00  0.00    +0.000 A 
ATOM     12  C   UNL     1      -5.869   1.119  -0.181  0.00  0.00    +0.000 A 
ATOM     13  C   UNL     1      -6.483  -0.126  -0.146  0.00  0.00    +0.000 A 
ATOM     14  C   UNL     1      -5.729  -1.292  -0.081  0.00  0.00    +0.000 A 
ATOM     15  C   UNL     1      -4.334  -1.211  -0.050  0.00  0.00    +0.000 A 
ATOM     16  F   UNL     1      -7.819  -0.205  -0.176  0.00  0.00    +0.000 F 
ENDBRANCH   8  10
TORSDOF 1
