REMARK  Name = *****
REMARK  4 active torsions:
REMARK  status: ('A' for Active; 'I' for Inactive)
REMARK    1  A    between atoms: C_1  and  C_2
REMARK    2  A    between atoms: C_2  and  C_12
REMARK    3  A    between atoms: C_3  and  C_4
REMARK    4  A    between atoms: C_9  and  N_10
REMARK                            x       y       z     vdW  Elec       q    Type
REMARK                         _______ _______ _______ _____ _____    ______ ____
ROOT
ATOM      1  C   UNL     1       1.070  -0.211   0.057  0.00  0.00    +0.000 C 
ATOM      2  C   UNL     1       2.554  -0.023  -0.082  0.00  0.00    +0.000 C 
ATOM      3  C   UNL     1       3.182   0.946  -0.774  0.00  0.00    +0.000 C 
ENDROOT
BRANCH   3   4
ATOM      4  C   UNL     1       2.499   2.000  -1.529  0.00  0.00    +0.000 A 
ATOM      5  C   UNL     1       2.163   3.195  -0.880  0.00  0.00    +0.000 A 
ATOM      6  C   UNL     1       1.505   4.216  -1.572  0.00  0.00    +0.000 A 
ATOM      7  C   UNL     1       1.175   4.055  -2.919  0.00  0.00    +0.000 A 
ATOM      8  C   UNL     1       1.502   2.872  -3.578  0.00  0.00    +0.000 A 
ATOM      9  C   UNL     1       2.159   1.856  -2.880  0.00  0.00    +0.000 A 
BRANCH   9  10
ATOM     10  N   UNL     1       2.471   0.687  -3.566  0.00  0.00    +0.000 NA
ATOM     11  C   UNL     1       2.727  -0.289  -4.164  0.00  0.00    +0.000 C 
ENDBRANCH   9  10
ENDBRANCH   3   4
BRANCH   2  12
ATOM     12  C   UNL     1       3.384  -1.020   0.616  0.00  0.00    +0.000 A 
ATOM     13  C   UNL     1       3.572  -0.938   2.001  0.00  0.00    +0.000 A 
ATOM     14  C   UNL     1       4.367  -1.879   2.659  0.00  0.00    +0.000 A 
ATOM     15  C   UNL     1       4.975  -2.905   1.939  0.00  0.00    +0.000 A 
ATOM     16  C   UNL     1       4.793  -2.992   0.559  0.00  0.00    +0.000 A 
ATOM     17  C   UNL     1       4.002  -2.051  -0.102  0.00  0.00    +0.000 A 
ENDBRANCH   2  12
TORSDOF 3
