REMARK  Name = *****
REMARK  3 active torsions:
REMARK  status: ('A' for Active; 'I' for Inactive)
REMARK    1  A    between atoms: C_1  and  C_2
REMARK    2  A    between atoms: C_4  and  C_8
REMARK    3  A    between atoms: C_9  and  C_10
REMARK                            x       y       z     vdW  Elec       q    Type
REMARK                         _______ _______ _______ _____ _____    ______ ____
ROOT
ATOM      1  C   UNL     1       5.381  -2.367  -0.235  0.00  0.00    +0.000 C 
ATOM      2  C   UNL     1       5.961  -3.413  -0.354  0.00  0.00    +0.000 C 
ENDROOT
BRANCH   1   6
ATOM      3  C   UNL     1       1.142  -0.171  -0.118  0.00  0.00    +0.000 C 
ATOM      4  C   UNL     1       2.636  -0.072  -0.038  0.00  0.00    +0.000 A 
ATOM      5  N   UNL     1       3.342  -1.220  -0.164  0.00  0.00    +0.000 NA
ATOM      6  C   UNL     1       4.688  -1.127  -0.094  0.00  0.00    +0.000 A 
ATOM      7  C   UNL     1       5.374   0.061   0.097  0.00  0.00    +0.000 A 
ATOM      8  C   UNL     1       4.633   1.230   0.224  0.00  0.00    +0.000 A 
ATOM      9  C   UNL     1       3.244   1.167   0.155  0.00  0.00    +0.000 A 
ENDBRANCH   1   6
BRANCH   2  10
ATOM     10  C   UNL     1       6.642  -4.662  -0.493  0.00  0.00    +0.000 A 
ATOM     11  C   UNL     1       7.948  -4.698  -0.989  0.00  0.00    +0.000 A 
ATOM     12  C   UNL     1       8.612  -5.920  -1.124  0.00  0.00    +0.000 A 
ATOM     13  C   UNL     1       7.966  -7.102  -0.762  0.00  0.00    +0.000 A 
ATOM     14  C   UNL     1       6.663  -7.073  -0.267  0.00  0.00    +0.000 A 
ATOM     15  C   UNL     1       6.000  -5.851  -0.133  0.00  0.00    +0.000 A 
ATOM     16 CL   UNL     1       8.784  -8.607  -0.928  0.00  0.00    +0.000 Cl
ENDBRANCH   2  10
TORSDOF 2
