REMARK  Name = *****
REMARK  4 active torsions:
REMARK  status: ('A' for Active; 'I' for Inactive)
REMARK    1  A    between atoms: C_4  and  C_7
REMARK    2  A    between atoms: C_7  and  O_8
REMARK    3  A    between atoms: O_8  and  N_9
REMARK    4  A    between atoms: C_10  and  C_11
REMARK                            x       y       z     vdW  Elec       q    Type
REMARK                         _______ _______ _______ _____ _____    ______ ____
ROOT
ATOM      1  O   UNL     1      -3.381  -0.800   0.162  0.00  0.00    +0.000 OA
ENDROOT
BRANCH   1   2
ATOM      2  N   UNL     1      -4.774  -0.705   0.083  0.00  0.00    +0.000 NA
ATOM      3  C   UNL     1      -5.392  -1.774   0.489  0.00  0.00    +0.000 C 
BRANCH   3   4
ATOM      4  C   UNL     1      -4.841  -3.004   1.048  0.00  0.00    +0.000 A 
ATOM      5  C   UNL     1      -3.588  -3.182   1.607  0.00  0.00    +0.000 A 
ATOM      6  S   UNL     1      -3.319  -4.775   2.176  0.00  0.00    +0.000 S 
ATOM      7  C   UNL     1      -4.885  -5.262   1.709  0.00  0.00    +0.000 A 
ATOM      8  C   UNL     1      -5.592  -4.230   1.133  0.00  0.00    +0.000 A 
ENDBRANCH   3   4
ENDBRANCH   1   2
BRANCH   1   9
ATOM      9  C   UNL     1      -2.801   0.412  -0.319  0.00  0.00    +0.000 C 
BRANCH   9  13
ATOM     10  C   UNL     1       1.476   0.062   0.094  0.00  0.00    +0.000 A 
ATOM     11  C   UNL     1       0.834  -0.490  -1.012  0.00  0.00    +0.000 A 
ATOM     12  C   UNL     1      -0.550  -0.373  -1.148  0.00  0.00    +0.000 A 
ATOM     13  C   UNL     1      -1.305   0.307  -0.181  0.00  0.00    +0.000 A 
ATOM     14  C   UNL     1      -0.650   0.847   0.934  0.00  0.00    +0.000 A 
ATOM     15  C   UNL     1       0.735   0.728   1.068  0.00  0.00    +0.000 A 
ENDBRANCH   9  13
ENDBRANCH   1   9
TORSDOF 4
