REMARK  Name = *****
REMARK  4 active torsions:
REMARK  status: ('A' for Active; 'I' for Inactive)
REMARK    1  A    between atoms: N_2  and  C_3
REMARK    2  A    between atoms: C_8  and  C_9
REMARK    3  A    between atoms: C_9  and  C_10
REMARK    4  A    between atoms: C_10  and  C_12
REMARK                            x       y       z     vdW  Elec       q    Type
REMARK                         _______ _______ _______ _____ _____    ______ ____
ROOT
ATOM      1  C   UNL     1      -0.592   2.520  -0.058  0.00  0.00    +0.000 C 
ENDROOT
BRANCH   1   7
ATOM      2  C   UNL     1       0.699   0.568  -1.093  0.00  0.00    +0.000 A 
ATOM      3  C   UNL     1       1.209  -0.732  -1.044  0.00  0.00    +0.000 A 
ATOM      4  C   UNL     1       0.983  -1.518   0.084  0.00  0.00    +0.000 A 
ATOM      5  C   UNL     1       0.258  -0.999   1.153  0.00  0.00    +0.000 A 
ATOM      6  C   UNL     1      -0.250   0.303   1.096  0.00  0.00    +0.000 A 
ATOM      7  C   UNL     1      -0.053   1.108  -0.039  0.00  0.00    +0.000 A 
BRANCH   2   9
ATOM      8  C   UNL     1       1.199   1.928  -3.208  0.00  0.00    +0.000 C 
ATOM      9  N   UNL     1       0.969   1.314  -2.236  0.00  0.00    +0.000 NA
ENDBRANCH   2   9
ENDBRANCH   1   7
BRANCH   1  10
ATOM     10  C   UNL     1      -2.050   2.622   0.357  0.00  0.00    +0.000 C 
ATOM     11  O   UNL     1      -2.351   2.913   1.516  0.00  0.00    +0.000 OA
BRANCH  10  12
ATOM     12  C   UNL     1      -3.137   2.340  -0.632  0.00  0.00    +0.000 A 
ATOM     13  C   UNL     1      -2.887   2.024  -1.972  0.00  0.00    +0.000 A 
ATOM     14  C   UNL     1      -3.949   1.771  -2.847  0.00  0.00    +0.000 A 
ATOM     15  C   UNL     1      -5.264   1.831  -2.391  0.00  0.00    +0.000 A 
ATOM     16  C   UNL     1      -5.524   2.145  -1.060  0.00  0.00    +0.000 A 
ATOM     17  C   UNL     1      -4.466   2.399  -0.184  0.00  0.00    +0.000 A 
ENDBRANCH  10  12
ENDBRANCH   1  10
TORSDOF 4
