REMARK  Name = *****
REMARK  7 active torsions:
REMARK  status: ('A' for Active; 'I' for Inactive)
REMARK    1  A    between atoms: C_1  and  C_2
REMARK    2  A    between atoms: C_5  and  C_17
REMARK    3  A    between atoms: C_6  and  O_8
REMARK    4  A    between atoms: O_8  and  P_9
REMARK    5  A    between atoms: P_9  and  C_11
REMARK    6  A    between atoms: C_17  and  C_18
REMARK    7  A    between atoms: C_17  and  C_19
REMARK                            x       y       z     vdW  Elec       q    Type
REMARK                         _______ _______ _______ _____ _____    ______ ____
ROOT
ATOM      1  C   UNL     1       1.190  -0.374   1.729  0.00  0.00    +0.000 C 
ATOM      2  C   UNL     1       0.851  -0.537   0.244  0.00  0.00    +0.000 C 
ATOM      3  C   UNL     1       0.778   0.820  -0.468  0.00  0.00    +0.000 C 
ATOM      4  C   UNL     1      -0.531   1.563  -0.205  0.00  0.00    +0.000 C 
ATOM      5  C   UNL     1      -1.774   0.724  -0.578  0.00  0.00    +0.000 C 
ATOM      6  C   UNL     1      -1.743  -0.603   0.229  0.00  0.00    +0.000 C 
ATOM      7  C   UNL     1      -0.424  -1.369   0.017  0.00  0.00    +0.000 C 
ENDROOT
BRANCH   5   8
ATOM      8  C   UNL     1      -1.934   0.503  -2.118  0.00  0.00    +0.000 C 
ATOM      9  C   UNL     1      -3.226  -0.255  -2.458  0.00  0.00    +0.000 C 
ATOM     10  C   UNL     1      -1.937   1.826  -2.896  0.00  0.00    +0.000 C 
ENDBRANCH   5   8
BRANCH   6  11
ATOM     11  O   UNL     1      -1.866  -0.311   1.624  0.00  0.00    +0.000 OA
BRANCH  11  12
ATOM     12  P   UNL     1      -3.312  -0.533   2.324  0.00  0.00    +0.000 P 
ATOM     13  O   UNL     1      -2.990   0.109   3.595  0.00  0.00    +0.000 OA
BRANCH  12  14
ATOM     14  C   UNL     1      -3.102  -2.290   2.824  0.00  0.00    +0.000 A 
ATOM     15  C   UNL     1      -1.992  -2.724   3.568  0.00  0.00    +0.000 A 
ATOM     16  C   UNL     1      -1.841  -4.069   3.913  0.00  0.00    +0.000 A 
ATOM     17  C   UNL     1      -2.799  -5.000   3.519  0.00  0.00    +0.000 A 
ATOM     18  C   UNL     1      -3.908  -4.588   2.782  0.00  0.00    +0.000 A 
ATOM     19  C   UNL     1      -4.060  -3.243   2.436  0.00  0.00    +0.000 A 
ENDBRANCH  12  14
ENDBRANCH  11  12
ENDBRANCH   6  11
TORSDOF 4
