REMARK  Name = *****
REMARK  6 active torsions:
REMARK  status: ('A' for Active; 'I' for Inactive)
REMARK    1  A    between atoms: C_1  and  O_2
REMARK    2  A    between atoms: O_2  and  C_3
REMARK    3  A    between atoms: C_3  and  C_5
REMARK    4  A    between atoms: C_5  and  C_6
REMARK    5  A    between atoms: C_5  and  C_13
REMARK    6  A    between atoms: C_6  and  C_7
REMARK                            x       y       z     vdW  Elec       q    Type
REMARK                         _______ _______ _______ _____ _____    ______ ____
ROOT
ATOM      1  C   UNL     1       4.530  -1.162   0.242  0.00  0.00    +0.000 C 
ENDROOT
BRANCH   1   2
ATOM      2  C   UNL     1       5.145  -2.552   0.397  0.00  0.00    +0.000 A 
ATOM      3  C   UNL     1       4.535  -3.571   1.148  0.00  0.00    +0.000 A 
ATOM      4  C   UNL     1       5.150  -4.817   1.293  0.00  0.00    +0.000 A 
ATOM      5  C   UNL     1       6.381  -5.049   0.695  0.00  0.00    +0.000 A 
ATOM      6  C   UNL     1       7.012  -4.058  -0.044  0.00  0.00    +0.000 A 
ATOM      7  C   UNL     1       6.398  -2.813  -0.190  0.00  0.00    +0.000 A 
ATOM      8  F   UNL     1       6.970  -6.244   0.837  0.00  0.00    +0.000 F 
ENDBRANCH   1   2
BRANCH   1   9
ATOM      9  C   UNL     1       3.016  -1.117   0.023  0.00  0.00    +0.000 C 
ATOM     10  O   UNL     1       2.274  -2.082  -0.103  0.00  0.00    +0.000 OA
BRANCH   9  12
ATOM     11  C   UNL     1       1.192   0.324  -0.313  0.00  0.00    +0.000 C 
ATOM     12  O   UNL     1       2.595   0.180  -0.085  0.00  0.00    +0.000 OA
ENDBRANCH   9  12
ENDBRANCH   1   9
BRANCH   1  13
ATOM     13  C   UNL     1       5.047  -0.180   1.323  0.00  0.00    +0.000 C 
BRANCH  13  14
ATOM     14  C   UNL     1       4.786  -0.530   2.807  0.00  0.00    +0.000 C 
ATOM     15  C   UNL     1       3.294  -0.534   3.177  0.00  0.00    +0.000 C 
ATOM     16  C   UNL     1       3.072  -0.789   4.667  0.00  0.00    +0.000 C 
ATOM     17  C   UNL     1       3.841   0.200   5.534  0.00  0.00    +0.000 C 
ATOM     18  C   UNL     1       5.324   0.204   5.185  0.00  0.00    +0.000 C 
ATOM     19  C   UNL     1       5.548   0.471   3.699  0.00  0.00    +0.000 C 
ENDBRANCH  13  14
ENDBRANCH   1  13
TORSDOF 5
