REMARK  Name = *****
REMARK  3 active torsions:
REMARK  status: ('A' for Active; 'I' for Inactive)
REMARK    1  A    between atoms: C_6  and  S_9
REMARK    2  A    between atoms: S_9  and  C_10
REMARK    3  A    between atoms: C_10  and  C_11
REMARK                            x       y       z     vdW  Elec       q    Type
REMARK                         _______ _______ _______ _____ _____    ______ ____
ROOT
ATOM      1  C   UNL     1      -2.102   0.099  -0.145  0.00  0.00    +0.000 C 
ATOM      2  C   UNL     1      -1.243  -1.165  -0.043  0.00  0.00    +0.000 C 
ATOM      3  C   UNL     1       0.020  -0.654   0.636  0.00  0.00    +0.000 C 
ATOM      4  C   UNL     1       1.321  -1.390   0.353  0.00  0.00    +0.000 C 
ATOM      5  S   UNL     1       2.566  -0.048   0.355  0.00  0.00    +0.000 S 
ATOM      6  C   UNL     1       1.358   1.116  -0.146  0.00  0.00    +0.000 C 
ATOM      7  N   UNL     1       0.158   0.690   0.009  0.00  0.00    +0.000 NA
ATOM      8  C   UNL     1      -1.121   1.216  -0.513  0.00  0.00    +0.000 C 
ENDROOT
BRANCH   6   9
ATOM      9  S   UNL     1       1.801   2.601  -0.901  0.00  0.00    +0.000 S 
BRANCH   9  10
ATOM     10  C   UNL     1       3.064   3.232   0.246  0.00  0.00    +0.000 C 
BRANCH  10  11
ATOM     11  C   UNL     1       3.409   4.664  -0.067  0.00  0.00    +0.000 A 
ATOM     12  C   UNL     1       2.721   5.719   0.553  0.00  0.00    +0.000 A 
ATOM     13  C   UNL     1       3.037   7.044   0.249  0.00  0.00    +0.000 A 
ATOM     14  C   UNL     1       4.038   7.330  -0.677  0.00  0.00    +0.000 A 
ATOM     15  C   UNL     1       4.723   6.292  -1.303  0.00  0.00    +0.000 A 
ATOM     16  C   UNL     1       4.410   4.966  -1.003  0.00  0.00    +0.000 A 
ENDBRANCH  10  11
ENDBRANCH   9  10
ENDBRANCH   6   9
TORSDOF 3
