REMARK  Name = *****
REMARK  2 active torsions:
REMARK  status: ('A' for Active; 'I' for Inactive)
REMARK    1  A    between atoms: C_4  and  C_7
REMARK    2  A    between atoms: N_8  and  C_9
REMARK                            x       y       z     vdW  Elec       q    Type
REMARK                         _______ _______ _______ _____ _____    ______ ____
ROOT
ATOM      1  C   UNL     1      -5.067  -0.286  -0.351  0.00  0.00    +0.000 A 
ATOM      2  C   UNL     1      -5.818  -0.986  -1.299  0.00  0.00    +0.000 A 
ATOM      3  C   UNL     1      -7.184  -0.744  -1.422  0.00  0.00    +0.000 A 
ATOM      4  C   UNL     1      -7.815   0.185  -0.601  0.00  0.00    +0.000 A 
ATOM      5  C   UNL     1      -7.093   0.883   0.357  0.00  0.00    +0.000 A 
ATOM      6  C   UNL     1      -5.728   0.639   0.479  0.00  0.00    +0.000 A 
ATOM      7  F   UNL     1      -5.042   1.317   1.412  0.00  0.00    +0.000 F 
ATOM      8  F   UNL     1      -9.129   0.412  -0.727  0.00  0.00    +0.000 F 
ATOM      9  F   UNL     1      -7.890  -1.418  -2.340  0.00  0.00    +0.000 F 
ENDROOT
BRANCH   1  11
ATOM     10  C   UNL     1      -2.855   0.392  -0.261  0.00  0.00    +0.000 C 
ATOM     11  N   UNL     1      -3.699  -0.592  -0.239  0.00  0.00    +0.000 NA
BRANCH  10  15
ATOM     12  C   UNL     1       1.355  -0.186   0.088  0.00  0.00    +0.000 A 
ATOM     13  C   UNL     1       0.503  -1.291   0.118  0.00  0.00    +0.000 A 
ATOM     14  C   UNL     1      -0.876  -1.113   0.006  0.00  0.00    +0.000 A 
ATOM     15  C   UNL     1      -1.400   0.175  -0.138  0.00  0.00    +0.000 A 
ATOM     16  C   UNL     1      -0.548   1.283  -0.168  0.00  0.00    +0.000 A 
ATOM     17  C   UNL     1       0.831   1.099  -0.055  0.00  0.00    +0.000 A 
ENDBRANCH  10  15
ENDBRANCH   1  11
TORSDOF 2
