REMARK  Name = *****
REMARK  4 active torsions:
REMARK  status: ('A' for Active; 'I' for Inactive)
REMARK    1  A    between atoms: C_6  and  C_7
REMARK    2  A    between atoms: C_7  and  O_8
REMARK    3  A    between atoms: O_8  and  C_9
REMARK    4  A    between atoms: C_9  and  C_11
REMARK                            x       y       z     vdW  Elec       q    Type
REMARK                         _______ _______ _______ _____ _____    ______ ____
ROOT
ATOM      1  O   UNL     1      -3.957   1.383   0.171  0.00  0.00    +0.000 OA
ENDROOT
BRANCH   1   2
ATOM      2  C   UNL     1      -5.266   1.475  -0.163  0.00  0.00    +0.000 C 
ATOM      3  O   UNL     1      -6.012   0.545  -0.422  0.00  0.00    +0.000 OA
BRANCH   2   4
ATOM      4  C   UNL     1      -5.702   2.900  -0.168  0.00  0.00    +0.000 A 
ATOM      5  C   UNL     1      -4.832   3.955   0.153  0.00  0.00    +0.000 A 
ATOM      6  C   UNL     1      -5.295   5.273   0.138  0.00  0.00    +0.000 A 
ATOM      7  C   UNL     1      -6.619   5.535  -0.196  0.00  0.00    +0.000 A 
ATOM      8  C   UNL     1      -7.493   4.503  -0.518  0.00  0.00    +0.000 A 
ATOM      9  C   UNL     1      -7.035   3.183  -0.504  0.00  0.00    +0.000 A 
ATOM     10  F   UNL     1      -7.058   6.800  -0.208  0.00  0.00    +0.000 F 
ENDBRANCH   2   4
ENDBRANCH   1   2
BRANCH   1  11
ATOM     11  C   UNL     1      -3.415   0.057   0.184  0.00  0.00    +0.000 C 
BRANCH  11  17
ATOM     12  C   UNL     1      -3.374  -1.174  -2.023  0.00  0.00    +0.000 A 
ATOM     13  C   UNL     1      -2.790  -1.450  -3.260  0.00  0.00    +0.000 A 
ATOM     14  C   UNL     1      -1.621  -0.795  -3.627  0.00  0.00    +0.000 A 
ATOM     15  C   UNL     1      -1.025   0.134  -2.783  0.00  0.00    +0.000 A 
ATOM     16  C   UNL     1      -1.605   0.409  -1.544  0.00  0.00    +0.000 A 
ATOM     17  C   UNL     1      -2.782  -0.248  -1.150  0.00  0.00    +0.000 A 
ATOM     18  F   UNL     1      -1.062  -1.059  -4.816  0.00  0.00    +0.000 F 
ENDBRANCH  11  17
ENDBRANCH   1  11
TORSDOF 4
