REMARK  Name = *****
REMARK  4 active torsions:
REMARK  status: ('A' for Active; 'I' for Inactive)
REMARK    1  A    between atoms: C_4  and  N_7
REMARK    2  A    between atoms: N_7  and  C_8
REMARK    3  A    between atoms: C_8  and  C_9
REMARK    4  A    between atoms: C_12  and  C_15
REMARK                            x       y       z     vdW  Elec       q    Type
REMARK                         _______ _______ _______ _____ _____    ______ ____
ROOT
ATOM      1  C   UNL     1       5.433   0.309  -0.431  0.00  0.00    +0.000 A 
ATOM      2  C   UNL     1       6.211   1.291  -0.945  0.00  0.00    +0.000 A 
ATOM      3  C   UNL     1       7.365   0.864  -1.601  0.00  0.00    +0.000 A 
ATOM      4  C   UNL     1       8.329   0.062  -0.955  0.00  0.00    +0.000 A 
ATOM      5  C   UNL     1       7.438  -0.984  -0.782  0.00  0.00    +0.000 A 
ATOM      6  C   UNL     1       6.022  -0.926  -0.454  0.00  0.00    +0.000 A 
ENDROOT
BRANCH   4   7
ATOM      7  C   UNL     1       9.263   1.254  -1.137  0.00  0.00    +0.000 C 
ATOM      8  F   UNL     1       8.758   2.477  -0.711  0.00  0.00    +0.000 F 
ATOM      9  F   UNL     1      10.434   1.158  -0.440  0.00  0.00    +0.000 F 
ATOM     10  F   UNL     1       9.649   1.477  -2.435  0.00  0.00    +0.000 F 
ENDBRANCH   4   7
BRANCH   1  11
ATOM     11  C   UNL     1       4.073   0.522  -0.113  0.00  0.00    +0.000 C 
BRANCH  11  12
ATOM     12  N   UNL     1       2.960   0.554   0.002  0.00  0.00    +0.000 NA
BRANCH  12  16
ATOM     13  C   UNL     1      -1.128  -0.050   0.014  0.00  0.00    +0.000 A 
ATOM     14  C   UNL     1      -0.628   1.257   0.022  0.00  0.00    +0.000 A 
ATOM     15  C   UNL     1       0.748   1.481   0.026  0.00  0.00    +0.000 A 
ATOM     16  C   UNL     1       1.596   0.382   0.027  0.00  0.00    +0.000 A 
ATOM     17  C   UNL     1       1.116  -0.925   0.004  0.00  0.00    +0.000 A 
ATOM     18  C   UNL     1      -0.256  -1.141  -0.000  0.00  0.00    +0.000 A 
ENDBRANCH  12  16
ENDBRANCH  11  12
ENDBRANCH   1  11
TORSDOF 4
