REMARK  Name = *****
REMARK  3 active torsions:
REMARK  status: ('A' for Active; 'I' for Inactive)
REMARK    1  A    between atoms: C_4  and  C_7
REMARK    2  A    between atoms: C_7  and  C_16
REMARK    3  A    between atoms: C_8  and  C_9
REMARK                            x       y       z     vdW  Elec       q    Type
REMARK                         _______ _______ _______ _____ _____    ______ ____
ROOT
ATOM      1  C   UNL     1      -2.822   0.499  -0.484  0.00  0.00    +0.000 C 
ATOM      2  C   UNL     1      -3.398   1.645  -0.059  0.00  0.00    +0.000 C 
ATOM      3 CL   UNL     1      -2.528   2.873   0.815  0.00  0.00    +0.000 Cl
ENDROOT
BRANCH   1   7
ATOM      4  C   UNL     1       1.313  -0.349   0.206  0.00  0.00    +0.000 A 
ATOM      5  C   UNL     1       0.338  -0.921   1.022  0.00  0.00    +0.000 A 
ATOM      6  C   UNL     1      -1.012  -0.643   0.799  0.00  0.00    +0.000 A 
ATOM      7  C   UNL     1      -1.394   0.209  -0.246  0.00  0.00    +0.000 A 
ATOM      8  C   UNL     1      -0.407   0.778  -1.063  0.00  0.00    +0.000 A 
ATOM      9  C   UNL     1       0.942   0.499  -0.836  0.00  0.00    +0.000 A 
ENDBRANCH   1   7
BRANCH   2  10
ATOM     10  C   UNL     1      -4.819   1.968  -0.273  0.00  0.00    +0.000 A 
ATOM     11  C   UNL     1      -5.746   1.791   0.762  0.00  0.00    +0.000 A 
ATOM     12  C   UNL     1      -7.095   2.087   0.558  0.00  0.00    +0.000 A 
ATOM     13  C   UNL     1      -7.525   2.561  -0.681  0.00  0.00    +0.000 A 
ATOM     14  C   UNL     1      -6.609   2.742  -1.716  0.00  0.00    +0.000 A 
ATOM     15  C   UNL     1      -5.259   2.448  -1.514  0.00  0.00    +0.000 A 
ENDBRANCH   2  10
BRANCH   1  16
ATOM     16  C   UNL     1      -3.578  -0.502  -1.173  0.00  0.00    +0.000 C 
ATOM     17  N   UNL     1      -4.183  -1.319  -1.733  0.00  0.00    +0.000 NA
ENDBRANCH   1  16
TORSDOF 3
