REMARK  Name = *****
REMARK  1 active torsions:
REMARK  status: ('A' for Active; 'I' for Inactive)
REMARK    1  A    between atoms: C_10  and  C_11
REMARK                            x       y       z     vdW  Elec       q    Type
REMARK                         _______ _______ _______ _____ _____    ______ ____
ROOT
ATOM      1  C   UNL     1       0.268   2.082   1.170  0.00  0.00    +0.000 C 
ATOM      2  C   UNL     1      -0.739   2.417   0.117  0.00  0.00    +0.000 C 
ATOM      3  C   UNL     1      -1.103   1.354  -0.609  0.00  0.00    +0.000 C 
ATOM      4  C   UNL     1      -0.390   0.118  -0.177  0.00  0.00    +0.000 C 
ATOM      5  C   UNL     1       0.590   0.611   0.916  0.00  0.00    +0.000 C 
ATOM      6  C   UNL     1       1.973   0.178   0.361  0.00  0.00    +0.000 C 
ATOM      7  C   UNL     1       1.588  -1.189  -0.240  0.00  0.00    +0.000 C 
ATOM      8  C   UNL     1       0.546  -0.581  -1.185  0.00  0.00    +0.000 C 
ATOM      9  C   UNL     1       1.396   0.440  -1.972  0.00  0.00    +0.000 C 
ATOM     10  C   UNL     1       2.449   0.902  -0.934  0.00  0.00    +0.000 C 
ENDROOT
BRANCH  10  11
ATOM     11  C   UNL     1       2.839   2.356  -0.821  0.00  0.00    +0.000 A 
ATOM     12  C   UNL     1       2.341   3.357  -1.664  0.00  0.00    +0.000 A 
ATOM     13  C   UNL     1       2.760   4.685  -1.529  0.00  0.00    +0.000 A 
ATOM     14  C   UNL     1       3.695   5.033  -0.560  0.00  0.00    +0.000 A 
ATOM     15  C   UNL     1       4.219   4.051   0.274  0.00  0.00    +0.000 A 
ATOM     16  C   UNL     1       3.800   2.725   0.140  0.00  0.00    +0.000 A 
ENDBRANCH  10  11
TORSDOF 1
