REMARK  Name = *****
REMARK  3 active torsions:
REMARK  status: ('A' for Active; 'I' for Inactive)
REMARK    1  A    between atoms: C_1  and  C_2
REMARK    2  A    between atoms: C_4  and  S_8
REMARK    3  A    between atoms: S_8  and  C_9
REMARK                            x       y       z     vdW  Elec       q    Type
REMARK                         _______ _______ _______ _____ _____    ______ ____
ROOT
ATOM      1  S   UNL     1      -2.038   2.505  -0.856  0.00  0.00    +0.000 S 
ENDROOT
BRANCH   1   5
ATOM      2  C   UNL     1       1.264  -0.479  -3.710  0.00  0.00    +0.000 C 
ATOM      3  C   UNL     1       0.450  -0.302  -2.463  0.00  0.00    +0.000 A 
ATOM      4  C   UNL     1      -0.292   0.871  -2.261  0.00  0.00    +0.000 A 
ATOM      5  C   UNL     1      -1.067   1.038  -1.109  0.00  0.00    +0.000 A 
ATOM      6  C   UNL     1      -1.148  -0.006  -0.182  0.00  0.00    +0.000 A 
ATOM      7  C   UNL     1      -0.428  -1.184  -0.382  0.00  0.00    +0.000 A 
ATOM      8  C   UNL     1       0.368  -1.331  -1.518  0.00  0.00    +0.000 A 
ENDBRANCH   1   5
BRANCH   1   9
ATOM      9  C   UNL     1      -0.835   3.735  -0.227  0.00  0.00    +0.000 C 
ATOM     10  C   UNL     1       0.155   4.345  -1.262  0.00  0.00    +0.000 C 
ATOM     11  C   UNL     1       1.465   4.445  -0.444  0.00  0.00    +0.000 C 
ATOM     12  C   UNL     1       0.941   4.689   0.977  0.00  0.00    +0.000 C 
ATOM     13  C   UNL     1       0.078   3.412   0.986  0.00  0.00    +0.000 C 
ATOM     14  C   UNL     1       1.173   2.434   0.623  0.00  0.00    +0.000 C 
ATOM     15  C   UNL     1       1.992   3.046  -0.245  0.00  0.00    +0.000 C 
ENDBRANCH   1   9
TORSDOF 2
