REMARK  Name = *****
REMARK  5 active torsions:
REMARK  status: ('A' for Active; 'I' for Inactive)
REMARK    1  A    between atoms: C_1  and  C_2
REMARK    2  A    between atoms: C_6  and  O_8
REMARK    3  A    between atoms: O_8  and  O_9
REMARK    4  A    between atoms: O_9  and  C_10
REMARK    5  A    between atoms: C_14  and  C_16
REMARK                            x       y       z     vdW  Elec       q    Type
REMARK                         _______ _______ _______ _____ _____    ______ ____
ROOT
ATOM      1  O   UNL     1      -1.718  -2.316  -0.563  0.00  0.00    +0.000 OA
ENDROOT
BRANCH   1   7
ATOM      2  C   UNL     1       2.497   0.062   0.234  0.00  0.00    +0.000 C 
ATOM      3  C   UNL     1       0.986   0.101   0.452  0.00  0.00    +0.000 C 
ATOM      4  C   UNL     1       0.378   1.351  -0.200  0.00  0.00    +0.000 C 
ATOM      5  C   UNL     1      -1.141   1.383  -0.053  0.00  0.00    +0.000 C 
ATOM      6  C   UNL     1      -1.784   0.111  -0.594  0.00  0.00    +0.000 C 
ATOM      7  C   UNL     1      -1.195  -1.140   0.062  0.00  0.00    +0.000 C 
ATOM      8  C   UNL     1       0.327  -1.172  -0.093  0.00  0.00    +0.000 C 
ENDBRANCH   1   7
BRANCH   1   9
ATOM      9  O   UNL     1      -3.097  -2.436  -0.100  0.00  0.00    +0.000 OA
BRANCH   9  10
ATOM     10  C   UNL     1      -3.610  -3.629  -0.699  0.00  0.00    +0.000 C 
ATOM     11  C   UNL     1      -3.871  -3.400  -2.190  0.00  0.00    +0.000 C 
ATOM     12  C   UNL     1      -4.554  -4.602  -2.831  0.00  0.00    +0.000 C 
ATOM     13  C   UNL     1      -5.842  -4.973  -2.101  0.00  0.00    +0.000 C 
ATOM     14  C   UNL     1      -5.598  -5.206  -0.603  0.00  0.00    +0.000 C 
ATOM     15  C   UNL     1      -4.904  -3.995   0.031  0.00  0.00    +0.000 C 
ATOM     16  C   UNL     1      -6.912  -5.511   0.114  0.00  0.00    +0.000 C 
ENDBRANCH   9  10
ENDBRANCH   1   9
TORSDOF 3
