REMARK  Name = *****
REMARK  4 active torsions:
REMARK  status: ('A' for Active; 'I' for Inactive)
REMARK    1  A    between atoms: C_1  and  C_2
REMARK    2  A    between atoms: C_5  and  C_8
REMARK    3  A    between atoms: C_9  and  C_10
REMARK    4  A    between atoms: C_10  and  C_12
REMARK                            x       y       z     vdW  Elec       q    Type
REMARK                         _______ _______ _______ _____ _____    ______ ____
ROOT
ATOM      1  C   UNL     1      -3.155   0.157   0.281  0.00  0.00    +0.000 C 
ATOM      2  C   UNL     1      -3.967   1.189   0.006  0.00  0.00    +0.000 C 
ENDROOT
BRANCH   1   7
ATOM      3  C   UNL     1       2.615   0.168   0.461  0.00  0.00    +0.000 C 
ATOM      4  C   UNL     1       1.117   0.195   0.409  0.00  0.00    +0.000 A 
ATOM      5  C   UNL     1       0.370   0.429   1.569  0.00  0.00    +0.000 A 
ATOM      6  C   UNL     1      -1.026   0.428   1.526  0.00  0.00    +0.000 A 
ATOM      7  C   UNL     1      -1.693   0.183   0.323  0.00  0.00    +0.000 A 
ATOM      8  C   UNL     1      -0.952  -0.063  -0.836  0.00  0.00    +0.000 A 
ATOM      9  C   UNL     1       0.445  -0.063  -0.792  0.00  0.00    +0.000 A 
ENDBRANCH   1   7
BRANCH   2  10
ATOM     10  C   UNL     1      -3.530   2.591  -0.257  0.00  0.00    +0.000 C 
ATOM     11  O   UNL     1      -2.506   3.065   0.220  0.00  0.00    +0.000 OA
BRANCH  10  12
ATOM     12  C   UNL     1      -4.443   3.453  -1.058  0.00  0.00    +0.000 A 
ATOM     13  C   UNL     1      -4.386   4.840  -0.863  0.00  0.00    +0.000 A 
ATOM     14  C   UNL     1      -5.221   5.690  -1.591  0.00  0.00    +0.000 A 
ATOM     15  C   UNL     1      -6.109   5.160  -2.526  0.00  0.00    +0.000 A 
ATOM     16  C   UNL     1      -6.159   3.783  -2.740  0.00  0.00    +0.000 A 
ATOM     17  C   UNL     1      -5.326   2.929  -2.013  0.00  0.00    +0.000 A 
ENDBRANCH  10  12
ENDBRANCH   2  10
TORSDOF 3
