REMARK  Name = *****
REMARK  7 active torsions:
REMARK  status: ('A' for Active; 'I' for Inactive)
REMARK    1  A    between atoms: C_1  and  C_2
REMARK    2  A    between atoms: C_4  and  C_8
REMARK    3  A    between atoms: C_9  and  C_10
REMARK    4  A    between atoms: C_9  and  C_12
REMARK    5  A    between atoms: C_10  and  O_11
REMARK    6  A    between atoms: C_13  and  C_19
REMARK    7  A    between atoms: C_16  and  C_18
REMARK                            x       y       z     vdW  Elec       q    Type
REMARK                         _______ _______ _______ _____ _____    ______ ____
ROOT
ATOM      1  C   UNL     1      -1.706   2.583  -0.211  0.00  0.00    +0.000 C 
ATOM      2  C   UNL     1      -1.183   3.728   0.272  0.00  0.00    +0.000 C 
ENDROOT
BRANCH   2   3
ATOM      3  C   UNL     1      -1.982   4.968   0.157  0.00  0.00    +0.000 A 
ATOM      4  C   UNL     1      -3.148   5.196   0.916  0.00  0.00    +0.000 A 
ATOM      5  C   UNL     1      -3.861   6.391   0.727  0.00  0.00    +0.000 A 
ATOM      6  C   UNL     1      -3.418   7.355  -0.182  0.00  0.00    +0.000 A 
ATOM      7  C   UNL     1      -2.262   7.139  -0.934  0.00  0.00    +0.000 A 
ATOM      8  C   UNL     1      -1.546   5.950  -0.750  0.00  0.00    +0.000 A 
ATOM      9  C   UNL     1      -1.759   8.188  -1.879  0.00  0.00    +0.000 C 
ATOM     10  C   UNL     1      -3.667   4.193   1.911  0.00  0.00    +0.000 C 
ENDBRANCH   2   3
BRANCH   1  14
ATOM     11  C   UNL     1       0.774  -0.990  -2.660  0.00  0.00    +0.000 C 
ATOM     12  C   UNL     1       0.206  -0.442  -1.385  0.00  0.00    +0.000 A 
ATOM     13  C   UNL     1      -0.466   0.788  -1.378  0.00  0.00    +0.000 A 
ATOM     14  C   UNL     1      -1.025   1.288  -0.196  0.00  0.00    +0.000 A 
ATOM     15  C   UNL     1      -0.932   0.542   0.982  0.00  0.00    +0.000 A 
ATOM     16  C   UNL     1      -0.278  -0.690   0.980  0.00  0.00    +0.000 A 
ATOM     17  C   UNL     1       0.285  -1.182  -0.198  0.00  0.00    +0.000 A 
ENDBRANCH   1  14
BRANCH   2  18
ATOM     18  C   UNL     1       0.174   3.878   0.909  0.00  0.00    +0.000 C 
BRANCH  18  19
ATOM     19  O   UNL     1       1.167   4.010  -0.102  0.00  0.00    +0.000 OA
ATOM     20  H   UNL     1       1.163   3.219  -0.664  0.00  0.00    +0.000 HD
ENDBRANCH  18  19
ENDBRANCH   2  18
TORSDOF 4
