REMARK  Name = *****
REMARK  5 active torsions:
REMARK  status: ('A' for Active; 'I' for Inactive)
REMARK    1  A    between atoms: C_1  and  C_2
REMARK    2  A    between atoms: C_4  and  C_17
REMARK    3  A    between atoms: C_5  and  C_9
REMARK    4  A    between atoms: C_6  and  C_8
REMARK    5  A    between atoms: N_10  and  C_11
REMARK                            x       y       z     vdW  Elec       q    Type
REMARK                         _______ _______ _______ _____ _____    ______ ____
ROOT
ATOM      1  C   UNL     1       2.082   1.986  -0.076  0.00  0.00    +0.000 C 
ATOM      2  C   UNL     1       1.025   0.924  -0.005  0.00  0.00    +0.000 A 
ATOM      3  C   UNL     1       1.377  -0.428   0.005  0.00  0.00    +0.000 A 
ATOM      4  C   UNL     1       0.405  -1.440   0.109  0.00  0.00    +0.000 A 
ATOM      5  C   UNL     1      -0.958  -1.076   0.199  0.00  0.00    +0.000 A 
ATOM      6  C   UNL     1      -1.325   0.291   0.202  0.00  0.00    +0.000 A 
ATOM      7  C   UNL     1      -0.322   1.273   0.111  0.00  0.00    +0.000 A 
ATOM      8  C   UNL     1      -2.756   0.751   0.298  0.00  0.00    +0.000 C 
ATOM      9  C   UNL     1       0.882  -2.868   0.124  0.00  0.00    +0.000 C 
ENDROOT
BRANCH   5  10
ATOM     10  C   UNL     1      -2.042  -2.093   0.309  0.00  0.00    +0.000 C 
ATOM     11  N   UNL     1      -1.901  -3.334  -0.038  0.00  0.00    +0.000 NA
BRANCH  11  12
ATOM     12  C   UNL     1      -3.030  -4.149   0.126  0.00  0.00    +0.000 A 
ATOM     13  C   UNL     1      -3.895  -4.374  -0.947  0.00  0.00    +0.000 A 
ATOM     14  C   UNL     1      -5.015  -5.194  -0.793  0.00  0.00    +0.000 A 
ATOM     15  C   UNL     1      -5.268  -5.801   0.437  0.00  0.00    +0.000 A 
ATOM     16  C   UNL     1      -4.400  -5.595   1.508  0.00  0.00    +0.000 A 
ATOM     17  C   UNL     1      -3.281  -4.774   1.350  0.00  0.00    +0.000 A 
ENDBRANCH  11  12
ENDBRANCH   5  10
TORSDOF 2
