REMARK  Name = *****
REMARK  5 active torsions:
REMARK  status: ('A' for Active; 'I' for Inactive)
REMARK    1  A    between atoms: C_4  and  C_7
REMARK    2  A    between atoms: C_8  and  C_9
REMARK    3  A    between atoms: C_14  and  C_15
REMARK    4  A    between atoms: C_15  and  O_17
REMARK    5  A    between atoms: O_17  and  O_18
REMARK                            x       y       z     vdW  Elec       q    Type
REMARK                         _______ _______ _______ _____ _____    ______ ____
ROOT
ATOM      1  C   UNL     1       1.946  -0.033   0.047  0.00  0.00    +0.000 A 
ATOM      2  C   UNL     1       2.674   1.165   0.042  0.00  0.00    +0.000 A 
ATOM      3  C   UNL     1       4.070   1.148   0.011  0.00  0.00    +0.000 A 
ATOM      4  C   UNL     1       4.753  -0.065  -0.025  0.00  0.00    +0.000 A 
ATOM      5  C   UNL     1       4.040  -1.264  -0.020  0.00  0.00    +0.000 A 
ATOM      6  C   UNL     1       2.636  -1.256   0.032  0.00  0.00    +0.000 A 
ENDROOT
BRANCH   1   8
ATOM      7  C   UNL     1      -0.685   0.100   0.011  0.00  0.00    +0.000 C 
ATOM      8  C   UNL     1       0.516   0.051   0.026  0.00  0.00    +0.000 C 
BRANCH   7  12
ATOM      9  C   UNL     1      -4.906   0.140  -0.017  0.00  0.00    +0.000 A 
ATOM     10  C   UNL     1      -4.220  -1.069   0.092  0.00  0.00    +0.000 A 
ATOM     11  C   UNL     1      -2.824  -1.082   0.102  0.00  0.00    +0.000 A 
ATOM     12  C   UNL     1      -2.114   0.117   0.002  0.00  0.00    +0.000 A 
ATOM     13  C   UNL     1      -2.802   1.328  -0.106  0.00  0.00    +0.000 A 
ATOM     14  C   UNL     1      -4.198   1.338  -0.116  0.00  0.00    +0.000 A 
ENDBRANCH   7  12
ENDBRANCH   1   8
BRANCH   6  15
ATOM     15  C   UNL     1       1.965  -2.575   0.031  0.00  0.00    +0.000 C 
ATOM     16  O   UNL     1       2.372  -3.555  -0.579  0.00  0.00    +0.000 OA
BRANCH  15  17
ATOM     17  O   UNL     1       0.933  -2.606   0.922  0.00  0.00    +0.000 OA
BRANCH  17  18
ATOM     18  O   UNL     1       0.252  -3.906   0.776  0.00  0.00    +0.000 OA
ATOM     19  H   UNL     1      -0.488  -3.955   1.401  0.00  0.00    +0.000 HD
ENDBRANCH  17  18
ENDBRANCH  15  17
ENDBRANCH   6  15
TORSDOF 5
