REMARK  Name = *****
REMARK  2 active torsions:
REMARK  status: ('A' for Active; 'I' for Inactive)
REMARK    1  A    between atoms: C_5  and  C_7
REMARK    2  A    between atoms: C_8  and  C_9
REMARK                            x       y       z     vdW  Elec       q    Type
REMARK                         _______ _______ _______ _____ _____    ______ ____
ROOT
ATOM      1  C   UNL     1       1.517  -1.560  -1.358  0.00  0.00    +0.000 C 
ATOM      2  C   UNL     1       1.919  -1.921  -2.432  0.00  0.00    +0.000 C 
ENDROOT
BRANCH   2   3
ATOM      3  C   UNL     1       2.396  -2.351  -3.709  0.00  0.00    +0.000 A 
ATOM      4  C   UNL     1       2.496  -1.440  -4.761  0.00  0.00    +0.000 A 
ATOM      5  C   UNL     1       2.964  -1.874  -5.996  0.00  0.00    +0.000 A 
ATOM      6  C   UNL     1       3.333  -3.200  -6.201  0.00  0.00    +0.000 A 
ATOM      7  C   UNL     1       3.233  -4.111  -5.151  0.00  0.00    +0.000 A 
ATOM      8  C   UNL     1       2.764  -3.686  -3.905  0.00  0.00    +0.000 A 
ATOM      9  F   UNL     1       3.062  -1.001  -7.007  0.00  0.00    +0.000 F 
ENDBRANCH   2   3
BRANCH   1  14
ATOM     10  C   UNL     1       0.432   1.321  -0.445  0.00  0.00    +0.000 C 
ATOM     11  C   UNL     1      -1.010   1.077   0.005  0.00  0.00    +0.000 C 
ATOM     12  C   UNL     1      -1.367  -0.379   0.077  0.00  0.00    +0.000 C 
ATOM     13  C   UNL     1      -0.453  -1.362   0.040  0.00  0.00    +0.000 C 
ATOM     14  C   UNL     1       1.033  -1.120  -0.036  0.00  0.00    +0.000 C 
ATOM     15  C   UNL     1       1.402   0.350   0.230  0.00  0.00    +0.000 C 
ENDBRANCH   1  14
TORSDOF 2
