REMARK  Name = *****
REMARK  4 active torsions:
REMARK  status: ('A' for Active; 'I' for Inactive)
REMARK    1  A    between atoms: C_4  and  O_9
REMARK    2  A    between atoms: C_5  and  S_8
REMARK    3  A    between atoms: O_9  and  C_10
REMARK    4  A    between atoms: C_10  and  C_12
REMARK                            x       y       z     vdW  Elec       q    Type
REMARK                         _______ _______ _______ _____ _____    ______ ____
ROOT
ATOM      1  C   UNL     1      -1.630   1.013  -0.322  0.00  0.00    +0.000 C 
ATOM      2  C   UNL     1      -0.385   1.765   0.129  0.00  0.00    +0.000 C 
ATOM      3  C   UNL     1       0.462   1.040   1.172  0.00  0.00    +0.000 C 
ATOM      4  C   UNL     1       1.345  -0.065   0.575  0.00  0.00    +0.000 C 
ATOM      5  C   UNL     1       0.631  -1.413   0.329  0.00  0.00    +0.000 C 
ATOM      6  C   UNL     1      -0.873  -1.386   0.043  0.00  0.00    +0.000 C 
ATOM      7  C   UNL     1      -1.356  -0.344  -0.962  0.00  0.00    +0.000 C 
ENDROOT
BRANCH   5   8
ATOM      8  S   UNL     1       1.503  -2.333  -1.015  0.00  0.00    +0.000 S 
ATOM      9  H   UNL     1       1.383  -1.650  -2.184  0.00  0.00    +0.000 HD
ENDBRANCH   5   8
BRANCH   4  10
ATOM     10  O   UNL     1       2.395  -0.349   1.540  0.00  0.00    +0.000 OA
BRANCH  10  11
ATOM     11  C   UNL     1       3.512   0.416   1.491  0.00  0.00    +0.000 C 
ATOM     12  O   UNL     1       3.724   1.325   0.705  0.00  0.00    +0.000 OA
BRANCH  11  13
ATOM     13  C   UNL     1       4.448   0.022   2.580  0.00  0.00    +0.000 A 
ATOM     14  C   UNL     1       5.620   0.771   2.753  0.00  0.00    +0.000 A 
ATOM     15  C   UNL     1       6.517   0.448   3.774  0.00  0.00    +0.000 A 
ATOM     16  C   UNL     1       6.251  -0.624   4.625  0.00  0.00    +0.000 A 
ATOM     17  C   UNL     1       5.090  -1.377   4.457  0.00  0.00    +0.000 A 
ATOM     18  C   UNL     1       4.190  -1.058   3.438  0.00  0.00    +0.000 A 
ENDBRANCH  11  13
ENDBRANCH  10  11
ENDBRANCH   4  10
TORSDOF 4
