REMARK  Name = *****
REMARK  6 active torsions:
REMARK  status: ('A' for Active; 'I' for Inactive)
REMARK    1  A    between atoms: C_1  and  C_2
REMARK    2  A    between atoms: C_4  and  C_18
REMARK    3  A    between atoms: C_5  and  C_9
REMARK    4  A    between atoms: C_6  and  C_8
REMARK    5  A    between atoms: C_9  and  O_11
REMARK    6  A    between atoms: O_11  and  C_12
REMARK                            x       y       z     vdW  Elec       q    Type
REMARK                         _______ _______ _______ _____ _____    ______ ____
ROOT
ATOM      1  C   UNL     1       2.313   1.834   0.559  0.00  0.00    +0.000 C 
ATOM      2  C   UNL     1       1.186   0.878   0.294  0.00  0.00    +0.000 A 
ATOM      3  C   UNL     1       1.412  -0.504   0.302  0.00  0.00    +0.000 A 
ATOM      4  C   UNL     1       0.361  -1.411   0.099  0.00  0.00    +0.000 A 
ATOM      5  C   UNL     1      -0.934  -0.905  -0.137  0.00  0.00    +0.000 A 
ATOM      6  C   UNL     1      -1.184   0.483  -0.129  0.00  0.00    +0.000 A 
ATOM      7  C   UNL     1      -0.114   1.360   0.099  0.00  0.00    +0.000 A 
ATOM      8  C   UNL     1      -2.566   1.039  -0.333  0.00  0.00    +0.000 C 
ATOM      9  C   UNL     1       0.651  -2.887   0.116  0.00  0.00    +0.000 C 
ENDROOT
BRANCH   5  10
ATOM     10  C   UNL     1      -2.062  -1.831  -0.374  0.00  0.00    +0.000 C 
ATOM     11  O   UNL     1      -3.004  -1.965   0.389  0.00  0.00    +0.000 OA
BRANCH  10  12
ATOM     12  O   UNL     1      -1.851  -2.414  -1.607  0.00  0.00    +0.000 OA
BRANCH  12  13
ATOM     13  C   UNL     1      -2.893  -3.263  -1.981  0.00  0.00    +0.000 A 
ATOM     14  C   UNL     1      -3.936  -2.755  -2.753  0.00  0.00    +0.000 A 
ATOM     15  C   UNL     1      -4.952  -3.614  -3.171  0.00  0.00    +0.000 A 
ATOM     16  C   UNL     1      -4.908  -4.967  -2.828  0.00  0.00    +0.000 A 
ATOM     17  C   UNL     1      -3.846  -5.467  -2.070  0.00  0.00    +0.000 A 
ATOM     18  C   UNL     1      -2.827  -4.614  -1.648  0.00  0.00    +0.000 A 
ENDBRANCH  12  13
ENDBRANCH  10  12
ENDBRANCH   5  10
TORSDOF 3
