REMARK  Name = *****
REMARK  4 active torsions:
REMARK  status: ('A' for Active; 'I' for Inactive)
REMARK    1  A    between atoms: C_3  and  C_11
REMARK    2  A    between atoms: C_5  and  C_7
REMARK    3  A    between atoms: C_11  and  O_12
REMARK    4  A    between atoms: O_12  and  C_13
REMARK                            x       y       z     vdW  Elec       q    Type
REMARK                         _______ _______ _______ _____ _____    ______ ____
ROOT
ATOM      1  C   UNL     1       0.540   0.539  -1.102  0.00  0.00    +0.000 A 
ATOM      2  C   UNL     1      -0.339  -0.543  -1.166  0.00  0.00    +0.000 A 
ATOM      3  C   UNL     1      -0.899  -1.074   0.003  0.00  0.00    +0.000 A 
ATOM      4  C   UNL     1      -0.548  -0.514   1.241  0.00  0.00    +0.000 A 
ATOM      5  C   UNL     1       0.329   0.582   1.317  0.00  0.00    +0.000 A 
ATOM      6  C   UNL     1       0.872   1.098   0.131  0.00  0.00    +0.000 A 
ENDROOT
BRANCH   5   7
ATOM      7  C   UNL     1       0.716   1.164   2.654  0.00  0.00    +0.000 C 
ATOM      8  F   UNL     1      -0.251   1.015   3.603  0.00  0.00    +0.000 F 
ATOM      9  F   UNL     1       1.837   0.587   3.168  0.00  0.00    +0.000 F 
ATOM     10  F   UNL     1       0.975   2.501   2.598  0.00  0.00    +0.000 F 
ENDBRANCH   5   7
BRANCH   3  11
ATOM     11  C   UNL     1      -1.833  -2.258  -0.060  0.00  0.00    +0.000 C 
BRANCH  11  12
ATOM     12  O   UNL     1      -1.081  -3.428   0.255  0.00  0.00    +0.000 OA
BRANCH  12  13
ATOM     13  C   UNL     1      -1.752  -4.619   0.253  0.00  0.00    +0.000 A 
ATOM     14  C   UNL     1      -3.108  -4.799  -0.009  0.00  0.00    +0.000 A 
ATOM     15  C   UNL     1      -3.649  -6.082   0.028  0.00  0.00    +0.000 A 
ATOM     16  C   UNL     1      -2.865  -7.192   0.321  0.00  0.00    +0.000 A 
ATOM     17  C   UNL     1      -1.509  -7.017   0.584  0.00  0.00    +0.000 A 
ATOM     18  C   UNL     1      -0.958  -5.734   0.550  0.00  0.00    +0.000 A 
ATOM     19  F   UNL     1      -4.954  -6.250  -0.226  0.00  0.00    +0.000 F 
ENDBRANCH  12  13
ENDBRANCH  11  12
ENDBRANCH   3  11
TORSDOF 4
