REMARK  Name = *****
REMARK  5 active torsions:
REMARK  status: ('A' for Active; 'I' for Inactive)
REMARK    1  A    between atoms: C_1  and  C_2
REMARK    2  A    between atoms: C_5  and  O_8
REMARK    3  A    between atoms: O_8  and  C_9
REMARK    4  A    between atoms: C_9  and  C_11
REMARK    5  A    between atoms: C_15  and  C_17
REMARK                            x       y       z     vdW  Elec       q    Type
REMARK                         _______ _______ _______ _____ _____    ______ ____
ROOT
ATOM      1  C   UNL     1      -3.957   1.215   0.011  0.00  0.00    +0.000 C 
ATOM      2  O   UNL     1      -4.965   1.321   0.694  0.00  0.00    +0.000 OA
ENDROOT
BRANCH   1   3
ATOM      3  C   UNL     1      -3.578   2.203  -1.038  0.00  0.00    +0.000 A 
ATOM      4  C   UNL     1      -2.421   2.074  -1.818  0.00  0.00    +0.000 A 
ATOM      5  C   UNL     1      -2.123   3.029  -2.793  0.00  0.00    +0.000 A 
ATOM      6  C   UNL     1      -2.973   4.117  -2.992  0.00  0.00    +0.000 A 
ATOM      7  C   UNL     1      -4.125   4.271  -2.212  0.00  0.00    +0.000 A 
ATOM      8  C   UNL     1      -4.427   3.302  -1.245  0.00  0.00    +0.000 A 
ATOM      9  C   UNL     1      -5.058   5.421  -2.450  0.00  0.00    +0.000 C 
ENDBRANCH   1   3
BRANCH   1  10
ATOM     10  O   UNL     1      -3.008   0.210   0.069  0.00  0.00    +0.000 OA
BRANCH  10  15
ATOM     11  C   UNL     1      -3.731  -4.058   3.759  0.00  0.00    +0.000 C 
ATOM     12  C   UNL     1      -3.569  -2.911   2.806  0.00  0.00    +0.000 A 
ATOM     13  C   UNL     1      -4.535  -2.671   1.819  0.00  0.00    +0.000 A 
ATOM     14  C   UNL     1      -4.374  -1.624   0.910  0.00  0.00    +0.000 A 
ATOM     15  C   UNL     1      -3.245  -0.812   0.997  0.00  0.00    +0.000 A 
ATOM     16  C   UNL     1      -2.258  -1.057   1.948  0.00  0.00    +0.000 A 
ATOM     17  C   UNL     1      -2.422  -2.106   2.853  0.00  0.00    +0.000 A 
ENDBRANCH  10  15
ENDBRANCH   1  10
TORSDOF 3
