REMARK  Name = *****
REMARK  4 active torsions:
REMARK  status: ('A' for Active; 'I' for Inactive)
REMARK    1  A    between atoms: C_1  and  C_2
REMARK    2  A    between atoms: C_4  and  C_7
REMARK    3  A    between atoms: C_7  and  S_8
REMARK    4  A    between atoms: S_8  and  C_9
REMARK                            x       y       z     vdW  Elec       q    Type
REMARK                         _______ _______ _______ _____ _____    ______ ____
ROOT
ATOM      1  S   UNL     1       0.910  -4.063  -0.477  0.00  0.00    +0.000 S 
ENDROOT
BRANCH   1   2
ATOM      2  C   UNL     1       2.124  -5.348  -0.258  0.00  0.00    +0.000 A 
ATOM      3  C   UNL     1       1.852  -6.401   0.623  0.00  0.00    +0.000 A 
ATOM      4  C   UNL     1       2.783  -7.427   0.805  0.00  0.00    +0.000 A 
ATOM      5  C   UNL     1       3.984  -7.406   0.099  0.00  0.00    +0.000 A 
ATOM      6  C   UNL     1       4.258  -6.371  -0.792  0.00  0.00    +0.000 A 
ATOM      7  C   UNL     1       3.327  -5.345  -0.974  0.00  0.00    +0.000 A 
ATOM      8 CL   UNL     1       5.130  -8.669   0.323  0.00  0.00    +0.000 Cl
ENDBRANCH   1   2
BRANCH   1   9
ATOM      9  C   UNL     1       1.888  -2.618   0.066  0.00  0.00    +0.000 C 
BRANCH   9  13
ATOM     10  C   UNL     1       0.441   1.786  -1.678  0.00  0.00    +0.000 C 
ATOM     11  C   UNL     1       0.474   0.596  -0.786  0.00  0.00    +0.000 A 
ATOM     12  N   UNL     1       1.296  -0.421  -0.932  0.00  0.00    +0.000 NA
ATOM     13  C   UNL     1       1.059  -1.374   0.051  0.00  0.00    +0.000 A 
ATOM     14  C   UNL     1       0.065  -1.033   0.951  0.00  0.00    +0.000 A 
ATOM     15  S   UNL     1      -0.606   0.489   0.545  0.00  0.00    +0.000 S 
ENDBRANCH   9  13
ENDBRANCH   1   9
TORSDOF 3
