REMARK  Name = *****
REMARK  6 active torsions:
REMARK  status: ('A' for Active; 'I' for Inactive)
REMARK    1  A    between atoms: C_1  and  C_2
REMARK    2  A    between atoms: C_4  and  C_18
REMARK    3  A    between atoms: C_5  and  C_8
REMARK    4  A    between atoms: C_8  and  C_10
REMARK    5  A    between atoms: C_10  and  C_11
REMARK    6  A    between atoms: C_11  and  C_12
REMARK                            x       y       z     vdW  Elec       q    Type
REMARK                         _______ _______ _______ _____ _____    ______ ____
ROOT
ATOM      1  C   UNL     1      -2.544  -1.780  -0.094  0.00  0.00    +0.000 C 
ATOM      2  O   UNL     1      -3.607  -1.165  -0.071  0.00  0.00    +0.000 OA
ENDROOT
BRANCH   1   7
ATOM      3  C   UNL     1       2.519   1.059   0.159  0.00  0.00    +0.000 C 
ATOM      4  C   UNL     1       1.220   0.314   0.057  0.00  0.00    +0.000 A 
ATOM      5  C   UNL     1       0.145   0.857  -0.658  0.00  0.00    +0.000 A 
ATOM      6  C   UNL     1      -1.091   0.190  -0.742  0.00  0.00    +0.000 A 
ATOM      7  C   UNL     1      -1.248  -1.036  -0.066  0.00  0.00    +0.000 A 
ATOM      8  C   UNL     1      -0.177  -1.569   0.667  0.00  0.00    +0.000 A 
ATOM      9  C   UNL     1       1.046  -0.898   0.729  0.00  0.00    +0.000 A 
ATOM     10  C   UNL     1      -2.200   0.826  -1.536  0.00  0.00    +0.000 C 
ENDBRANCH   1   7
BRANCH   1  11
ATOM     11  C   UNL     1      -2.487  -3.296  -0.119  0.00  0.00    +0.000 C 
BRANCH  11  12
ATOM     12  C   UNL     1      -3.754  -3.886  -0.737  0.00  0.00    +0.000 C 
BRANCH  12  13
ATOM     13  C   UNL     1      -3.683  -5.392  -0.799  0.00  0.00    +0.000 A 
ATOM     14  C   UNL     1      -4.156  -6.168   0.268  0.00  0.00    +0.000 A 
ATOM     15  C   UNL     1      -4.070  -7.560   0.221  0.00  0.00    +0.000 A 
ATOM     16  C   UNL     1      -3.508  -8.188  -0.889  0.00  0.00    +0.000 A 
ATOM     17  C   UNL     1      -3.030  -7.425  -1.953  0.00  0.00    +0.000 A 
ATOM     18  C   UNL     1      -3.115  -6.032  -1.908  0.00  0.00    +0.000 A 
ENDBRANCH  12  13
ENDBRANCH  11  12
ENDBRANCH   1  11
TORSDOF 4
