REMARK  Name = *****
REMARK  3 active torsions:
REMARK  status: ('A' for Active; 'I' for Inactive)
REMARK    1  A    between atoms: C_4  and  C_7
REMARK    2  A    between atoms: C_4  and  C_16
REMARK    3  A    between atoms: C_8  and  C_9
REMARK                            x       y       z     vdW  Elec       q    Type
REMARK                         _______ _______ _______ _____ _____    ______ ____
ROOT
ATOM      1  C   UNL     1       1.176   0.575  -2.293  0.00  0.00    +0.000 C 
ATOM      2  C   UNL     1       1.180  -0.170  -3.412  0.00  0.00    +0.000 C 
ENDROOT
BRANCH   2   3
ATOM      3  C   UNL     1       1.851   0.232  -4.658  0.00  0.00    +0.000 A 
ATOM      4  C   UNL     1       2.492  -0.748  -5.426  0.00  0.00    +0.000 A 
ATOM      5  C   UNL     1       3.111  -0.404  -6.629  0.00  0.00    +0.000 A 
ATOM      6  C   UNL     1       3.091   0.911  -7.086  0.00  0.00    +0.000 A 
ATOM      7  C   UNL     1       2.442   1.891  -6.337  0.00  0.00    +0.000 A 
ATOM      8  C   UNL     1       1.820   1.551  -5.132  0.00  0.00    +0.000 A 
ATOM      9 CL   UNL     1       3.903  -1.618  -7.559  0.00  0.00    +0.000 Cl
ENDBRANCH   2   3
BRANCH   1  13
ATOM     10  C   UNL     1      -2.000  -0.204   0.625  0.00  0.00    +0.000 C 
ATOM     11  C   UNL     1      -1.278   1.137   0.666  0.00  0.00    +0.000 C 
ATOM     12  C   UNL     1      -0.466   1.387  -0.607  0.00  0.00    +0.000 C 
ATOM     13  C   UNL     1       0.521   0.242  -0.948  0.00  0.00    +0.000 C 
ATOM     14  C   UNL     1      -0.234  -1.111  -0.937  0.00  0.00    +0.000 C 
ATOM     15  C   UNL     1      -1.035  -1.350   0.346  0.00  0.00    +0.000 C 
BRANCH  13  16
ATOM     16  C   UNL     1       1.613   0.205   0.064  0.00  0.00    +0.000 C 
ATOM     17  N   UNL     1       2.457   0.183   0.862  0.00  0.00    +0.000 NA
ENDBRANCH  13  16
ENDBRANCH   1  13
TORSDOF 3
