REMARK  Name = *****
REMARK  3 active torsions:
REMARK  status: ('A' for Active; 'I' for Inactive)
REMARK    1  A    between atoms: C_1  and  P_2
REMARK    2  A    between atoms: P_2  and  C_3
REMARK    3  A    between atoms: P_2  and  C_9
REMARK                            x       y       z     vdW  Elec       q    Type
REMARK                         _______ _______ _______ _____ _____    ______ ____
ROOT
ATOM      1  C   UNL     1       3.493  -0.831   1.646  0.00  0.00    +0.000 A 
ATOM      2  C   UNL     1       2.406  -1.475   2.266  0.00  0.00    +0.000 A 
ATOM      3  C   UNL     1       2.567  -2.192   3.448  0.00  0.00    +0.000 A 
ATOM      4  C   UNL     1       3.820  -2.287   4.037  0.00  0.00    +0.000 A 
ATOM      5  C   UNL     1       4.936  -1.681   3.448  0.00  0.00    +0.000 A 
ATOM      6  C   UNL     1       6.192  -1.807   4.066  0.00  0.00    +0.000 A 
ATOM      7  C   UNL     1       7.331  -1.233   3.508  0.00  0.00    +0.000 A 
ATOM      8  C   UNL     1       7.229  -0.529   2.319  0.00  0.00    +0.000 A 
ATOM      9  C   UNL     1       5.985  -0.394   1.695  0.00  0.00    +0.000 A 
ATOM     10  C   UNL     1       4.796  -0.951   2.237  0.00  0.00    +0.000 A 
ENDROOT
BRANCH   1  12
ATOM     11  C   UNL     1       1.468  -0.053  -0.351  0.00  0.00    +0.000 C 
ATOM     12  P   UNL     1       3.222   0.138   0.102  0.00  0.00    +0.000 P 
BRANCH  12  13
ATOM     13  C   UNL     1       3.315   1.895   0.719  0.00  0.00    +0.000 C 
ATOM     14  C   UNL     1       2.350   2.233   1.864  0.00  0.00    +0.000 C 
ATOM     15  C   UNL     1       2.521   3.681   2.327  0.00  0.00    +0.000 C 
ATOM     16  C   UNL     1       2.363   4.664   1.172  0.00  0.00    +0.000 C 
ATOM     17  C   UNL     1       3.308   4.333   0.021  0.00  0.00    +0.000 C 
ATOM     18  C   UNL     1       3.144   2.887  -0.445  0.00  0.00    +0.000 C 
ENDBRANCH  12  13
ENDBRANCH   1  12
TORSDOF 2
