REMARK  Name = *****
REMARK  3 active torsions:
REMARK  status: ('A' for Active; 'I' for Inactive)
REMARK    1  A    between atoms: C_6  and  C_7
REMARK    2  A    between atoms: C_8  and  C_9
REMARK    3  A    between atoms: C_8  and  C_11
REMARK                            x       y       z     vdW  Elec       q    Type
REMARK                         _______ _______ _______ _____ _____    ______ ____
ROOT
ATOM      1  C   UNL     1       3.854   0.166   0.156  0.00  0.00    +0.000 C 
ATOM      2  C   UNL     1       4.577   1.254  -0.181  0.00  0.00    +0.000 C 
ENDROOT
BRANCH   1   8
ATOM      3  C   UNL     1       1.655  -0.202   1.229  0.00  0.00    +0.000 A 
ATOM      4  C   UNL     1       0.266  -0.343   1.167  0.00  0.00    +0.000 A 
ATOM      5  C   UNL     1      -0.385  -0.248  -0.061  0.00  0.00    +0.000 A 
ATOM      6  C   UNL     1       0.340  -0.017  -1.227  0.00  0.00    +0.000 A 
ATOM      7  C   UNL     1       1.729   0.124  -1.166  0.00  0.00    +0.000 A 
ATOM      8  C   UNL     1       2.394   0.042   0.065  0.00  0.00    +0.000 A 
ATOM      9 CL   UNL     1      -2.095  -0.425  -0.137  0.00  0.00    +0.000 Cl
ENDBRANCH   1   8
BRANCH   2  10
ATOM     10  C   UNL     1       6.046   1.213  -0.007  0.00  0.00    +0.000 A 
ATOM     11  C   UNL     1       6.819   0.232  -0.653  0.00  0.00    +0.000 A 
ATOM     12  C   UNL     1       8.206   0.203  -0.489  0.00  0.00    +0.000 A 
ATOM     13  C   UNL     1       8.822   1.153   0.316  0.00  0.00    +0.000 A 
ATOM     14  C   UNL     1       8.079   2.134   0.960  0.00  0.00    +0.000 A 
ATOM     15  C   UNL     1       6.691   2.166   0.798  0.00  0.00    +0.000 A 
ATOM     16  F   UNL     1      10.152   1.123   0.472  0.00  0.00    +0.000 F 
ENDBRANCH   2  10
BRANCH   2  17
ATOM     17  C   UNL     1       3.974   2.462  -0.657  0.00  0.00    +0.000 C 
ATOM     18  N   UNL     1       3.497   3.446  -1.045  0.00  0.00    +0.000 NA
ENDBRANCH   2  17
TORSDOF 3
