REMARK  Name = *****
REMARK  5 active torsions:
REMARK  status: ('A' for Active; 'I' for Inactive)
REMARK    1  A    between atoms: C_1  and  O_2
REMARK    2  A    between atoms: O_2  and  C_3
REMARK    3  A    between atoms: C_6  and  C_9
REMARK    4  A    between atoms: C_9  and  C_10
REMARK    5  A    between atoms: C_10  and  C_12
REMARK                            x       y       z     vdW  Elec       q    Type
REMARK                         _______ _______ _______ _____ _____    ______ ____
ROOT
ATOM      1  C   UNL     1       5.377  -4.450   1.461  0.00  0.00    +0.000 C 
ENDROOT
BRANCH   1   5
ATOM      2  C   UNL     1       3.097  -0.943   0.337  0.00  0.00    +0.000 A 
ATOM      3  C   UNL     1       2.546  -1.895   1.193  0.00  0.00    +0.000 A 
ATOM      4  C   UNL     1       3.283  -3.030   1.552  0.00  0.00    +0.000 A 
ATOM      5  C   UNL     1       4.577  -3.233   1.055  0.00  0.00    +0.000 A 
ATOM      6  C   UNL     1       5.124  -2.273   0.195  0.00  0.00    +0.000 A 
ATOM      7  C   UNL     1       4.388  -1.139  -0.157  0.00  0.00    +0.000 A 
BRANCH   2   9
ATOM      8  C   UNL     1       1.147   0.414   0.331  0.00  0.00    +0.000 C 
ATOM      9  O   UNL     1       2.490   0.207  -0.088  0.00  0.00    +0.000 OA
ENDBRANCH   2   9
ENDBRANCH   1   5
BRANCH   1  10
ATOM     10  C   UNL     1       4.817  -5.779   0.975  0.00  0.00    +0.000 C 
ATOM     11  O   UNL     1       3.827  -5.874   0.253  0.00  0.00    +0.000 OA
BRANCH  10  12
ATOM     12  C   UNL     1       5.508  -7.038   1.403  0.00  0.00    +0.000 A 
ATOM     13  C   UNL     1       6.683  -7.030   2.170  0.00  0.00    +0.000 A 
ATOM     14  C   UNL     1       7.283  -8.237   2.545  0.00  0.00    +0.000 A 
ATOM     15  C   UNL     1       6.713  -9.443   2.155  0.00  0.00    +0.000 A 
ATOM     16  C   UNL     1       5.552  -9.470   1.395  0.00  0.00    +0.000 A 
ATOM     17  C   UNL     1       4.949  -8.268   1.018  0.00  0.00    +0.000 A 
ATOM     18  F   UNL     1       7.293 -10.594   2.518  0.00  0.00    +0.000 F 
ENDBRANCH  10  12
ENDBRANCH   1  10
TORSDOF 4
