REMARK  Name = *****
REMARK  4 active torsions:
REMARK  status: ('A' for Active; 'I' for Inactive)
REMARK    1  A    between atoms: C_4  and  O_7
REMARK    2  A    between atoms: O_7  and  N_8
REMARK    3  A    between atoms: N_8  and  C_9
REMARK    4  A    between atoms: C_9  and  C_10
REMARK                            x       y       z     vdW  Elec       q    Type
REMARK                         _______ _______ _______ _____ _____    ______ ____
ROOT
ATOM      1  C   UNL     1      -4.787  -0.455  -0.497  0.00  0.00    +0.000 C 
ENDROOT
BRANCH   1   2
ATOM      2  C   UNL     1      -5.797  -1.528  -0.554  0.00  0.00    +0.000 A 
ATOM      3  C   UNL     1      -5.457  -2.836  -0.191  0.00  0.00    +0.000 A 
ATOM      4  C   UNL     1      -6.427  -3.831  -0.238  0.00  0.00    +0.000 A 
ATOM      5  C   UNL     1      -7.724  -3.548  -0.641  0.00  0.00    +0.000 A 
ATOM      6  C   UNL     1      -8.045  -2.246  -1.002  0.00  0.00    +0.000 A 
ATOM      7  C   UNL     1      -7.096  -1.227  -0.965  0.00  0.00    +0.000 A 
ATOM      8  F   UNL     1      -9.295  -1.963  -1.392  0.00  0.00    +0.000 F 
ATOM      9  F   UNL     1      -6.103  -5.082   0.113  0.00  0.00    +0.000 F 
ENDBRANCH   1   2
BRANCH   1  10
ATOM     10  N   UNL     1      -3.580  -0.708  -0.112  0.00  0.00    +0.000 NA
BRANCH  10  11
ATOM     11  O   UNL     1      -2.818   0.467  -0.137  0.00  0.00    +0.000 OA
BRANCH  11  15
ATOM     12  C   UNL     1       1.182  -0.101   0.919  0.00  0.00    +0.000 A 
ATOM     13  C   UNL     1       0.322  -1.197   0.953  0.00  0.00    +0.000 A 
ATOM     14  C   UNL     1      -1.023  -1.040   0.610  0.00  0.00    +0.000 A 
ATOM     15  C   UNL     1      -1.513   0.213   0.230  0.00  0.00    +0.000 A 
ATOM     16  C   UNL     1      -0.646   1.309   0.203  0.00  0.00    +0.000 A 
ATOM     17  C   UNL     1       0.699   1.152   0.546  0.00  0.00    +0.000 A 
ENDBRANCH  11  15
ENDBRANCH  10  11
ENDBRANCH   1  10
TORSDOF 4
