REMARK  Name = *****
REMARK  6 active torsions:
REMARK  status: ('A' for Active; 'I' for Inactive)
REMARK    1  A    between atoms: C_1  and  C_2
REMARK    2  A    between atoms: C_7  and  C_8
REMARK    3  A    between atoms: C_7  and  C_9
REMARK    4  A    between atoms: C_9  and  O_10
REMARK    5  A    between atoms: O_10  and  C_11
REMARK    6  A    between atoms: C_11  and  C_12
REMARK                            x       y       z     vdW  Elec       q    Type
REMARK                         _______ _______ _______ _____ _____    ______ ____
ROOT
ATOM      1  C   UNL     1       1.534  -2.218  -0.911  0.00  0.00    +0.000 C 
ENDROOT
BRANCH   1   8
ATOM      2  C   UNL     1       0.856   0.628  -0.674  0.00  0.00    +0.000 C 
ATOM      3  C   UNL     1       2.144   0.115  -0.005  0.00  0.00    +0.000 C 
ATOM      4  C   UNL     1       3.217   1.223  -0.045  0.00  0.00    +0.000 C 
ATOM      5  C   UNL     1       3.730   1.494  -1.461  0.00  0.00    +0.000 C 
ATOM      6  C   UNL     1       3.929   0.246  -2.266  0.00  0.00    +0.000 C 
ATOM      7  C   UNL     1       3.484  -0.962  -1.890  0.00  0.00    +0.000 C 
ATOM      8  C   UNL     1       2.697  -1.227  -0.612  0.00  0.00    +0.000 C 
ATOM      9  C   UNL     1       3.669  -1.890   0.393  0.00  0.00    +0.000 C 
ENDBRANCH   1   8
BRANCH   1  10
ATOM     10  O   UNL     1       2.035  -3.510  -1.271  0.00  0.00    +0.000 OA
BRANCH  10  11
ATOM     11  C   UNL     1       0.980  -4.425  -1.563  0.00  0.00    +0.000 C 
BRANCH  11  12
ATOM     12  C   UNL     1       1.549  -5.783  -1.892  0.00  0.00    +0.000 A 
ATOM     13  C   UNL     1       2.636  -6.305  -1.174  0.00  0.00    +0.000 A 
ATOM     14  C   UNL     1       3.130  -7.579  -1.458  0.00  0.00    +0.000 A 
ATOM     15  C   UNL     1       2.538  -8.351  -2.454  0.00  0.00    +0.000 A 
ATOM     16  C   UNL     1       1.450  -7.851  -3.166  0.00  0.00    +0.000 A 
ATOM     17  C   UNL     1       0.954  -6.576  -2.884  0.00  0.00    +0.000 A 
ENDBRANCH  11  12
ENDBRANCH  10  11
ENDBRANCH   1  10
TORSDOF 4
