REMARK  Name = *****
REMARK  3 active torsions:
REMARK  status: ('A' for Active; 'I' for Inactive)
REMARK    1  A    between atoms: C_2  and  C_10
REMARK    2  A    between atoms: C_3  and  C_4
REMARK    3  A    between atoms: C_10  and  C_11
REMARK                            x       y       z     vdW  Elec       q    Type
REMARK                         _______ _______ _______ _____ _____    ______ ____
ROOT
ATOM      1  C   UNL     1      -0.569   0.847   0.450  0.00  0.00    +0.000 C 
ATOM      2  C   UNL     1       0.533  -0.154   0.244  0.00  0.00    +0.000 C 
ATOM      3  C   UNL     1      -0.916  -0.587   0.119  0.00  0.00    +0.000 C 
ENDROOT
BRANCH   3   4
ATOM      4  C   UNL     1      -1.478  -0.940  -1.237  0.00  0.00    +0.000 A 
ATOM      5  C   UNL     1      -0.898  -1.945  -2.027  0.00  0.00    +0.000 A 
ATOM      6  C   UNL     1      -1.425  -2.288  -3.275  0.00  0.00    +0.000 A 
ATOM      7  C   UNL     1      -2.554  -1.632  -3.757  0.00  0.00    +0.000 A 
ATOM      8  C   UNL     1      -3.155  -0.638  -2.990  0.00  0.00    +0.000 A 
ATOM      9  C   UNL     1      -2.622  -0.301  -1.743  0.00  0.00    +0.000 A 
ENDBRANCH   3   4
BRANCH   2  10
ATOM     10  C   UNL     1       1.356  -0.650   1.395  0.00  0.00    +0.000 C 
BRANCH  10  11
ATOM     11  C   UNL     1       2.534   0.261   1.639  0.00  0.00    +0.000 A 
ATOM     12  C   UNL     1       2.426   1.343   2.524  0.00  0.00    +0.000 A 
ATOM     13  C   UNL     1       3.511   2.195   2.737  0.00  0.00    +0.000 A 
ATOM     14  C   UNL     1       4.711   1.979   2.063  0.00  0.00    +0.000 A 
ATOM     15  C   UNL     1       4.828   0.912   1.174  0.00  0.00    +0.000 A 
ATOM     16  C   UNL     1       3.744   0.058   0.960  0.00  0.00    +0.000 A 
ENDBRANCH  10  11
ENDBRANCH   2  10
TORSDOF 3
