REMARK  Name = *****
REMARK  5 active torsions:
REMARK  status: ('A' for Active; 'I' for Inactive)
REMARK    1  A    between atoms: C_1  and  C_2
REMARK    2  A    between atoms: C_2  and  C_4
REMARK    3  A    between atoms: C_5  and  C_11
REMARK    4  A    between atoms: C_11  and  C_12
REMARK    5  A    between atoms: C_12  and  C_13
REMARK                            x       y       z     vdW  Elec       q    Type
REMARK                         _______ _______ _______ _____ _____    ______ ____
ROOT
ATOM      1  C   UNL     1       3.612  -0.100   1.875  0.00  0.00    +0.000 A 
ATOM      2  C   UNL     1       2.470  -0.035   2.701  0.00  0.00    +0.000 A 
ATOM      3  C   UNL     1       2.361   1.041   3.603  0.00  0.00    +0.000 A 
ATOM      4  C   UNL     1       3.354   2.013   3.673  0.00  0.00    +0.000 A 
ATOM      5  C   UNL     1       4.475   1.948   2.859  0.00  0.00    +0.000 A 
ATOM      6  C   UNL     1       4.606   0.893   1.957  0.00  0.00    +0.000 A 
ATOM      7  F   UNL     1       3.227   3.023   4.542  0.00  0.00    +0.000 F 
ENDROOT
BRANCH   1   9
ATOM      8  C   UNL     1       5.148  -1.869   0.833  0.00  0.00    +0.000 C 
ATOM      9  C   UNL     1       3.808  -1.182   0.872  0.00  0.00    +0.000 C 
ATOM     10  O   UNL     1       2.918  -1.452   0.072  0.00  0.00    +0.000 OA
ENDBRANCH   1   9
BRANCH   2  11
ATOM     11  C   UNL     1       1.381  -1.088   2.718  0.00  0.00    +0.000 C 
BRANCH  11  12
ATOM     12  C   UNL     1       1.489  -2.057   3.904  0.00  0.00    +0.000 C 
BRANCH  12  13
ATOM     13  C   UNL     1       2.711  -2.945   3.860  0.00  0.00    +0.000 A 
ATOM     14  C   UNL     1       2.771  -4.025   2.966  0.00  0.00    +0.000 A 
ATOM     15  C   UNL     1       3.902  -4.841   2.921  0.00  0.00    +0.000 A 
ATOM     16  C   UNL     1       4.972  -4.575   3.767  0.00  0.00    +0.000 A 
ATOM     17  C   UNL     1       4.934  -3.509   4.656  0.00  0.00    +0.000 A 
ATOM     18  C   UNL     1       3.803  -2.692   4.704  0.00  0.00    +0.000 A 
ATOM     19  F   UNL     1       6.061  -5.354   3.718  0.00  0.00    +0.000 F 
ENDBRANCH  12  13
ENDBRANCH  11  12
ENDBRANCH   2  11
TORSDOF 4
