REMARK  Name = *****
REMARK  5 active torsions:
REMARK  status: ('A' for Active; 'I' for Inactive)
REMARK    1  A    between atoms: C_1  and  C_2
REMARK    2  A    between atoms: C_4  and  C_9
REMARK    3  A    between atoms: C_5  and  C_8
REMARK    4  A    between atoms: C_10  and  C_11
REMARK    5  A    between atoms: C_16  and  C_17
REMARK                            x       y       z     vdW  Elec       q    Type
REMARK                         _______ _______ _______ _____ _____    ______ ____
ROOT
ATOM      1  C   UNL     1      -1.398   2.468  -0.220  0.00  0.00    +0.000 C 
ATOM      2  C   UNL     1      -0.877   3.640   0.174  0.00  0.00    +0.000 C 
ENDROOT
BRANCH   1   6
ATOM      3  C   UNL     1       2.659  -0.260  -1.269  0.00  0.00    +0.000 C 
ATOM      4  C   UNL     1       1.322  -0.128  -0.602  0.00  0.00    +0.000 A 
ATOM      5  C   UNL     1       0.599   1.069  -0.687  0.00  0.00    +0.000 A 
ATOM      6  C   UNL     1      -0.668   1.198  -0.093  0.00  0.00    +0.000 A 
ATOM      7  C   UNL     1      -1.232   0.098   0.581  0.00  0.00    +0.000 A 
ATOM      8  C   UNL     1      -0.511  -1.105   0.645  0.00  0.00    +0.000 A 
ATOM      9  C   UNL     1       0.750  -1.217   0.058  0.00  0.00    +0.000 A 
ATOM     10  C   UNL     1      -2.589   0.173   1.228  0.00  0.00    +0.000 C 
ENDBRANCH   1   6
BRANCH   2  11
ATOM     11  C   UNL     1      -1.632   4.893   0.070  0.00  0.00    +0.000 A 
ATOM     12  C   UNL     1      -1.863   5.429  -1.206  0.00  0.00    +0.000 A 
ATOM     13  C   UNL     1      -2.566   6.626  -1.362  0.00  0.00    +0.000 A 
ATOM     14  C   UNL     1      -3.047   7.304  -0.245  0.00  0.00    +0.000 A 
ATOM     15  C   UNL     1      -2.828   6.784   1.031  0.00  0.00    +0.000 A 
ATOM     16  C   UNL     1      -2.124   5.582   1.193  0.00  0.00    +0.000 A 
BRANCH  16  17
ATOM     17  C   UNL     1      -1.931   5.061   2.567  0.00  0.00    +0.000 C 
ATOM     18  O   UNL     1      -2.336   5.666   3.554  0.00  0.00    +0.000 OA
ENDBRANCH  16  17
ENDBRANCH   2  11
TORSDOF 3
