REMARK  Name = *****
REMARK  6 active torsions:
REMARK  status: ('A' for Active; 'I' for Inactive)
REMARK    1  A    between atoms: C_1  and  C_2
REMARK    2  A    between atoms: C_2  and  C_4
REMARK    3  A    between atoms: C_7  and  C_10
REMARK    4  A    between atoms: C_7  and  C_11
REMARK    5  A    between atoms: C_11  and  C_12
REMARK    6  A    between atoms: C_12  and  C_13
REMARK                            x       y       z     vdW  Elec       q    Type
REMARK                         _______ _______ _______ _____ _____    ______ ____
ROOT
ATOM      1  C   UNL     1       3.334   0.169  -1.445  0.00  0.00    +0.000 C 
ATOM      2  C   UNL     1       2.845   1.498  -2.032  0.00  0.00    +0.000 C 
ATOM      3  C   UNL     1       1.444   1.330  -2.627  0.00  0.00    +0.000 C 
ATOM      4  C   UNL     1       1.309   0.047  -3.480  0.00  0.00    +0.000 C 
ATOM      5  O   UNL     1       1.808  -1.053  -2.696  0.00  0.00    +0.000 OA
ATOM      6  O   UNL     1       3.239  -0.823  -2.475  0.00  0.00    +0.000 OA
ATOM      7  C   UNL     1       2.075   0.158  -4.808  0.00  0.00    +0.000 C 
ENDROOT
BRANCH   1   9
ATOM      8  C   UNL     1       5.854   0.368  -1.983  0.00  0.00    +0.000 C 
ATOM      9  C   UNL     1       4.766   0.237  -0.951  0.00  0.00    +0.000 C 
ATOM     10  C   UNL     1       5.063   0.163   0.358  0.00  0.00    +0.000 C 
ENDBRANCH   1   9
BRANCH   4  11
ATOM     11  C   UNL     1      -0.193  -0.219  -3.737  0.00  0.00    +0.000 C 
BRANCH  11  12
ATOM     12  C   UNL     1      -0.484  -1.523  -4.493  0.00  0.00    +0.000 C 
BRANCH  12  13
ATOM     13  C   UNL     1      -1.970  -1.749  -4.642  0.00  0.00    +0.000 A 
ATOM     14  C   UNL     1      -2.660  -1.234  -5.748  0.00  0.00    +0.000 A 
ATOM     15  C   UNL     1      -4.037  -1.429  -5.875  0.00  0.00    +0.000 A 
ATOM     16  C   UNL     1      -4.736  -2.133  -4.896  0.00  0.00    +0.000 A 
ATOM     17  C   UNL     1      -4.059  -2.643  -3.789  0.00  0.00    +0.000 A 
ATOM     18  C   UNL     1      -2.683  -2.450  -3.661  0.00  0.00    +0.000 A 
ENDBRANCH  12  13
ENDBRANCH  11  12
ENDBRANCH   4  11
TORSDOF 4
