REMARK  Name = *****
REMARK  4 active torsions:
REMARK  status: ('A' for Active; 'I' for Inactive)
REMARK    1  A    between atoms: C_4  and  O_7
REMARK    2  A    between atoms: O_7  and  C_8
REMARK    3  A    between atoms: C_8  and  S_10
REMARK    4  A    between atoms: S_10  and  C_11
REMARK                            x       y       z     vdW  Elec       q    Type
REMARK                         _______ _______ _______ _____ _____    ______ ____
ROOT
ATOM      1  C   UNL     1      -3.932  -0.196  -0.010  0.00  0.00    +0.000 C 
ATOM      2  O   UNL     1      -3.783  -0.739   1.078  0.00  0.00    +0.000 OA
ENDROOT
BRANCH   1   3
ATOM      3  O   UNL     1      -2.915   0.325  -0.804  0.00  0.00    +0.000 OA
BRANCH   3   7
ATOM      4  C   UNL     1       0.941  -0.165   0.692  0.00  0.00    +0.000 A 
ATOM      5  C   UNL     1       0.320  -1.221   0.021  0.00  0.00    +0.000 A 
ATOM      6  C   UNL     1      -0.975  -1.068  -0.473  0.00  0.00    +0.000 A 
ATOM      7  C   UNL     1      -1.639   0.141  -0.271  0.00  0.00    +0.000 A 
ATOM      8  C   UNL     1      -1.023   1.208   0.379  0.00  0.00    +0.000 A 
ATOM      9  C   UNL     1       0.272   1.049   0.869  0.00  0.00    +0.000 A 
ENDBRANCH   3   7
ENDBRANCH   1   3
BRANCH   1  10
ATOM     10  S   UNL     1      -5.550  -0.028  -0.698  0.00  0.00    +0.000 S 
BRANCH  10  11
ATOM     11  C   UNL     1      -5.561  -1.467  -1.749  0.00  0.00    +0.000 A 
ATOM     12  C   UNL     1      -5.494  -2.755  -1.204  0.00  0.00    +0.000 A 
ATOM     13  C   UNL     1      -5.508  -3.876  -2.039  0.00  0.00    +0.000 A 
ATOM     14  C   UNL     1      -5.595  -3.707  -3.420  0.00  0.00    +0.000 A 
ATOM     15  C   UNL     1      -5.671  -2.430  -3.972  0.00  0.00    +0.000 A 
ATOM     16  C   UNL     1      -5.657  -1.311  -3.136  0.00  0.00    +0.000 A 
ATOM     17 BR   UNL     1      -5.615  -5.221  -4.551  0.00  0.00    +0.000 Br
ENDBRANCH  10  11
ENDBRANCH   1  10
TORSDOF 4
