REMARK  Name = *****
REMARK  5 active torsions:
REMARK  status: ('A' for Active; 'I' for Inactive)
REMARK    1  A    between atoms: C_1  and  C_2
REMARK    2  A    between atoms: C_2  and  C_4
REMARK    3  A    between atoms: C_7  and  C_10
REMARK    4  A    between atoms: C_10  and  C_11
REMARK    5  A    between atoms: C_11  and  C_12
REMARK                            x       y       z     vdW  Elec       q    Type
REMARK                         _______ _______ _______ _____ _____    ______ ____
ROOT
ATOM      1  C   UNL     1       3.176   0.664   0.909  0.00  0.00    +0.000 A 
ATOM      2  C   UNL     1       2.585   1.783   1.507  0.00  0.00    +0.000 A 
ATOM      3  C   UNL     1       3.299   2.537   2.444  0.00  0.00    +0.000 A 
ATOM      4  C   UNL     1       4.607   2.184   2.799  0.00  0.00    +0.000 A 
ATOM      5  C   UNL     1       5.194   1.064   2.199  0.00  0.00    +0.000 A 
ATOM      6  C   UNL     1       4.485   0.312   1.258  0.00  0.00    +0.000 A 
ENDROOT
BRANCH   1   8
ATOM      7  C   UNL     1       1.006   0.110  -0.379  0.00  0.00    +0.000 C 
ATOM      8  C   UNL     1       2.457  -0.176  -0.094  0.00  0.00    +0.000 C 
ATOM      9  O   UNL     1       3.050  -1.084  -0.673  0.00  0.00    +0.000 OA
ENDBRANCH   1   8
BRANCH   4  10
ATOM     10  C   UNL     1       5.371   2.990   3.824  0.00  0.00    +0.000 C 
BRANCH  10  11
ATOM     11  C   UNL     1       4.854   2.745   5.247  0.00  0.00    +0.000 C 
BRANCH  11  12
ATOM     12  C   UNL     1       5.605   3.570   6.318  0.00  0.00    +0.000 C 
ATOM     13  C   UNL     1       7.081   3.164   6.480  0.00  0.00    +0.000 C 
ATOM     14  C   UNL     1       7.247   1.742   7.029  0.00  0.00    +0.000 C 
ATOM     15  C   UNL     1       6.283   1.426   8.135  0.00  0.00    +0.000 C 
ATOM     16  C   UNL     1       5.235   2.205   8.441  0.00  0.00    +0.000 C 
ATOM     17  C   UNL     1       4.899   3.460   7.688  0.00  0.00    +0.000 C 
ENDBRANCH  11  12
ENDBRANCH  10  11
ENDBRANCH   4  10
TORSDOF 4
