REMARK  Name = *****
REMARK  5 active torsions:
REMARK  status: ('A' for Active; 'I' for Inactive)
REMARK    1  A    between atoms: C_1  and  C_2
REMARK    2  A    between atoms: C_5  and  C_8
REMARK    3  A    between atoms: C_8  and  C_9
REMARK    4  A    between atoms: C_9  and  C_10
REMARK    5  A    between atoms: C_14  and  C_16
REMARK                            x       y       z     vdW  Elec       q    Type
REMARK                         _______ _______ _______ _____ _____    ______ ____
ROOT
ATOM      1  C   UNL     1      -2.959   0.138  -0.083  0.00  0.00    +0.000 C 
ENDROOT
BRANCH   1   6
ATOM      2  C   UNL     1       2.729  -0.804   0.841  0.00  0.00    +0.000 C 
ATOM      3  C   UNL     1       1.276  -0.538   0.583  0.00  0.00    +0.000 A 
ATOM      4  C   UNL     1       0.677   0.639   1.042  0.00  0.00    +0.000 A 
ATOM      5  C   UNL     1      -0.684   0.877   0.829  0.00  0.00    +0.000 A 
ATOM      6  C   UNL     1      -1.476  -0.056   0.150  0.00  0.00    +0.000 A 
ATOM      7  C   UNL     1      -0.877  -1.251  -0.277  0.00  0.00    +0.000 A 
ATOM      8  C   UNL     1       0.484  -1.489  -0.064  0.00  0.00    +0.000 A 
ENDBRANCH   1   6
BRANCH   1   9
ATOM      9  C   UNL     1      -3.484   1.579  -0.213  0.00  0.00    +0.000 C 
BRANCH   9  10
ATOM     10  C   UNL     1      -2.986   2.430  -1.363  0.00  0.00    +0.000 A 
ATOM     11  C   UNL     1      -2.328   1.908  -2.482  0.00  0.00    +0.000 A 
ATOM     12  C   UNL     1      -1.920   2.746  -3.523  0.00  0.00    +0.000 A 
ATOM     13  C   UNL     1      -2.171   4.115  -3.464  0.00  0.00    +0.000 A 
ATOM     14  C   UNL     1      -2.827   4.663  -2.358  0.00  0.00    +0.000 A 
ATOM     15  C   UNL     1      -3.242   3.813  -1.324  0.00  0.00    +0.000 A 
ATOM     16  C   UNL     1      -3.139   6.129  -2.311  0.00  0.00    +0.000 C 
ENDBRANCH   9  10
ENDBRANCH   1   9
TORSDOF 3
