REMARK  Name = *****
REMARK  2 active torsions:
REMARK  status: ('A' for Active; 'I' for Inactive)
REMARK    1  A    between atoms: C_1  and  C_2
REMARK    2  A    between atoms: C_11  and  C_13
REMARK                            x       y       z     vdW  Elec       q    Type
REMARK                         _______ _______ _______ _____ _____    ______ ____
ROOT
ATOM      1  C   UNL     1       3.660   1.017  -0.734  0.00  0.00    +0.000 C 
ATOM      2  C   UNL     1       2.566   0.101  -0.198  0.00  0.00    +0.000 C 
ATOM      3  C   UNL     1       2.446   0.177   1.329  0.00  0.00    +0.000 C 
ATOM      4  C   UNL     1       3.537  -0.599   2.008  0.00  0.00    +0.000 A 
ATOM      5  C   UNL     1       4.493   0.035   2.813  0.00  0.00    +0.000 A 
ATOM      6  C   UNL     1       5.503  -0.712   3.418  0.00  0.00    +0.000 A 
ATOM      7  C   UNL     1       5.560  -2.090   3.226  0.00  0.00    +0.000 A 
ATOM      8  C   UNL     1       4.604  -2.723   2.429  0.00  0.00    +0.000 A 
ATOM      9  C   UNL     1       3.594  -1.986   1.806  0.00  0.00    +0.000 A 
ATOM     10  N   UNL     1       2.626  -2.673   1.061  0.00  0.00    +0.000 NA
ATOM     11  C   UNL     1       2.284  -2.272  -0.122  0.00  0.00    +0.000 C 
ATOM     12  O   UNL     1       2.789  -1.199  -0.766  0.00  0.00    +0.000 OA
ATOM     13  F   UNL     1       1.384   0.541  -0.727  0.00  0.00    +0.000 F 
ENDROOT
BRANCH  11  14
ATOM     14  C   UNL     1       1.327  -3.021  -0.980  0.00  0.00    +0.000 A 
ATOM     15  C   UNL     1       0.763  -4.207  -0.489  0.00  0.00    +0.000 A 
ATOM     16  C   UNL     1      -0.143  -4.934  -1.264  0.00  0.00    +0.000 A 
ATOM     17  C   UNL     1      -0.492  -4.481  -2.536  0.00  0.00    +0.000 A 
ATOM     18  C   UNL     1       0.062  -3.302  -3.033  0.00  0.00    +0.000 A 
ATOM     19  C   UNL     1       0.968  -2.573  -2.259  0.00  0.00    +0.000 A 
ENDBRANCH  11  14
TORSDOF 1
