REMARK  Name = *****
REMARK  6 active torsions:
REMARK  status: ('A' for Active; 'I' for Inactive)
REMARK    1  A    between atoms: C_1  and  C_2
REMARK    2  A    between atoms: C_2  and  N_3
REMARK    3  A    between atoms: N_3  and  C_4
REMARK    4  A    between atoms: N_3  and  C_5
REMARK    5  A    between atoms: C_10  and  C_11
REMARK    6  A    between atoms: C_12  and  C_13
REMARK                            x       y       z     vdW  Elec       q    Type
REMARK                         _______ _______ _______ _____ _____    ______ ____
ROOT
ATOM      1  C   UNL     1       4.307   1.291   0.970  0.00  0.00    +0.000 A 
ATOM      2  C   UNL     1       5.109   1.233  -0.185  0.00  0.00    +0.000 A 
ATOM      3  C   UNL     1       6.494   1.415  -0.115  0.00  0.00    +0.000 A 
ATOM      4  C   UNL     1       7.105   1.662   1.110  0.00  0.00    +0.000 A 
ATOM      5  C   UNL     1       6.332   1.731   2.268  0.00  0.00    +0.000 A 
ATOM      6  C   UNL     1       4.943   1.551   2.205  0.00  0.00    +0.000 A 
ENDROOT
BRANCH   1   7
ATOM      7  N   UNL     1       2.897   1.130   0.906  0.00  0.00    +0.000 N 
ATOM      8  C   UNL     1       2.251   2.434   0.711  0.00  0.00    +0.000 C 
BRANCH   7  10
ATOM      9  C   UNL     1       1.099  -0.496   0.500  0.00  0.00    +0.000 C 
ATOM     10  C   UNL     1       2.435   0.054   0.018  0.00  0.00    +0.000 C 
ENDBRANCH   7  10
ENDBRANCH   1   7
BRANCH   6  11
ATOM     11  C   UNL     1       4.198   1.621   3.430  0.00  0.00    +0.000 C 
ATOM     12  C   UNL     1       3.562   1.681   4.448  0.00  0.00    +0.000 C 
BRANCH  12  13
ATOM     13  C   UNL     1       2.785   1.751   5.646  0.00  0.00    +0.000 A 
ATOM     14  C   UNL     1       3.369   2.185   6.838  0.00  0.00    +0.000 A 
ATOM     15  C   UNL     1       2.606   2.254   8.005  0.00  0.00    +0.000 A 
ATOM     16  C   UNL     1       1.260   1.889   7.981  0.00  0.00    +0.000 A 
ATOM     17  C   UNL     1       0.675   1.455   6.792  0.00  0.00    +0.000 A 
ATOM     18  C   UNL     1       1.437   1.385   5.624  0.00  0.00    +0.000 A 
ENDBRANCH  12  13
ENDBRANCH   6  11
TORSDOF 4
