REMARK  Name = *****
REMARK  5 active torsions:
REMARK  status: ('A' for Active; 'I' for Inactive)
REMARK    1  A    between atoms: C_1  and  N_2
REMARK    2  A    between atoms: N_2  and  C_3
REMARK    3  A    between atoms: N_2  and  C_4
REMARK    4  A    between atoms: C_5  and  C_11
REMARK    5  A    between atoms: C_12  and  C_13
REMARK                            x       y       z     vdW  Elec       q    Type
REMARK                         _______ _______ _______ _____ _____    ______ ____
ROOT
ATOM      1  C   UNL     1       3.075  -0.909  -0.683  0.00  0.00    +0.000 A 
ATOM      2  C   UNL     1       2.733  -1.367  -1.980  0.00  0.00    +0.000 A 
ATOM      3  C   UNL     1       3.345  -2.504  -2.526  0.00  0.00    +0.000 A 
ATOM      4  C   UNL     1       4.302  -3.197  -1.793  0.00  0.00    +0.000 A 
ATOM      5  C   UNL     1       4.656  -2.769  -0.519  0.00  0.00    +0.000 A 
ATOM      6  C   UNL     1       4.048  -1.636   0.030  0.00  0.00    +0.000 A 
ATOM      7 CL   UNL     1       5.053  -4.591  -2.466  0.00  0.00    +0.000 Cl
ENDROOT
BRANCH   1   9
ATOM      8  C   UNL     1       2.206   0.237   1.296  0.00  0.00    +0.000 C 
ATOM      9  N   UNL     1       2.469   0.246  -0.142  0.00  0.00    +0.000 N 
ATOM     10  C   UNL     1       3.100   1.475  -0.633  0.00  0.00    +0.000 C 
ENDBRANCH   1   9
BRANCH   2  11
ATOM     11  C   UNL     1       1.732  -0.707  -2.771  0.00  0.00    +0.000 C 
ATOM     12  C   UNL     1       0.903  -0.152  -3.441  0.00  0.00    +0.000 C 
BRANCH  12  13
ATOM     13  C   UNL     1      -0.073   0.521  -4.240  0.00  0.00    +0.000 A 
ATOM     14  C   UNL     1      -1.012  -0.215  -4.967  0.00  0.00    +0.000 A 
ATOM     15  C   UNL     1      -1.960   0.444  -5.752  0.00  0.00    +0.000 A 
ATOM     16  C   UNL     1      -1.971   1.838  -5.809  0.00  0.00    +0.000 A 
ATOM     17  C   UNL     1      -1.036   2.574  -5.083  0.00  0.00    +0.000 A 
ATOM     18  C   UNL     1      -0.087   1.916  -4.297  0.00  0.00    +0.000 A 
ENDBRANCH  12  13
ENDBRANCH   2  11
TORSDOF 3
