REMARK  Name = *****
REMARK  6 active torsions:
REMARK  status: ('A' for Active; 'I' for Inactive)
REMARK    1  A    between atoms: C_1  and  C_2
REMARK    2  A    between atoms: C_3  and  C_15
REMARK    3  A    between atoms: C_3  and  C_16
REMARK    4  A    between atoms: C_5  and  C_7
REMARK    5  A    between atoms: C_8  and  C_9
REMARK    6  A    between atoms: C_16  and  C_18
REMARK                            x       y       z     vdW  Elec       q    Type
REMARK                         _______ _______ _______ _____ _____    ______ ____
ROOT
ATOM      1  C   UNL     1       2.367   0.268  -1.393  0.00  0.00    +0.000 C 
ATOM      2  C   UNL     1       2.260   0.000   0.108  0.00  0.00    +0.000 C 
ATOM      3  C   UNL     1       3.043  -1.216   0.677  0.00  0.00    +0.000 C 
ATOM      4  C   UNL     1       4.190  -0.708   1.607  0.00  0.00    +0.000 C 
ATOM      5  C   UNL     1       4.492   0.771   1.375  0.00  0.00    +0.000 C 
ATOM      6  S   UNL     1       2.873   1.469   0.996  0.00  0.00    +0.000 S 
ATOM      7  C   UNL     1       2.098  -2.066   1.560  0.00  0.00    +0.000 C 
ENDROOT
BRANCH   3   8
ATOM      8  C   UNL     1       3.622  -2.108  -0.441  0.00  0.00    +0.000 C 
ATOM      9  O   UNL     1       4.769  -1.954  -0.865  0.00  0.00    +0.000 OA
ATOM     10  C   UNL     1       2.745  -3.176  -1.055  0.00  0.00    +0.000 C 
ENDBRANCH   3   8
BRANCH   5  11
ATOM     11  C   UNL     1       5.472   1.065   0.279  0.00  0.00    +0.000 C 
ATOM     12  C   UNL     1       6.415   2.020   0.367  0.00  0.00    +0.000 C 
BRANCH  12  13
ATOM     13  C   UNL     1       7.408   2.316  -0.676  0.00  0.00    +0.000 A 
ATOM     14  C   UNL     1       7.139   2.157  -2.042  0.00  0.00    +0.000 A 
ATOM     15  C   UNL     1       8.102   2.482  -3.002  0.00  0.00    +0.000 A 
ATOM     16  C   UNL     1       9.341   2.980  -2.607  0.00  0.00    +0.000 A 
ATOM     17  C   UNL     1       9.617   3.159  -1.254  0.00  0.00    +0.000 A 
ATOM     18  C   UNL     1       8.653   2.834  -0.295  0.00  0.00    +0.000 A 
ENDBRANCH  12  13
ENDBRANCH   5  11
TORSDOF 3
