REMARK  Name = *****
REMARK  2 active torsions:
REMARK  status: ('A' for Active; 'I' for Inactive)
REMARK    1  A    between atoms: C_2  and  C_11
REMARK    2  A    between atoms: C_3  and  C_4
REMARK                            x       y       z     vdW  Elec       q    Type
REMARK                         _______ _______ _______ _____ _____    ______ ____
ROOT
ATOM      1  C   UNL     1       0.054   0.600   0.127  0.00  0.00    +0.000 C 
ATOM      2  C   UNL     1       0.708  -0.755   0.195  0.00  0.00    +0.000 C 
ATOM      3  C   UNL     1      -0.740  -0.624  -0.271  0.00  0.00    +0.000 C 
ATOM      4 BR   UNL     1      -1.177  -0.740  -2.152  0.00  0.00    +0.000 Br
ENDROOT
BRANCH   3   5
ATOM      5  C   UNL     1      -1.847  -1.135   0.628  0.00  0.00    +0.000 A 
ATOM      6  C   UNL     1      -2.887  -0.296   1.067  0.00  0.00    +0.000 A 
ATOM      7  C   UNL     1      -3.908  -0.769   1.896  0.00  0.00    +0.000 A 
ATOM      8  C   UNL     1      -3.914  -2.101   2.301  0.00  0.00    +0.000 A 
ATOM      9  C   UNL     1      -2.903  -2.957   1.875  0.00  0.00    +0.000 A 
ATOM     10  C   UNL     1      -1.885  -2.478   1.047  0.00  0.00    +0.000 A 
ENDBRANCH   3   5
BRANCH   2  11
ATOM     11  C   UNL     1       1.840  -1.122  -0.737  0.00  0.00    +0.000 A 
ATOM     12  C   UNL     1       2.897  -0.235  -1.003  0.00  0.00    +0.000 A 
ATOM     13  C   UNL     1       3.957  -0.591  -1.842  0.00  0.00    +0.000 A 
ATOM     14  C   UNL     1       3.986  -1.852  -2.430  0.00  0.00    +0.000 A 
ATOM     15  C   UNL     1       2.960  -2.756  -2.173  0.00  0.00    +0.000 A 
ATOM     16  C   UNL     1       1.905  -2.395  -1.331  0.00  0.00    +0.000 A 
ENDBRANCH   2  11
TORSDOF 2
