REMARK  Name = *****
REMARK  4 active torsions:
REMARK  status: ('A' for Active; 'I' for Inactive)
REMARK    1  A    between atoms: C_4  and  C_7
REMARK    2  A    between atoms: C_7  and  C_8
REMARK    3  A    between atoms: C_8  and  C_9
REMARK    4  A    between atoms: C_9  and  C_10
REMARK                            x       y       z     vdW  Elec       q    Type
REMARK                         _______ _______ _______ _____ _____    ______ ____
ROOT
ATOM      1  C   UNL     1      -3.677  -0.884  -0.292  0.00  0.00    +0.000 C 
ATOM      2  F   UNL     1      -3.704  -1.798   0.712  0.00  0.00    +0.000 F 
ATOM      3  F   UNL     1      -4.950  -0.447  -0.483  0.00  0.00    +0.000 F 
ENDROOT
BRANCH   1   4
ATOM      4  C   UNL     1      -2.785   0.295   0.109  0.00  0.00    +0.000 C 
BRANCH   4   8
ATOM      5  C   UNL     1      -4.081   2.285   3.714  0.00  0.00    +0.000 A 
ATOM      6  C   UNL     1      -3.174   1.229   3.787  0.00  0.00    +0.000 A 
ATOM      7  C   UNL     1      -2.755   0.585   2.622  0.00  0.00    +0.000 A 
ATOM      8  C   UNL     1      -3.236   0.995   1.371  0.00  0.00    +0.000 A 
ATOM      9  C   UNL     1      -4.155   2.051   1.310  0.00  0.00    +0.000 A 
ATOM     10  C   UNL     1      -4.573   2.694   2.476  0.00  0.00    +0.000 A 
ENDBRANCH   4   8
ENDBRANCH   1   4
BRANCH   1  11
ATOM     11  C   UNL     1      -3.164  -1.544  -1.575  0.00  0.00    +0.000 C 
BRANCH  11  12
ATOM     12  C   UNL     1      -4.000  -2.718  -2.030  0.00  0.00    +0.000 A 
ATOM     13  C   UNL     1      -5.093  -2.523  -2.885  0.00  0.00    +0.000 A 
ATOM     14  C   UNL     1      -5.867  -3.608  -3.302  0.00  0.00    +0.000 A 
ATOM     15  C   UNL     1      -5.559  -4.894  -2.865  0.00  0.00    +0.000 A 
ATOM     16  C   UNL     1      -4.479  -5.098  -2.008  0.00  0.00    +0.000 A 
ATOM     17  C   UNL     1      -3.704  -4.015  -1.590  0.00  0.00    +0.000 A 
ENDBRANCH  11  12
ENDBRANCH   1  11
TORSDOF 4
