REMARK  Name = *****
REMARK  3 active torsions:
REMARK  status: ('A' for Active; 'I' for Inactive)
REMARK    1  A    between atoms: C_4  and  C_7
REMARK    2  A    between atoms: C_7  and  C_8
REMARK    3  A    between atoms: C_8  and  C_9
REMARK                            x       y       z     vdW  Elec       q    Type
REMARK                         _______ _______ _______ _____ _____    ______ ____
ROOT
ATOM      1  C   UNL     1      -2.773   0.529  -0.224  0.00  0.00    +0.000 C 
ATOM      2 CL   UNL     1      -4.040  -0.747  -0.208  0.00  0.00    +0.000 Cl
ENDROOT
BRANCH   1   6
ATOM      3  C   UNL     1       1.123  -1.231   0.459  0.00  0.00    +0.000 A 
ATOM      4  C   UNL     1       0.601  -0.302   1.356  0.00  0.00    +0.000 A 
ATOM      5  C   UNL     1      -0.659   0.257   1.133  0.00  0.00    +0.000 A 
ATOM      6  C   UNL     1      -1.416  -0.108   0.008  0.00  0.00    +0.000 A 
ATOM      7  C   UNL     1      -0.876  -1.048  -0.886  0.00  0.00    +0.000 A 
ATOM      8  C   UNL     1       0.384  -1.604  -0.661  0.00  0.00    +0.000 A 
ENDBRANCH   1   6
BRANCH   1   9
ATOM      9  C   UNL     1      -2.877   1.338  -1.530  0.00  0.00    +0.000 C 
BRANCH   9  10
ATOM     10  C   UNL     1      -2.001   2.572  -1.537  0.00  0.00    +0.000 A 
ATOM     11  C   UNL     1      -2.392   3.726  -0.843  0.00  0.00    +0.000 A 
ATOM     12  C   UNL     1      -1.568   4.853  -0.837  0.00  0.00    +0.000 A 
ATOM     13  C   UNL     1      -0.353   4.846  -1.519  0.00  0.00    +0.000 A 
ATOM     14  C   UNL     1       0.043   3.702  -2.210  0.00  0.00    +0.000 A 
ATOM     15  C   UNL     1      -0.775   2.570  -2.219  0.00  0.00    +0.000 A 
ATOM     16 CL   UNL     1      -2.056   6.261   0.024  0.00  0.00    +0.000 Cl
ENDBRANCH   9  10
ENDBRANCH   1   9
TORSDOF 3
