REMARK  Name = *****
REMARK  5 active torsions:
REMARK  status: ('A' for Active; 'I' for Inactive)
REMARK    1  A    between atoms: C_1  and  C_2
REMARK    2  A    between atoms: C_2  and  N_3
REMARK    3  A    between atoms: N_3  and  C_4
REMARK    4  A    between atoms: C_9  and  C_10
REMARK    5  A    between atoms: C_11  and  C_13
REMARK                            x       y       z     vdW  Elec       q    Type
REMARK                         _______ _______ _______ _____ _____    ______ ____
ROOT
ATOM      1  N   UNL     1       2.981  -0.142  -1.201  0.00  0.00    +0.000 N 
ATOM      2  C   UNL     1       4.196  -0.812  -1.419  0.00  0.00    +0.000 C 
ATOM      3  O   UNL     1       4.448  -1.544  -2.375  0.00  0.00    +0.000 OA
ENDROOT
BRANCH   1   4
ATOM      4  C   UNL     1       2.009  -0.113  -2.261  0.00  0.00    +0.000 A 
ATOM      5  C   UNL     1       0.694  -0.546  -2.013  0.00  0.00    +0.000 A 
ATOM      6  C   UNL     1      -0.273  -0.546  -3.021  0.00  0.00    +0.000 A 
ATOM      7  C   UNL     1       0.056  -0.107  -4.296  0.00  0.00    +0.000 A 
ATOM      8  C   UNL     1       1.347   0.345  -4.559  0.00  0.00    +0.000 A 
ATOM      9  C   UNL     1       2.329   0.369  -3.550  0.00  0.00    +0.000 A 
ATOM     10  C   UNL     1       3.674   0.940  -3.913  0.00  0.00    +0.000 C 
ENDBRANCH   1   4
BRANCH   2  11
ATOM     11  C   UNL     1       5.278  -0.659  -0.423  0.00  0.00    +0.000 A 
ATOM     12  C   UNL     1       5.786  -1.802   0.201  0.00  0.00    +0.000 A 
ATOM     13  C   UNL     1       6.816  -1.667   1.126  0.00  0.00    +0.000 A 
ATOM     14  C   UNL     1       7.350  -0.409   1.418  0.00  0.00    +0.000 A 
ATOM     15  C   UNL     1       6.857   0.726   0.771  0.00  0.00    +0.000 A 
ATOM     16  C   UNL     1       5.823   0.603  -0.156  0.00  0.00    +0.000 A 
ATOM     17 CL   UNL     1       7.438  -3.060   1.921  0.00  0.00    +0.000 Cl
ENDBRANCH   2  11
BRANCH   1  19
ATOM     18  C   UNL     1       2.281   1.816   0.169  0.00  0.00    +0.000 C 
ATOM     19  C   UNL     1       2.556   0.319   0.134  0.00  0.00    +0.000 C 
ENDBRANCH   1  19
TORSDOF 3
