REMARK  Name = *****
REMARK  2 active torsions:
REMARK  status: ('A' for Active; 'I' for Inactive)
REMARK    1  A    between atoms: C_3  and  C_5
REMARK    2  A    between atoms: C_6  and  C_7
REMARK                            x       y       z     vdW  Elec       q    Type
REMARK                         _______ _______ _______ _____ _____    ______ ____
ROOT
ATOM      1  C   UNL     1      -0.404  -1.413  -1.651  0.00  0.00    +0.000 C 
ATOM      2  C   UNL     1      -1.487  -2.047  -2.126  0.00  0.00    +0.000 C 
ENDROOT
BRANCH   2   3
ATOM      3  C   UNL     1      -1.644  -2.483  -3.521  0.00  0.00    +0.000 A 
ATOM      4  C   UNL     1      -0.571  -2.965  -4.282  0.00  0.00    +0.000 A 
ATOM      5  C   UNL     1      -0.769  -3.400  -5.596  0.00  0.00    +0.000 A 
ATOM      6  C   UNL     1      -2.043  -3.368  -6.158  0.00  0.00    +0.000 A 
ATOM      7  C   UNL     1      -3.121  -2.906  -5.406  0.00  0.00    +0.000 A 
ATOM      8  C   UNL     1      -2.923  -2.472  -4.093  0.00  0.00    +0.000 A 
ENDBRANCH   2   3
BRANCH   1  11
ATOM      9  C   UNL     1       1.483  -1.652   0.697  0.00  0.00    +0.000 C 
ATOM     10  C   UNL     1       0.942  -0.287   0.229  0.00  0.00    +0.000 C 
ATOM     11  C   UNL     1      -0.358  -1.008  -0.218  0.00  0.00    +0.000 C 
ATOM     12  C   UNL     1       0.022  -2.134   0.780  0.00  0.00    +0.000 C 
ENDBRANCH   1  11
TORSDOF 2
