REMARK  Name = *****
REMARK  5 active torsions:
REMARK  status: ('A' for Active; 'I' for Inactive)
REMARK    1  A    between atoms: C_1  and  C_2
REMARK    2  A    between atoms: C_5  and  S_8
REMARK    3  A    between atoms: S_8  and  N_9
REMARK    4  A    between atoms: N_9  and  C_10
REMARK    5  A    between atoms: N_9  and  C_11
REMARK                            x       y       z     vdW  Elec       q    Type
REMARK                         _______ _______ _______ _____ _____    ______ ____
ROOT
ATOM      1  S   UNL     1      -2.996   1.672   1.641  0.00  0.00    +0.000 S 
ENDROOT
BRANCH   1   6
ATOM      2  C   UNL     1       1.296  -1.485  -1.339  0.00  0.00    +0.000 C 
ATOM      3  C   UNL     1       0.241  -0.689  -0.632  0.00  0.00    +0.000 A 
ATOM      4  C   UNL     1       0.554   0.038   0.522  0.00  0.00    +0.000 A 
ATOM      5  C   UNL     1      -0.438   0.754   1.200  0.00  0.00    +0.000 A 
ATOM      6  C   UNL     1      -1.757   0.750   0.738  0.00  0.00    +0.000 A 
ATOM      7  C   UNL     1      -2.075   0.003  -0.401  0.00  0.00    +0.000 A 
ATOM      8  C   UNL     1      -1.085  -0.712  -1.080  0.00  0.00    +0.000 A 
ENDBRANCH   1   6
BRANCH   1   9
ATOM      9  N   UNL     1      -3.813   2.412   0.377  0.00  0.00    +0.000 N 
ATOM     10  C   UNL     1      -3.197   3.610  -0.192  0.00  0.00    +0.000 C 
BRANCH   9  11
ATOM     11  C   UNL     1      -5.149   2.094   0.032  0.00  0.00    +0.000 A 
ATOM     12  C   UNL     1      -5.850   1.030   0.634  0.00  0.00    +0.000 A 
ATOM     13  C   UNL     1      -7.166   0.705   0.281  0.00  0.00    +0.000 A 
ATOM     14  C   UNL     1      -7.826   1.436  -0.698  0.00  0.00    +0.000 A 
ATOM     15  C   UNL     1      -7.168   2.488  -1.321  0.00  0.00    +0.000 A 
ATOM     16  C   UNL     1      -5.851   2.807  -0.961  0.00  0.00    +0.000 A 
ENDBRANCH   9  11
ENDBRANCH   1   9
TORSDOF 3
