REMARK  Name = *****
REMARK  6 active torsions:
REMARK  status: ('A' for Active; 'I' for Inactive)
REMARK    1  A    between atoms: C_4  and  C_7
REMARK    2  A    between atoms: C_8  and  C_9
REMARK    3  A    between atoms: C_13  and  C_17
REMARK    4  A    between atoms: C_14  and  C_15
REMARK    5  A    between atoms: C_15  and  S_16
REMARK    6  A    between atoms: C_17  and  S_18
REMARK                            x       y       z     vdW  Elec       q    Type
REMARK                         _______ _______ _______ _____ _____    ______ ____
ROOT
ATOM      1  C   UNL     1      -5.209  -0.401  -0.711  0.00  0.00    +0.000 A 
ATOM      2  C   UNL     1      -5.686   0.478  -1.694  0.00  0.00    +0.000 A 
ATOM      3  C   UNL     1      -7.050   0.651  -1.886  0.00  0.00    +0.000 A 
ATOM      4  C   UNL     1      -7.951  -0.053  -1.094  0.00  0.00    +0.000 A 
ATOM      5  C   UNL     1      -7.509  -0.943  -0.093  0.00  0.00    +0.000 A 
ATOM      6  C   UNL     1      -6.113  -1.128   0.105  0.00  0.00    +0.000 A 
ENDROOT
BRANCH   1   8
ATOM      7  C   UNL     1      -3.046  -1.346  -1.375  0.00  0.00    +0.000 C 
ATOM      8  C   UNL     1      -3.751  -0.523  -0.583  0.00  0.00    +0.000 C 
BRANCH   7  12
ATOM      9  C   UNL     1       1.195  -1.886  -1.252  0.00  0.00    +0.000 A 
ATOM     10  C   UNL     1       0.498  -1.667  -0.066  0.00  0.00    +0.000 A 
ATOM     11  C   UNL     1      -0.887  -1.483  -0.092  0.00  0.00    +0.000 A 
ATOM     12  C   UNL     1      -1.587  -1.504  -1.306  0.00  0.00    +0.000 A 
ATOM     13  C   UNL     1      -0.876  -1.743  -2.489  0.00  0.00    +0.000 A 
ATOM     14  C   UNL     1       0.508  -1.927  -2.464  0.00  0.00    +0.000 A 
ENDBRANCH   7  12
ENDBRANCH   1   8
BRANCH   6  15
ATOM     15  C   UNL     1      -5.576  -2.094   1.145  0.00  0.00    +0.000 C 
BRANCH  15  16
ATOM     16  S   UNL     1      -5.313  -3.764   0.489  0.00  0.00    +0.000 S 
ATOM     17  H   UNL     1      -6.499  -4.277   0.065  0.00  0.00    +0.000 HD
ENDBRANCH  15  16
ENDBRANCH   6  15
BRANCH   5  18
ATOM     18  C   UNL     1      -8.574  -1.668   0.700  0.00  0.00    +0.000 C 
BRANCH  18  19
ATOM     19  S   UNL     1      -9.002  -3.272  -0.028  0.00  0.00    +0.000 S 
ATOM     20  H   UNL     1      -9.500  -3.084  -1.279  0.00  0.00    +0.000 HD
ENDBRANCH  18  19
ENDBRANCH   5  18
TORSDOF 6
