REMARK  Name = *****
REMARK  5 active torsions:
REMARK  status: ('A' for Active; 'I' for Inactive)
REMARK    1  A    between atoms: C_1  and  C_2
REMARK    2  A    between atoms: C_4  and  C_17
REMARK    3  A    between atoms: C_6  and  S_8
REMARK    4  A    between atoms: S_8  and  C_9
REMARK    5  A    between atoms: C_9  and  C_10
REMARK                            x       y       z     vdW  Elec       q    Type
REMARK                         _______ _______ _______ _____ _____    ______ ____
ROOT
ATOM      1  S   UNL     1      -0.222  -3.441   0.354  0.00  0.00    +0.000 S 
ENDROOT
BRANCH   1   7
ATOM      2  C   UNL     1       2.526   0.838  -0.232  0.00  0.00    +0.000 C 
ATOM      3  C   UNL     1       1.171   0.209  -0.105  0.00  0.00    +0.000 A 
ATOM      4  C   UNL     1       0.035   0.993  -0.136  0.00  0.00    +0.000 A 
ATOM      5  C   UNL     1      -1.173   0.336  -0.010  0.00  0.00    +0.000 A 
ATOM      6  N   UNL     1      -1.253  -1.001   0.135  0.00  0.00    +0.000 NA
ATOM      7  C   UNL     1      -0.098  -1.684   0.150  0.00  0.00    +0.000 A 
ATOM      8  N   UNL     1       1.121  -1.130   0.035  0.00  0.00    +0.000 NA
ATOM      9  C   UNL     1      -2.460   1.104  -0.036  0.00  0.00    +0.000 C 
ENDBRANCH   1   7
BRANCH   1  10
ATOM     10  C   UNL     1       1.337  -3.938  -0.430  0.00  0.00    +0.000 C 
BRANCH  10  11
ATOM     11  C   UNL     1       1.444  -5.441  -0.536  0.00  0.00    +0.000 A 
ATOM     12  C   UNL     1       0.894  -6.118  -1.636  0.00  0.00    +0.000 A 
ATOM     13  C   UNL     1       0.981  -7.509  -1.728  0.00  0.00    +0.000 A 
ATOM     14  C   UNL     1       1.613  -8.232  -0.719  0.00  0.00    +0.000 A 
ATOM     15  C   UNL     1       2.157  -7.576   0.383  0.00  0.00    +0.000 A 
ATOM     16  C   UNL     1       2.070  -6.185   0.476  0.00  0.00    +0.000 A 
ATOM     17 CL   UNL     1       1.721  -9.945  -0.833  0.00  0.00    +0.000 Cl
ENDBRANCH  10  11
ENDBRANCH   1  10
TORSDOF 3
