REMARK  Name = *****
REMARK  2 active torsions:
REMARK  status: ('A' for Active; 'I' for Inactive)
REMARK    1  A    between atoms: C_4  and  C_7
REMARK    2  A    between atoms: C_9  and  C_10
REMARK                            x       y       z     vdW  Elec       q    Type
REMARK                         _______ _______ _______ _____ _____    ______ ____
ROOT
ATOM      1  C   UNL     1       2.755  -0.679  -0.228  0.00  0.00    +0.000 C 
ATOM      2  C   UNL     1       3.751  -0.956   0.564  0.00  0.00    +0.000 C 
ATOM      3  C   UNL     1       4.745  -1.239   1.355  0.00  0.00    +0.000 C 
ENDROOT
BRANCH   1   7
ATOM      4  C   UNL     1      -1.470   0.327  -0.313  0.00  0.00    +0.000 C 
ATOM      5  C   UNL     1      -1.075  -1.109   0.020  0.00  0.00    +0.000 C 
ATOM      6  C   UNL     1       0.367  -1.406  -0.388  0.00  0.00    +0.000 C 
ATOM      7  C   UNL     1       1.347  -0.401   0.234  0.00  0.00    +0.000 C 
ATOM      8  C   UNL     1       0.945   1.040  -0.111  0.00  0.00    +0.000 C 
ATOM      9  C   UNL     1      -0.498   1.333   0.296  0.00  0.00    +0.000 C 
ENDBRANCH   1   7
BRANCH   3  10
ATOM     10  C   UNL     1       5.003  -0.576   2.642  0.00  0.00    +0.000 A 
ATOM     11  C   UNL     1       4.217   0.483   3.119  0.00  0.00    +0.000 A 
ATOM     12  C   UNL     1       4.497   1.084   4.350  0.00  0.00    +0.000 A 
ATOM     13  C   UNL     1       5.567   0.634   5.120  0.00  0.00    +0.000 A 
ATOM     14  C   UNL     1       6.358  -0.416   4.659  0.00  0.00    +0.000 A 
ATOM     15  C   UNL     1       6.077  -1.016   3.429  0.00  0.00    +0.000 A 
ENDBRANCH   3  10
TORSDOF 2
