REMARK  Name = *****
REMARK  4 active torsions:
REMARK  status: ('A' for Active; 'I' for Inactive)
REMARK    1  A    between atoms: C_2  and  C_3
REMARK    2  A    between atoms: C_2  and  O_8
REMARK    3  A    between atoms: O_8  and  C_9
REMARK    4  A    between atoms: C_9  and  C_11
REMARK                            x       y       z     vdW  Elec       q    Type
REMARK                         _______ _______ _______ _____ _____    ______ ____
ROOT
ATOM      1  O   UNL     1       3.227   0.433   1.034  0.00  0.00    +0.000 OA
ENDROOT
BRANCH   1   3
ATOM      2  C   UNL     1       1.075   0.103   0.132  0.00  0.00    +0.000 C 
ATOM      3  C   UNL     1       2.398  -0.057  -0.006  0.00  0.00    +0.000 C 
BRANCH   3   4
ATOM      4  C   UNL     1       3.074  -0.798  -1.143  0.00  0.00    +0.000 C 
ATOM      5  C   UNL     1       2.198  -1.810  -1.899  0.00  0.00    +0.000 C 
ATOM      6  C   UNL     1       3.178  -2.730  -2.624  0.00  0.00    +0.000 C 
ATOM      7  C   UNL     1       4.529  -2.536  -1.941  0.00  0.00    +0.000 C 
ATOM      8  C   UNL     1       4.246  -1.686  -0.709  0.00  0.00    +0.000 C 
ENDBRANCH   3   4
ENDBRANCH   1   3
BRANCH   1   9
ATOM      9  C   UNL     1       4.191   1.336   0.692  0.00  0.00    +0.000 C 
ATOM     10  O   UNL     1       4.438   1.781  -0.419  0.00  0.00    +0.000 OA
BRANCH   9  11
ATOM     11  C   UNL     1       4.979   1.691   1.902  0.00  0.00    +0.000 A 
ATOM     12  C   UNL     1       4.473   1.526   3.199  0.00  0.00    +0.000 A 
ATOM     13  C   UNL     1       5.251   1.878   4.304  0.00  0.00    +0.000 A 
ATOM     14  C   UNL     1       6.534   2.393   4.119  0.00  0.00    +0.000 A 
ATOM     15  C   UNL     1       7.042   2.564   2.832  0.00  0.00    +0.000 A 
ATOM     16  C   UNL     1       6.265   2.218   1.724  0.00  0.00    +0.000 A 
ENDBRANCH   9  11
ENDBRANCH   1   9
TORSDOF 4
