REMARK  Name = *****
REMARK  3 active torsions:
REMARK  status: ('A' for Active; 'I' for Inactive)
REMARK    1  A    between atoms: C_1  and  C_2
REMARK    2  A    between atoms: C_5  and  C_8
REMARK    3  A    between atoms: C_9  and  C_10
REMARK                            x       y       z     vdW  Elec       q    Type
REMARK                         _______ _______ _______ _____ _____    ______ ____
ROOT
ATOM      1  C   UNL     1       1.017   0.104   0.298  0.00  0.00    +0.000 C 
ATOM      2  C   UNL     1       2.500   0.109   0.074  0.00  0.00    +0.000 A 
ATOM      3  C   UNL     1       3.186   1.315  -0.116  0.00  0.00    +0.000 A 
ATOM      4  C   UNL     1       4.563   1.315  -0.357  0.00  0.00    +0.000 A 
ATOM      5  C   UNL     1       5.263   0.109  -0.421  0.00  0.00    +0.000 A 
ATOM      6  C   UNL     1       4.583  -1.097  -0.248  0.00  0.00    +0.000 A 
ATOM      7  C   UNL     1       3.207  -1.097  -0.006  0.00  0.00    +0.000 A 
ENDROOT
BRANCH   5   8
ATOM      8  C   UNL     1       6.671   0.109  -0.669  0.00  0.00    +0.000 C 
ATOM      9  C   UNL     1       7.854   0.104  -0.877  0.00  0.00    +0.000 C 
BRANCH   9  10
ATOM     10  C   UNL     1       9.258   0.096  -1.123  0.00  0.00    +0.000 A 
ATOM     11  C   UNL     1      10.039   1.222  -1.276  0.00  0.00    +0.000 A 
ATOM     12  C   UNL     1      11.409   0.901  -1.512  0.00  0.00    +0.000 A 
ATOM     13  C   UNL     1      11.622  -0.459  -1.531  0.00  0.00    +0.000 A 
ATOM     14  S   UNL     1      10.177  -1.338  -1.265  0.00  0.00    +0.000 S 
ENDBRANCH   9  10
ENDBRANCH   5   8
TORSDOF 2
