REMARK  Name = *****
REMARK  3 active torsions:
REMARK  status: ('A' for Active; 'I' for Inactive)
REMARK    1  A    between atoms: C_5  and  C_7
REMARK    2  A    between atoms: C_7  and  S_8
REMARK    3  A    between atoms: S_8  and  C_9
REMARK                            x       y       z     vdW  Elec       q    Type
REMARK                         _______ _______ _______ _____ _____    ______ ____
ROOT
ATOM      1  C   UNL     1       2.514   0.051   0.958  0.00  0.00    +0.000 C 
ENDROOT
BRANCH   1   6
ATOM      2  C   UNL     1      -0.432  -1.583  -0.069  0.00  0.00    +0.000 C 
ATOM      3  C   UNL     1      -1.119  -0.249   0.232  0.00  0.00    +0.000 C 
ATOM      4  C   UNL     1       0.013   0.668   0.594  0.00  0.00    +0.000 C 
ATOM      5  C   UNL     1       0.787   1.403  -0.464  0.00  0.00    +0.000 C 
ATOM      6  C   UNL     1       1.299   0.080   0.069  0.00  0.00    +0.000 C 
ATOM      7  C   UNL     1       0.933  -1.203  -0.653  0.00  0.00    +0.000 C 
ENDBRANCH   1   6
BRANCH   1   8
ATOM      8  S   UNL     1       4.005   0.121  -0.085  0.00  0.00    +0.000 S 
BRANCH   8   9
ATOM      9  C   UNL     1       5.257  -0.180   1.149  0.00  0.00    +0.000 A 
ATOM     10  C   UNL     1       6.142  -1.247   0.971  0.00  0.00    +0.000 A 
ATOM     11  C   UNL     1       7.138  -1.504   1.915  0.00  0.00    +0.000 A 
ATOM     12  C   UNL     1       7.261  -0.689   3.039  0.00  0.00    +0.000 A 
ATOM     13  C   UNL     1       6.392   0.387   3.215  0.00  0.00    +0.000 A 
ATOM     14  C   UNL     1       5.396   0.644   2.271  0.00  0.00    +0.000 A 
ENDBRANCH   8   9
ENDBRANCH   1   8
TORSDOF 3
