REMARK  Name = *****
REMARK  4 active torsions:
REMARK  status: ('A' for Active; 'I' for Inactive)
REMARK    1  A    between atoms: C_1  and  O_2
REMARK    2  A    between atoms: O_2  and  C_3
REMARK    3  A    between atoms: C_6  and  C_9
REMARK    4  A    between atoms: C_10  and  C_11
REMARK                            x       y       z     vdW  Elec       q    Type
REMARK                         _______ _______ _______ _____ _____    ______ ____
ROOT
ATOM      1  C   UNL     1       3.109   0.762  -0.830  0.00  0.00    +0.000 A 
ATOM      2  C   UNL     1       2.754   2.072  -1.156  0.00  0.00    +0.000 A 
ATOM      3  C   UNL     1       3.535   2.809  -2.055  0.00  0.00    +0.000 A 
ATOM      4  C   UNL     1       4.672   2.240  -2.631  0.00  0.00    +0.000 A 
ATOM      5  C   UNL     1       5.029   0.931  -2.309  0.00  0.00    +0.000 A 
ATOM      6  C   UNL     1       4.248   0.198  -1.411  0.00  0.00    +0.000 A 
ENDROOT
BRANCH   1   8
ATOM      7  C   UNL     1       1.287   0.474   0.670  0.00  0.00    +0.000 C 
ATOM      8  O   UNL     1       2.438  -0.063   0.030  0.00  0.00    +0.000 OA
ENDBRANCH   1   8
BRANCH   4   9
ATOM      9  C   UNL     1       5.468   2.998  -3.546  0.00  0.00    +0.000 C 
ATOM     10  C   UNL     1       6.134   3.639  -4.313  0.00  0.00    +0.000 C 
BRANCH  10  11
ATOM     11  C   UNL     1       6.923   4.404  -5.221  0.00  0.00    +0.000 A 
ATOM     12  C   UNL     1       8.066   3.953  -5.845  0.00  0.00    +0.000 A 
ATOM     13  C   UNL     1       8.641   4.942  -6.698  0.00  0.00    +0.000 A 
ATOM     14  C   UNL     1       7.913   6.112  -6.692  0.00  0.00    +0.000 A 
ATOM     15  S   UNL     1       6.548   6.011  -5.664  0.00  0.00    +0.000 S 
ENDBRANCH  10  11
ENDBRANCH   4   9
TORSDOF 3
