REMARK  Name = *****
REMARK  4 active torsions:
REMARK  status: ('A' for Active; 'I' for Inactive)
REMARK    1  A    between atoms: C_1  and  C_2
REMARK    2  A    between atoms: C_7  and  C_8
REMARK    3  A    between atoms: C_9  and  C_10
REMARK    4  A    between atoms: C_13  and  C_15
REMARK                            x       y       z     vdW  Elec       q    Type
REMARK                         _______ _______ _______ _____ _____    ______ ____
ROOT
ATOM      1  C   UNL     1       2.513  -2.476  -0.191  0.00  0.00    +0.000 C 
ATOM      2  C   UNL     1       1.971  -3.548  -0.212  0.00  0.00    +0.000 C 
ENDROOT
BRANCH   1   9
ATOM      3  C   UNL     1       0.894  -0.030   0.024  0.00  0.00    +0.000 C 
ATOM      4  C   UNL     1       2.396  -0.006  -0.055  0.00  0.00    +0.000 A 
ATOM      5  C   UNL     1       3.071   1.224  -0.024  0.00  0.00    +0.000 A 
ATOM      6  C   UNL     1       4.465   1.275  -0.096  0.00  0.00    +0.000 A 
ATOM      7  C   UNL     1       5.201   0.099  -0.199  0.00  0.00    +0.000 A 
ATOM      8  C   UNL     1       4.544  -1.132  -0.231  0.00  0.00    +0.000 A 
ATOM      9  C   UNL     1       3.147  -1.191  -0.159  0.00  0.00    +0.000 A 
ENDBRANCH   1   9
BRANCH   2  10
ATOM     10  C   UNL     1       1.319  -4.813  -0.229  0.00  0.00    +0.000 A 
ATOM     11  C   UNL     1       1.942  -6.028  -0.057  0.00  0.00    +0.000 A 
ATOM     12  S   UNL     1       0.775  -7.281  -0.136  0.00  0.00    +0.000 S 
ATOM     13  C   UNL     1      -0.453  -6.104  -0.401  0.00  0.00    +0.000 A 
ATOM     14  N   UNL     1      -0.044  -4.852  -0.425  0.00  0.00    +0.000 NA
ATOM     15  C   UNL     1      -1.871  -6.524  -0.567  0.00  0.00    +0.000 C 
ENDBRANCH   2  10
TORSDOF 2
