REMARK  Name = *****
REMARK  4 active torsions:
REMARK  status: ('A' for Active; 'I' for Inactive)
REMARK    1  A    between atoms: C_6  and  C_7
REMARK    2  A    between atoms: C_7  and  C_8
REMARK    3  A    between atoms: C_8  and  O_10
REMARK    4  A    between atoms: O_10  and  C_11
REMARK                            x       y       z     vdW  Elec       q    Type
REMARK                         _______ _______ _______ _____ _____    ______ ____
ROOT
ATOM      1  C   UNL     1       1.163   2.507  -2.128  0.00  0.00    +0.000 C 
ATOM      2  O   UNL     1       1.839   3.053  -1.267  0.00  0.00    +0.000 OA
ENDROOT
BRANCH   1   3
ATOM      3  C   UNL     1      -0.154   1.818  -1.871  0.00  0.00    +0.000 C 
BRANCH   3   9
ATOM      4  C   UNL     1      -2.486   0.997   0.187  0.00  0.00    +0.000 C 
ATOM      5  C   UNL     1      -2.377   2.002  -0.692  0.00  0.00    +0.000 C 
ATOM      6  C   UNL     1      -3.539   2.591  -1.445  0.00  0.00    +0.000 C 
ATOM      7  C   UNL     1      -2.868   3.452  -2.506  0.00  0.00    +0.000 C 
ATOM      8  C   UNL     1      -1.589   3.931  -1.833  0.00  0.00    +0.000 C 
ATOM      9  C   UNL     1      -1.085   2.712  -1.045  0.00  0.00    +0.000 C 
ENDBRANCH   3   9
ENDBRANCH   1   3
BRANCH   1  10
ATOM     10  O   UNL     1       1.485   2.426  -3.448  0.00  0.00    +0.000 OA
BRANCH  10  11
ATOM     11  C   UNL     1       2.712   3.069  -3.842  0.00  0.00    +0.000 C 
ATOM     12  C   UNL     1       2.472   4.569  -4.042  0.00  0.00    +0.000 C 
ATOM     13  C   UNL     1       3.703   5.264  -4.616  0.00  0.00    +0.000 C 
ATOM     14  C   UNL     1       4.171   4.603  -5.908  0.00  0.00    +0.000 C 
ATOM     15  C   UNL     1       4.403   3.105  -5.724  0.00  0.00    +0.000 C 
ATOM     16  C   UNL     1       3.171   2.415  -5.148  0.00  0.00    +0.000 C 
ENDBRANCH  10  11
ENDBRANCH   1  10
TORSDOF 4
