REMARK  Name = *****
REMARK  5 active torsions:
REMARK  status: ('A' for Active; 'I' for Inactive)
REMARK    1  A    between atoms: C_1  and  C_2
REMARK    2  A    between atoms: C_5  and  N_8
REMARK    3  A    between atoms: N_8  and  S_9
REMARK    4  A    between atoms: S_9  and  C_11
REMARK    5  A    between atoms: C_14  and  C_17
REMARK                            x       y       z     vdW  Elec       q    Type
REMARK                         _______ _______ _______ _____ _____    ______ ____
ROOT
ATOM      1  N   UNL     1      -3.375   0.631  -0.268  0.00  0.00    +0.000 N 
ATOM      2  H   UNL     1      -3.902  -0.038  -0.761  0.00  0.00    +0.000 HD
ENDROOT
BRANCH   1   7
ATOM      3  C   UNL     1       2.287  -0.328  -0.028  0.00  0.00    +0.000 C 
ATOM      4  C   UNL     1       0.810  -0.070  -0.051  0.00  0.00    +0.000 A 
ATOM      5  C   UNL     1       0.306   1.207   0.208  0.00  0.00    +0.000 A 
ATOM      6  C   UNL     1      -1.071   1.456   0.152  0.00  0.00    +0.000 A 
ATOM      7  C   UNL     1      -1.981   0.438  -0.154  0.00  0.00    +0.000 A 
ATOM      8  C   UNL     1      -1.458  -0.829  -0.460  0.00  0.00    +0.000 A 
ATOM      9  C   UNL     1      -0.083  -1.083  -0.404  0.00  0.00    +0.000 A 
ENDBRANCH   1   7
BRANCH   1  10
ATOM     10  S   UNL     1      -4.173   1.943   0.395  0.00  0.00    +0.000 S 
ATOM     11  O   UNL     1      -3.792   3.202  -0.322  0.00  0.00    +0.000 OA
BRANCH  10  12
ATOM     12  C   UNL     1      -5.779   1.435  -0.260  0.00  0.00    +0.000 A 
ATOM     13  C   UNL     1      -6.568   0.534   0.465  0.00  0.00    +0.000 A 
ATOM     14  C   UNL     1      -7.808   0.127  -0.033  0.00  0.00    +0.000 A 
ATOM     15  C   UNL     1      -8.271   0.609  -1.264  0.00  0.00    +0.000 A 
ATOM     16  C   UNL     1      -7.487   1.524  -1.977  0.00  0.00    +0.000 A 
ATOM     17  C   UNL     1      -6.247   1.931  -1.480  0.00  0.00    +0.000 A 
ATOM     18  C   UNL     1      -9.619   0.203  -1.782  0.00  0.00    +0.000 C 
ENDBRANCH  10  12
ENDBRANCH   1  10
TORSDOF 3
