REMARK  Name = *****
REMARK  6 active torsions:
REMARK  status: ('A' for Active; 'I' for Inactive)
REMARK    1  A    between atoms: C_1  and  O_2
REMARK    2  A    between atoms: O_2  and  C_3
REMARK    3  A    between atoms: C_6  and  N_9
REMARK    4  A    between atoms: N_9  and  C_10
REMARK    5  A    between atoms: N_9  and  N_17
REMARK    6  A    between atoms: C_10  and  C_11
REMARK                            x       y       z     vdW  Elec       q    Type
REMARK                         _______ _______ _______ _____ _____    ______ ____
ROOT
ATOM      1  N   UNL     1       5.215   3.657   3.379  0.00  0.00    +0.000 N 
ENDROOT
BRANCH   1   5
ATOM      2  C   UNL     1       2.756   1.375   0.699  0.00  0.00    +0.000 A 
ATOM      3  C   UNL     1       4.122   1.489   0.467  0.00  0.00    +0.000 A 
ATOM      4  C   UNL     1       4.934   2.235   1.338  0.00  0.00    +0.000 A 
ATOM      5  C   UNL     1       4.417   2.895   2.469  0.00  0.00    +0.000 A 
ATOM      6  C   UNL     1       3.029   2.751   2.679  0.00  0.00    +0.000 A 
ATOM      7  C   UNL     1       2.215   2.011   1.811  0.00  0.00    +0.000 A 
BRANCH   2   9
ATOM      8  C   UNL     1       2.374   0.001  -1.201  0.00  0.00    +0.000 C 
ATOM      9  O   UNL     1       1.859   0.685  -0.066  0.00  0.00    +0.000 OA
ENDBRANCH   2   9
ENDBRANCH   1   5
BRANCH   1  10
ATOM     10  N   UNL     1       4.657   4.135   4.530  0.00  0.00    +0.000 NA
ATOM     11  O   UNL     1       5.444   4.744   5.262  0.00  0.00    +0.000 OA
ENDBRANCH   1  10
BRANCH   1  12
ATOM     12  C   UNL     1       6.601   3.975   2.955  0.00  0.00    +0.000 C 
BRANCH  12  13
ATOM     13  C   UNL     1       7.606   2.862   3.201  0.00  0.00    +0.000 A 
ATOM     14  C   UNL     1       8.705   2.725   2.335  0.00  0.00    +0.000 A 
ATOM     15  C   UNL     1       9.665   1.734   2.550  0.00  0.00    +0.000 A 
ATOM     16  C   UNL     1       9.549   0.876   3.640  0.00  0.00    +0.000 A 
ATOM     17  C   UNL     1       8.478   1.012   4.520  0.00  0.00    +0.000 A 
ATOM     18  C   UNL     1       7.517   2.003   4.307  0.00  0.00    +0.000 A 
ENDBRANCH  12  13
ENDBRANCH   1  12
TORSDOF 5
