REMARK  Name = *****
REMARK  4 active torsions:
REMARK  status: ('A' for Active; 'I' for Inactive)
REMARK    1  A    between atoms: C_4  and  C_7
REMARK    2  A    between atoms: C_7  and  C_8
REMARK    3  A    between atoms: C_8  and  C_9
REMARK    4  A    between atoms: C_12  and  P_15
REMARK                            x       y       z     vdW  Elec       q    Type
REMARK                         _______ _______ _______ _____ _____    ______ ____
ROOT
ATOM      1  C   UNL     1      -3.591  -0.700  -0.596  0.00  0.00    +0.000 C 
ENDROOT
BRANCH   1   2
ATOM      2  C   UNL     1      -5.076  -0.432  -0.638  0.00  0.00    +0.000 A 
ATOM      3  C   UNL     1      -5.631   0.321  -1.681  0.00  0.00    +0.000 A 
ATOM      4  C   UNL     1      -7.004   0.587  -1.714  0.00  0.00    +0.000 A 
ATOM      5  C   UNL     1      -7.835   0.105  -0.700  0.00  0.00    +0.000 A 
ATOM      6  C   UNL     1      -7.287  -0.644   0.348  0.00  0.00    +0.000 A 
ATOM      7  C   UNL     1      -5.913  -0.908   0.378  0.00  0.00    +0.000 A 
BRANCH   5   8
ATOM      8  P   UNL     1      -9.588   0.397  -0.666  0.00  0.00    +0.000 P 
ATOM      9  O   UNL     1      -9.735   1.256  -1.984  0.00  0.00    +0.000 OA
ENDBRANCH   5   8
ENDBRANCH   1   2
BRANCH   1  10
ATOM     10  C   UNL     1      -2.832   0.433   0.102  0.00  0.00    +0.000 C 
BRANCH  10  14
ATOM     11  C   UNL     1       1.397  -0.398   0.243  0.00  0.00    +0.000 A 
ATOM     12  C   UNL     1       0.850   0.251  -0.862  0.00  0.00    +0.000 A 
ATOM     13  C   UNL     1      -0.518   0.526  -0.906  0.00  0.00    +0.000 A 
ATOM     14  C   UNL     1      -1.350   0.156   0.159  0.00  0.00    +0.000 A 
ATOM     15  C   UNL     1      -0.792  -0.502   1.263  0.00  0.00    +0.000 A 
ATOM     16  C   UNL     1       0.576  -0.775   1.305  0.00  0.00    +0.000 A 
ENDBRANCH  10  14
ENDBRANCH   1  10
TORSDOF 4
