REMARK  Name = *****
REMARK  2 active torsions:
REMARK  status: ('A' for Active; 'I' for Inactive)
REMARK    1  A    between atoms: C_4  and  C_7
REMARK    2  A    between atoms: C_8  and  C_9
REMARK                            x       y       z     vdW  Elec       q    Type
REMARK                         _______ _______ _______ _____ _____    ______ ____
ROOT
ATOM      1  C   UNL     1       2.912   0.205  -0.270  0.00  0.00    +0.000 C 
ATOM      2  C   UNL     1       4.106   0.288  -0.373  0.00  0.00    +0.000 C 
ENDROOT
BRANCH   1   6
ATOM      3  C   UNL     1      -1.284  -0.112   0.089  0.00  0.00    +0.000 A 
ATOM      4  C   UNL     1      -0.683   1.145   0.031  0.00  0.00    +0.000 A 
ATOM      5  C   UNL     1       0.704   1.251  -0.087  0.00  0.00    +0.000 A 
ATOM      6  C   UNL     1       1.491   0.099  -0.148  0.00  0.00    +0.000 A 
ATOM      7  C   UNL     1       0.887  -1.160  -0.090  0.00  0.00    +0.000 A 
ATOM      8  C   UNL     1      -0.500  -1.264   0.029  0.00  0.00    +0.000 A 
ENDBRANCH   1   6
BRANCH   2   9
ATOM      9  C   UNL     1       5.521   0.386  -0.497  0.00  0.00    +0.000 A 
ATOM     10  C   UNL     1       6.230   1.567  -0.556  0.00  0.00    +0.000 A 
ATOM     11  S   UNL     1       7.906   1.213  -0.704  0.00  0.00    +0.000 S 
ATOM     12  C   UNL     1       7.523  -0.445  -0.675  0.00  0.00    +0.000 A 
ATOM     13  N   UNL     1       6.260  -0.775  -0.565  0.00  0.00    +0.000 NA
ATOM     14 CL   UNL     1       8.774  -1.613  -0.789  0.00  0.00    +0.000 Cl
ENDBRANCH   2   9
TORSDOF 2
