REMARK  Name = *****
REMARK  4 active torsions:
REMARK  status: ('A' for Active; 'I' for Inactive)
REMARK    1  A    between atoms: C_1  and  C_2
REMARK    2  A    between atoms: C_4  and  O_8
REMARK    3  A    between atoms: O_8  and  C_9
REMARK    4  A    between atoms: C_9  and  C_10
REMARK                            x       y       z     vdW  Elec       q    Type
REMARK                         _______ _______ _______ _____ _____    ______ ____
ROOT
ATOM      1  C   UNL     1       3.946   2.257   0.862  0.00  0.00    +0.000 C 
ATOM      2  C   UNL     1       3.605   0.845   0.478  0.00  0.00    +0.000 A 
ATOM      3  C   UNL     1       4.529  -0.209   0.563  0.00  0.00    +0.000 A 
ATOM      4  C   UNL     1       4.117  -1.490   0.181  0.00  0.00    +0.000 A 
ATOM      5  N   UNL     1       2.870  -1.774  -0.266  0.00  0.00    +0.000 NA
ATOM      6  C   UNL     1       2.001  -0.747  -0.338  0.00  0.00    +0.000 A 
ATOM      7  C   UNL     1       2.315   0.556   0.015  0.00  0.00    +0.000 A 
ATOM      8 BR   UNL     1       6.304   0.088   1.183  0.00  0.00    +0.000 Br
ENDROOT
BRANCH   4   9
ATOM      9  O   UNL     1       5.035  -2.518   0.268  0.00  0.00    +0.000 OA
BRANCH   9  10
ATOM     10  C   UNL     1       4.528  -3.779  -0.167  0.00  0.00    +0.000 C 
BRANCH  10  11
ATOM     11  C   UNL     1       5.588  -4.861  -0.072  0.00  0.00    +0.000 A 
ATOM     12  C   UNL     1       6.893  -4.608   0.372  0.00  0.00    +0.000 A 
ATOM     13  C   UNL     1       7.835  -5.637   0.438  0.00  0.00    +0.000 A 
ATOM     14  C   UNL     1       7.485  -6.931   0.060  0.00  0.00    +0.000 A 
ATOM     15  C   UNL     1       6.193  -7.199  -0.384  0.00  0.00    +0.000 A 
ATOM     16  C   UNL     1       5.250  -6.171  -0.450  0.00  0.00    +0.000 A 
ENDBRANCH  10  11
ENDBRANCH   9  10
ENDBRANCH   4   9
TORSDOF 3
