REMARK  Name = *****
REMARK  4 active torsions:
REMARK  status: ('A' for Active; 'I' for Inactive)
REMARK    1  A    between atoms: C_4  and  C_7
REMARK    2  A    between atoms: C_7  and  C_8
REMARK    3  A    between atoms: C_8  and  C_9
REMARK    4  A    between atoms: C_14  and  C_15
REMARK                            x       y       z     vdW  Elec       q    Type
REMARK                         _______ _______ _______ _____ _____    ______ ____
ROOT
ATOM      1  C   UNL     1      -5.124  -0.511  -0.604  0.00  0.00    +0.000 A 
ATOM      2  C   UNL     1      -5.542  -0.422  -1.945  0.00  0.00    +0.000 A 
ATOM      3  C   UNL     1      -6.847  -0.055  -2.268  0.00  0.00    +0.000 A 
ATOM      4  C   UNL     1      -7.757   0.232  -1.257  0.00  0.00    +0.000 A 
ATOM      5  C   UNL     1      -7.360   0.153   0.078  0.00  0.00    +0.000 A 
ATOM      6  C   UNL     1      -6.045  -0.213   0.427  0.00  0.00    +0.000 A 
ENDROOT
BRANCH   6   7
ATOM      7  C   UNL     1      -5.671  -0.291   1.892  0.00  0.00    +0.000 C 
ATOM      8  F   UNL     1      -4.573   0.452   2.200  0.00  0.00    +0.000 F 
ATOM      9  F   UNL     1      -6.654   0.149   2.729  0.00  0.00    +0.000 F 
ATOM     10  F   UNL     1      -5.392  -1.563   2.293  0.00  0.00    +0.000 F 
ENDBRANCH   6   7
BRANCH   1  11
ATOM     11  C   UNL     1      -3.684  -0.901  -0.330  0.00  0.00    +0.000 C 
BRANCH  11  12
ATOM     12  C   UNL     1      -2.732   0.297  -0.446  0.00  0.00    +0.000 C 
BRANCH  12  16
ATOM     13  C   UNL     1       1.503  -0.324   0.199  0.00  0.00    +0.000 A 
ATOM     14  C   UNL     1       0.638  -1.412   0.280  0.00  0.00    +0.000 A 
ATOM     15  C   UNL     1      -0.735  -1.238   0.077  0.00  0.00    +0.000 A 
ATOM     16  C   UNL     1      -1.261   0.028  -0.209  0.00  0.00    +0.000 A 
ATOM     17  C   UNL     1      -0.373   1.115  -0.287  0.00  0.00    +0.000 A 
ATOM     18  C   UNL     1       0.997   0.941  -0.085  0.00  0.00    +0.000 A 
ENDBRANCH  12  16
ENDBRANCH  11  12
ENDBRANCH   1  11
TORSDOF 4
