REMARK  Name = *****
REMARK  4 active torsions:
REMARK  status: ('A' for Active; 'I' for Inactive)
REMARK    1  A    between atoms: C_1  and  O_2
REMARK    2  A    between atoms: O_2  and  C_3
REMARK    3  A    between atoms: C_6  and  C_9
REMARK    4  A    between atoms: C_10  and  C_11
REMARK                            x       y       z     vdW  Elec       q    Type
REMARK                         _______ _______ _______ _____ _____    ______ ____
ROOT
ATOM      1  C   UNL     1       5.232  -3.164   3.921  0.00  0.00    +0.000 C 
ATOM      2  C   UNL     1       5.787  -3.795   4.780  0.00  0.00    +0.000 C 
ENDROOT
BRANCH   2   3
ATOM      3  C   UNL     1       6.446  -4.545   5.804  0.00  0.00    +0.000 A 
ATOM      4  C   UNL     1       6.317  -5.934   5.847  0.00  0.00    +0.000 A 
ATOM      5  C   UNL     1       6.963  -6.652   6.850  0.00  0.00    +0.000 A 
ATOM      6  C   UNL     1       7.734  -6.011   7.810  0.00  0.00    +0.000 A 
ATOM      7  C   UNL     1       7.854  -4.630   7.756  0.00  0.00    +0.000 A 
ATOM      8  C   UNL     1       7.219  -3.888   6.764  0.00  0.00    +0.000 A 
ATOM      9  F   UNL     1       8.595  -3.997   8.676  0.00  0.00    +0.000 F 
ATOM     10  F   UNL     1       6.837  -7.985   6.889  0.00  0.00    +0.000 F 
ENDBRANCH   2   3
BRANCH   1  14
ATOM     11  C   UNL     1       3.263  -0.939   0.903  0.00  0.00    +0.000 A 
ATOM     12  C   UNL     1       2.776  -2.190   1.284  0.00  0.00    +0.000 A 
ATOM     13  C   UNL     1       3.429  -2.925   2.281  0.00  0.00    +0.000 A 
ATOM     14  C   UNL     1       4.570  -2.412   2.901  0.00  0.00    +0.000 A 
ATOM     15  C   UNL     1       5.061  -1.163   2.522  0.00  0.00    +0.000 A 
ATOM     16  C   UNL     1       4.407  -0.432   1.526  0.00  0.00    +0.000 A 
BRANCH  11  18
ATOM     17  C   UNL     1       1.550  -0.585  -0.707  0.00  0.00    +0.000 C 
ATOM     18  O   UNL     1       2.724  -0.122  -0.052  0.00  0.00    +0.000 OA
ENDBRANCH  11  18
ENDBRANCH   1  14
TORSDOF 3
