REMARK  Name = *****
REMARK  1 active torsions:
REMARK  status: ('A' for Active; 'I' for Inactive)
REMARK    1  A    between atoms: C_6  and  C_7
REMARK                            x       y       z     vdW  Elec       q    Type
REMARK                         _______ _______ _______ _____ _____    ______ ____
ROOT
ATOM      1  C   UNL     1      -3.314   0.309   0.593  0.00  0.00    +0.000 C 
ATOM      2  O   UNL     1      -3.839  -0.619   1.210  0.00  0.00    +0.000 OA
ATOM      3  N   UNL     1      -4.130   1.404   0.260  0.00  0.00    +0.000 N 
ATOM      4  C   UNL     1      -5.455   1.652   0.594  0.00  0.00    +0.000 A 
ATOM      5  C   UNL     1      -5.730   2.861  -0.035  0.00  0.00    +0.000 A 
ATOM      6  C   UNL     1      -7.000   3.441   0.084  0.00  0.00    +0.000 A 
ATOM      7  C   UNL     1      -7.960   2.770   0.846  0.00  0.00    +0.000 A 
ATOM      8  C   UNL     1      -7.673   1.557   1.474  0.00  0.00    +0.000 A 
ATOM      9  C   UNL     1      -6.408   0.968   1.362  0.00  0.00    +0.000 A 
ATOM     10 CL   UNL     1      -9.531   3.457   1.014  0.00  0.00    +0.000 Cl
ATOM     11  N   UNL     1      -4.624   3.293  -0.707  0.00  0.00    +0.000 NA
ATOM     12  N   UNL     1      -3.661   2.401  -0.534  0.00  0.00    +0.000 NA
ENDROOT
BRANCH   1  18
ATOM     13  C   UNL     1      -0.996   1.266   0.223  0.00  0.00    +0.000 A 
ATOM     14  C   UNL     1       0.353   1.075  -0.090  0.00  0.00    +0.000 A 
ATOM     15  C   UNL     1       0.823  -0.203  -0.368  0.00  0.00    +0.000 A 
ATOM     16  C   UNL     1      -0.028  -1.301  -0.333  0.00  0.00    +0.000 A 
ATOM     17  C   UNL     1      -1.376  -1.116  -0.022  0.00  0.00    +0.000 A 
ATOM     18  C   UNL     1      -1.872   0.171   0.243  0.00  0.00    +0.000 A 
ATOM     19  F   UNL     1       2.117  -0.380  -0.664  0.00  0.00    +0.000 F 
ENDBRANCH   1  18
TORSDOF 1
