REMARK  Name = *****
REMARK  4 active torsions:
REMARK  status: ('A' for Active; 'I' for Inactive)
REMARK    1  A    between atoms: C_4  and  C_7
REMARK    2  A    between atoms: C_7  and  C_9
REMARK    3  A    between atoms: C_9  and  C_10
REMARK    4  A    between atoms: C_10  and  C_11
REMARK                            x       y       z     vdW  Elec       q    Type
REMARK                         _______ _______ _______ _____ _____    ______ ____
ROOT
ATOM      1  C   UNL     1      -3.772  -0.683  -0.358  0.00  0.00    +0.000 C 
ENDROOT
BRANCH   1   2
ATOM      2  C   UNL     1      -2.805   0.485  -0.327  0.00  0.00    +0.000 C 
ATOM      3  O   UNL     1      -3.176   1.645  -0.499  0.00  0.00    +0.000 OA
BRANCH   2   7
ATOM      4  C   UNL     1       1.378  -0.207   0.376  0.00  0.00    +0.000 A 
ATOM      5  C   UNL     1       0.494  -1.285   0.399  0.00  0.00    +0.000 A 
ATOM      6  C   UNL     1      -0.870  -1.080   0.173  0.00  0.00    +0.000 A 
ATOM      7  C   UNL     1      -1.356   0.209  -0.078  0.00  0.00    +0.000 A 
ATOM      8  C   UNL     1      -0.459   1.287  -0.098  0.00  0.00    +0.000 A 
ATOM      9  C   UNL     1       0.903   1.079   0.128  0.00  0.00    +0.000 A 
ENDBRANCH   2   7
ENDBRANCH   1   2
BRANCH   1  10
ATOM     10  C   UNL     1      -5.197  -0.229  -0.674  0.00  0.00    +0.000 C 
BRANCH  10  11
ATOM     11  C   UNL     1      -6.151  -1.397  -0.712  0.00  0.00    +0.000 A 
ATOM     12  C   UNL     1      -6.363  -2.103  -1.903  0.00  0.00    +0.000 A 
ATOM     13  C   UNL     1      -7.228  -3.193  -1.920  0.00  0.00    +0.000 A 
ATOM     14  C   UNL     1      -7.890  -3.601  -0.768  0.00  0.00    +0.000 A 
ATOM     15  C   UNL     1      -7.683  -2.908   0.423  0.00  0.00    +0.000 A 
ATOM     16  C   UNL     1      -6.816  -1.812   0.452  0.00  0.00    +0.000 A 
ATOM     17  F   UNL     1      -7.424  -3.861  -3.064  0.00  0.00    +0.000 F 
ENDBRANCH  10  11
ENDBRANCH   1  10
TORSDOF 4
