REMARK  Name = *****
REMARK  2 active torsions:
REMARK  status: ('A' for Active; 'I' for Inactive)
REMARK    1  A    between atoms: C_1  and  C_2
REMARK    2  A    between atoms: C_9  and  C_11
REMARK                            x       y       z     vdW  Elec       q    Type
REMARK                         _______ _______ _______ _____ _____    ______ ____
ROOT
ATOM      1  C   UNL     1       0.956   0.084  -0.067  0.00  0.00    +0.000 C 
ATOM      2  C   UNL     1       2.458   0.053  -0.043  0.00  0.00    +0.000 A 
ATOM      3  C   UNL     1       3.143  -1.178  -0.051  0.00  0.00    +0.000 A 
ATOM      4  C   UNL     1       4.544  -1.165  -0.031  0.00  0.00    +0.000 A 
ATOM      5  C   UNL     1       5.203   0.051  -0.004  0.00  0.00    +0.000 A 
ATOM      6  C   UNL     1       4.578   1.290   0.004  0.00  0.00    +0.000 A 
ATOM      7  C   UNL     1       3.177   1.263  -0.017  0.00  0.00    +0.000 A 
ATOM      8  O   UNL     1       6.543  -0.200   0.010  0.00  0.00    +0.000 OA
ATOM      9  C   UNL     1       6.625  -1.570  -0.009  0.00  0.00    +0.000 A 
ATOM     10  N   UNL     1       5.457  -2.190  -0.033  0.00  0.00    +0.000 NA
ENDROOT
BRANCH   9  11
ATOM     11  C   UNL     1       7.967  -2.147  -0.003  0.00  0.00    +0.000 A 
ATOM     12  C   UNL     1       9.117  -1.347   0.025  0.00  0.00    +0.000 A 
ATOM     13  C   UNL     1      10.377  -1.939   0.027  0.00  0.00    +0.000 A 
ATOM     14  C   UNL     1      10.525  -3.320   0.004  0.00  0.00    +0.000 A 
ATOM     15  C   UNL     1       9.392  -4.129  -0.023  0.00  0.00    +0.000 A 
ATOM     16  C   UNL     1       8.122  -3.544  -0.026  0.00  0.00    +0.000 A 
ATOM     17  F   UNL     1      11.467  -1.161   0.053  0.00  0.00    +0.000 F 
ENDBRANCH   9  11
TORSDOF 1
