REMARK  Name = *****
REMARK  6 active torsions:
REMARK  status: ('A' for Active; 'I' for Inactive)
REMARK    1  A    between atoms: C_1  and  C_2
REMARK    2  A    between atoms: C_5  and  C_8
REMARK    3  A    between atoms: C_8  and  C_9
REMARK    4  A    between atoms: C_10  and  C_11
REMARK    5  A    between atoms: C_16  and  O_17
REMARK    6  A    between atoms: O_17  and  C_18
REMARK                            x       y       z     vdW  Elec       q    Type
REMARK                         _______ _______ _______ _____ _____    ______ ____
ROOT
ATOM      1  C   UNL     1      -3.485   1.442   0.016  0.00  0.00    +0.000 C 
ATOM      2  C   UNL     1      -4.780   1.707  -0.226  0.00  0.00    +0.000 C 
ENDROOT
BRANCH   2   3
ATOM      3  C   UNL     1      -5.370   3.054  -0.182  0.00  0.00    +0.000 A 
ATOM      4  C   UNL     1      -5.029   3.960   0.834  0.00  0.00    +0.000 A 
ATOM      5  C   UNL     1      -5.632   5.220   0.902  0.00  0.00    +0.000 A 
ATOM      6  C   UNL     1      -6.597   5.587  -0.034  0.00  0.00    +0.000 A 
ATOM      7  C   UNL     1      -6.959   4.695  -1.042  0.00  0.00    +0.000 A 
ATOM      8  C   UNL     1      -6.338   3.445  -1.122  0.00  0.00    +0.000 A 
BRANCH   8   9
ATOM      9  O   UNL     1      -6.744   2.582  -2.111  0.00  0.00    +0.000 OA
ATOM     10  C   UNL     1      -6.025   2.853  -3.315  0.00  0.00    +0.000 C 
ENDBRANCH   8   9
ENDBRANCH   2   3
BRANCH   1  11
ATOM     11  C   UNL     1      -2.893   0.062  -0.033  0.00  0.00    +0.000 C 
BRANCH  11  16
ATOM     12  C   UNL     1      -0.337  -1.389   5.001  0.00  0.00    +0.000 C 
ATOM     13  C   UNL     1      -0.995  -0.991   3.713  0.00  0.00    +0.000 A 
ATOM     14  C   UNL     1      -2.386  -1.060   3.577  0.00  0.00    +0.000 A 
ATOM     15  C   UNL     1      -2.998  -0.721   2.368  0.00  0.00    +0.000 A 
ATOM     16  C   UNL     1      -2.228  -0.319   1.268  0.00  0.00    +0.000 A 
ATOM     17  C   UNL     1      -0.835  -0.258   1.404  0.00  0.00    +0.000 A 
ATOM     18  C   UNL     1      -0.224  -0.598   2.614  0.00  0.00    +0.000 A 
ENDBRANCH  11  16
ENDBRANCH   1  11
TORSDOF 4
