REMARK  Name = *****
REMARK  3 active torsions:
REMARK  status: ('A' for Active; 'I' for Inactive)
REMARK    1  A    between atoms: C_4  and  C_5
REMARK    2  A    between atoms: C_5  and  C_6
REMARK    3  A    between atoms: C_6  and  C_7
REMARK                            x       y       z     vdW  Elec       q    Type
REMARK                         _______ _______ _______ _____ _____    ______ ____
ROOT
ATOM      1  C   UNL     1       2.845   2.345   0.123  0.00  0.00    +0.000 C 
ENDROOT
BRANCH   1   5
ATOM      2  C   UNL     1       2.394  -1.870  -2.350  0.00  0.00    +0.000 C 
ATOM      3  C   UNL     1       1.904  -1.313  -1.017  0.00  0.00    +0.000 C 
ATOM      4  C   UNL     1       2.246   0.152  -1.051  0.00  0.00    +0.000 C 
ATOM      5  C   UNL     1       2.483   0.885   0.048  0.00  0.00    +0.000 C 
ATOM      6  S   UNL     1       2.386   0.753  -2.681  0.00  0.00    +0.000 S 
ATOM      7  C   UNL     1       2.012  -0.864  -3.427  0.00  0.00    +0.000 C 
ENDBRANCH   1   5
BRANCH   1   8
ATOM      8  C   UNL     1       4.324   2.533   0.473  0.00  0.00    +0.000 C 
BRANCH   8   9
ATOM      9  C   UNL     1       4.694   3.992   0.573  0.00  0.00    +0.000 A 
ATOM     10  C   UNL     1       4.658   4.655   1.807  0.00  0.00    +0.000 A 
ATOM     11  C   UNL     1       4.984   6.009   1.891  0.00  0.00    +0.000 A 
ATOM     12  C   UNL     1       5.343   6.714   0.743  0.00  0.00    +0.000 A 
ATOM     13  C   UNL     1       5.376   6.066  -0.490  0.00  0.00    +0.000 A 
ATOM     14  C   UNL     1       5.051   4.711  -0.576  0.00  0.00    +0.000 A 
ENDBRANCH   8   9
ENDBRANCH   1   8
TORSDOF 3
