REMARK  Name = *****
REMARK  2 active torsions:
REMARK  status: ('A' for Active; 'I' for Inactive)
REMARK    1  A    between atoms: C_4  and  N_7
REMARK    2  A    between atoms: C_8  and  C_9
REMARK                            x       y       z     vdW  Elec       q    Type
REMARK                         _______ _______ _______ _____ _____    ______ ____
ROOT
ATOM      1  N   UNL     1      -2.689   0.368  -0.735  0.00  0.00    +0.000 NA
ATOM      2  C   UNL     1      -3.598  -0.509  -0.435  0.00  0.00    +0.000 C 
ATOM      3 CL   UNL     1      -5.219  -0.015  -0.818  0.00  0.00    +0.000 Cl
ENDROOT
BRANCH   2   4
ATOM      4  C   UNL     1      -3.383  -1.844   0.178  0.00  0.00    +0.000 A 
ATOM      5  C   UNL     1      -3.855  -2.981  -0.485  0.00  0.00    +0.000 A 
ATOM      6  C   UNL     1      -3.667  -4.233   0.094  0.00  0.00    +0.000 A 
ATOM      7  C   UNL     1      -3.025  -4.358   1.327  0.00  0.00    +0.000 A 
ATOM      8  C   UNL     1      -2.568  -3.219   1.993  0.00  0.00    +0.000 A 
ATOM      9  C   UNL     1      -2.751  -1.959   1.422  0.00  0.00    +0.000 A 
ATOM     10 CL   UNL     1      -4.230  -5.641  -0.719  0.00  0.00    +0.000 Cl
ENDBRANCH   2   4
BRANCH   1  14
ATOM     11  C   UNL     1       1.411  -0.370  -0.187  0.00  0.00    +0.000 A 
ATOM     12  C   UNL     1       0.715  -1.048  -1.187  0.00  0.00    +0.000 A 
ATOM     13  C   UNL     1      -0.647  -0.807  -1.375  0.00  0.00    +0.000 A 
ATOM     14  C   UNL     1      -1.327   0.098  -0.553  0.00  0.00    +0.000 A 
ATOM     15  C   UNL     1      -0.614   0.794   0.426  0.00  0.00    +0.000 A 
ATOM     16  C   UNL     1       0.748   0.556   0.617  0.00  0.00    +0.000 A 
ENDBRANCH   1  14
TORSDOF 2
