REMARK  Name = *****
REMARK  1 active torsions:
REMARK  status: ('A' for Active; 'I' for Inactive)
REMARK    1  A    between atoms: C_4  and  C_7
REMARK                            x       y       z     vdW  Elec       q    Type
REMARK                         _______ _______ _______ _____ _____    ______ ____
ROOT
ATOM      1  C   UNL     1       0.313   1.204   2.227  0.00  0.00    +0.000 C 
ATOM      2  S   UNL     1       0.508  -0.355   3.189  0.00  0.00    +0.000 S 
ATOM      3  C   UNL     1      -0.941  -0.185   4.107  0.00  0.00    +0.000 A 
ATOM      4  C   UNL     1      -1.589   0.983   4.072  0.00  0.00    +0.000 A 
ATOM      5  S   UNL     1      -0.939   2.256   3.108  0.00  0.00    +0.000 S 
ATOM      6  S   UNL     1      -3.029   1.132   5.011  0.00  0.00    +0.000 S 
ATOM      7  C   UNL     1      -2.985  -0.507   5.650  0.00  0.00    +0.000 A 
ATOM      8  O   UNL     1      -3.827  -0.953   6.414  0.00  0.00    +0.000 OA
ATOM      9  S   UNL     1      -1.606  -1.444   5.082  0.00  0.00    +0.000 S 
ENDROOT
BRANCH   1  13
ATOM     10  C   UNL     1       0.022  -1.829  -0.694  0.00  0.00    +0.000 C 
ATOM     11  C   UNL     1       1.339  -1.234  -0.231  0.00  0.00    +0.000 C 
ATOM     12  S   UNL     1       1.381   0.573  -0.348  0.00  0.00    +0.000 S 
ATOM     13  C   UNL     1      -0.030   1.063   0.713  0.00  0.00    +0.000 C 
ATOM     14  S   UNL     1      -1.602   0.244   0.239  0.00  0.00    +0.000 S 
ATOM     15  C   UNL     1      -1.145  -1.510   0.222  0.00  0.00    +0.000 C 
ENDBRANCH   1  13
TORSDOF 1
