REMARK  Name = *****
REMARK  3 active torsions:
REMARK  status: ('A' for Active; 'I' for Inactive)
REMARK    1  A    between atoms: C_3  and  O_8
REMARK    2  A    between atoms: O_8  and  C_9
REMARK    3  A    between atoms: C_9  and  C_11
REMARK                            x       y       z     vdW  Elec       q    Type
REMARK                         _______ _______ _______ _____ _____    ______ ____
ROOT
ATOM      1  C   UNL     1      -1.193   3.685   0.364  0.00  0.00    +0.000 C 
ATOM      2  O   UNL     1      -0.008   3.656   0.065  0.00  0.00    +0.000 OA
ENDROOT
BRANCH   1   3
ATOM      3  C   UNL     1      -2.012   4.915   0.228  0.00  0.00    +0.000 A 
ATOM      4  C   UNL     1      -3.287   5.057   0.785  0.00  0.00    +0.000 A 
ATOM      5  C   UNL     1      -4.010   6.238   0.627  0.00  0.00    +0.000 A 
ATOM      6  C   UNL     1      -3.452   7.287  -0.089  0.00  0.00    +0.000 A 
ATOM      7  C   UNL     1      -2.183   7.177  -0.647  0.00  0.00    +0.000 A 
ATOM      8  C   UNL     1      -1.461   5.992  -0.488  0.00  0.00    +0.000 A 
ATOM      9  F   UNL     1      -4.143   8.423  -0.242  0.00  0.00    +0.000 F 
ATOM     10  F   UNL     1      -3.853   4.076   1.502  0.00  0.00    +0.000 F 
ENDBRANCH   1   3
BRANCH   1  11
ATOM     11  O   UNL     1      -1.963   2.630   0.809  0.00  0.00    +0.000 OA
BRANCH  11  14
ATOM     12  C   UNL     1      -1.055  -0.902   0.373  0.00  0.00    +0.000 A 
ATOM     13  C   UNL     1      -1.676   0.335   0.197  0.00  0.00    +0.000 A 
ATOM     14  C   UNL     1      -1.276   1.421   0.978  0.00  0.00    +0.000 A 
ATOM     15  C   UNL     1      -0.294   1.284   1.956  0.00  0.00    +0.000 A 
ATOM     16  C   UNL     1       0.314   0.046   2.117  0.00  0.00    +0.000 A 
ATOM     17  C   UNL     1      -0.054  -1.046   1.335  0.00  0.00    +0.000 A 
ATOM     18  F   UNL     1       1.266  -0.104   3.048  0.00  0.00    +0.000 F 
ENDBRANCH  11  14
ENDBRANCH   1  11
TORSDOF 3
