REMARK  Name = *****
REMARK  5 active torsions:
REMARK  status: ('A' for Active; 'I' for Inactive)
REMARK    1  A    between atoms: C_1  and  C_2
REMARK    2  A    between atoms: C_5  and  S_8
REMARK    3  A    between atoms: S_8  and  N_9
REMARK    4  A    between atoms: S_8  and  C_17
REMARK    5  A    between atoms: N_9  and  C_10
REMARK                            x       y       z     vdW  Elec       q    Type
REMARK                         _______ _______ _______ _____ _____    ______ ____
ROOT
ATOM      1  S   UNL     1      -3.579   0.002  -0.040  0.00  0.00    +0.000 S 
ATOM      2  O   UNL     1      -3.984  -0.601   1.218  0.00  0.00    +0.000 OA
ATOM      3  C   UNL     1      -4.167   1.677   0.025  0.00  0.00    +0.000 C 
ENDROOT
BRANCH   1   8
ATOM      4  C   UNL     1       2.498   0.082   0.198  0.00  0.00    +0.000 C 
ATOM      5  C   UNL     1       0.999   0.086   0.126  0.00  0.00    +0.000 A 
ATOM      6  C   UNL     1       0.268   1.197   0.567  0.00  0.00    +0.000 A 
ATOM      7  C   UNL     1      -1.129   1.191   0.532  0.00  0.00    +0.000 A 
ATOM      8  C   UNL     1      -1.798   0.062   0.057  0.00  0.00    +0.000 A 
ATOM      9  C   UNL     1      -1.081  -1.064  -0.358  0.00  0.00    +0.000 A 
ATOM     10  C   UNL     1       0.314  -1.050  -0.322  0.00  0.00    +0.000 A 
ENDBRANCH   1   8
BRANCH   1  11
ATOM     11  N   UNL     1      -3.961  -0.569  -1.417  0.00  0.00    +0.000 NA
BRANCH  11  12
ATOM     12  C   UNL     1      -3.598  -0.142  -2.729  0.00  0.00    +0.000 A 
ATOM     13  C   UNL     1      -2.699   0.879  -3.037  0.00  0.00    +0.000 A 
ATOM     14  C   UNL     1      -2.421   1.205  -4.370  0.00  0.00    +0.000 A 
ATOM     15  C   UNL     1      -3.042   0.510  -5.406  0.00  0.00    +0.000 A 
ATOM     16  C   UNL     1      -3.938  -0.513  -5.111  0.00  0.00    +0.000 A 
ATOM     17  C   UNL     1      -4.210  -0.835  -3.778  0.00  0.00    +0.000 A 
ENDBRANCH  11  12
ENDBRANCH   1  11
TORSDOF 3
