REMARK  Name = *****
REMARK  3 active torsions:
REMARK  status: ('A' for Active; 'I' for Inactive)
REMARK    1  A    between atoms: C_3  and  S_8
REMARK    2  A    between atoms: S_8  and  C_9
REMARK    3  A    between atoms: C_9  and  C_10
REMARK                            x       y       z     vdW  Elec       q    Type
REMARK                         _______ _______ _______ _____ _____    ______ ____
ROOT
ATOM      1  S   UNL     1       2.736   2.705   0.040  0.00  0.00    +0.000 S 
ENDROOT
BRANCH   1   4
ATOM      2  C   UNL     1       1.660  -1.195   0.104  0.00  0.00    +0.000 A 
ATOM      3  C   UNL     1       2.369   0.009   0.091  0.00  0.00    +0.000 A 
ATOM      4  C   UNL     1       1.702   1.245   0.054  0.00  0.00    +0.000 A 
ATOM      5  C   UNL     1       0.305   1.248   0.032  0.00  0.00    +0.000 A 
ATOM      6  C   UNL     1      -0.401   0.041   0.044  0.00  0.00    +0.000 A 
ATOM      7  C   UNL     1       0.268  -1.179   0.080  0.00  0.00    +0.000 A 
ATOM      8 CL   UNL     1      -2.123   0.064   0.015  0.00  0.00    +0.000 Cl
ENDBRANCH   1   4
BRANCH   1   9
ATOM      9  C   UNL     1       1.543   4.082  -0.032  0.00  0.00    +0.000 C 
BRANCH   9  10
ATOM     10  C   UNL     1       2.252   5.415  -0.075  0.00  0.00    +0.000 A 
ATOM     11  C   UNL     1       2.616   5.988  -1.305  0.00  0.00    +0.000 A 
ATOM     12  C   UNL     1       3.283   7.213  -1.343  0.00  0.00    +0.000 A 
ATOM     13  C   UNL     1       3.593   7.863  -0.154  0.00  0.00    +0.000 A 
ATOM     14  C   UNL     1       3.251   7.309   1.073  0.00  0.00    +0.000 A 
ATOM     15  C   UNL     1       2.584   6.084   1.115  0.00  0.00    +0.000 A 
ATOM     16  F   UNL     1       4.234   9.038  -0.193  0.00  0.00    +0.000 F 
ENDBRANCH   9  10
ENDBRANCH   1   9
TORSDOF 3
