REMARK  Name = *****
REMARK  2 active torsions:
REMARK  status: ('A' for Active; 'I' for Inactive)
REMARK    1  A    between atoms: C_1  and  C_2
REMARK    2  A    between atoms: C_5  and  C_8
REMARK                            x       y       z     vdW  Elec       q    Type
REMARK                         _______ _______ _______ _____ _____    ______ ____
ROOT
ATOM      1  C   UNL     1      -3.526   0.781  -0.189  0.00  0.00    +0.000 C 
ATOM      2  C   UNL     1      -4.412   1.447  -0.951  0.00  0.00    +0.000 C 
ATOM      3  C   UNL     1      -5.764   1.153  -0.522  0.00  0.00    +0.000 A 
ATOM      4  C   UNL     1      -6.979   1.608  -1.001  0.00  0.00    +0.000 A 
ATOM      5  C   UNL     1      -8.144   1.150  -0.380  0.00  0.00    +0.000 A 
ATOM      6  C   UNL     1      -8.076   0.252   0.700  0.00  0.00    +0.000 A 
ATOM      7  C   UNL     1      -6.843  -0.202   1.176  0.00  0.00    +0.000 A 
ATOM      8  C   UNL     1      -5.696   0.259   0.552  0.00  0.00    +0.000 A 
ATOM      9  C   UNL     1      -4.259  -0.062   0.846  0.00  0.00    +0.000 C 
ATOM     10  F   UNL     1      -4.141   2.269  -1.976  0.00  0.00    +0.000 F 
ENDROOT
BRANCH   1  15
ATOM     11  C   UNL     1       2.281   0.859  -0.480  0.00  0.00    +0.000 C 
ATOM     12  C   UNL     1       0.783   0.823  -0.432  0.00  0.00    +0.000 A 
ATOM     13  C   UNL     1       0.025   1.791  -1.093  0.00  0.00    +0.000 A 
ATOM     14  C   UNL     1      -1.373   1.774  -1.020  0.00  0.00    +0.000 A 
ATOM     15  C   UNL     1      -2.054   0.796  -0.281  0.00  0.00    +0.000 A 
ATOM     16  C   UNL     1      -1.279  -0.157   0.397  0.00  0.00    +0.000 A 
ATOM     17  C   UNL     1       0.119  -0.144   0.326  0.00  0.00    +0.000 A 
ENDBRANCH   1  15
TORSDOF 1
