REMARK  Name = *****
REMARK  4 active torsions:
REMARK  status: ('A' for Active; 'I' for Inactive)
REMARK    1  A    between atoms: C_3  and  C_11
REMARK    2  A    between atoms: C_5  and  C_7
REMARK    3  A    between atoms: C_11  and  O_12
REMARK    4  A    between atoms: O_12  and  C_13
REMARK                            x       y       z     vdW  Elec       q    Type
REMARK                         _______ _______ _______ _____ _____    ______ ____
ROOT
ATOM      1  C   UNL     1      -0.081   1.001   0.981  0.00  0.00    +0.000 A 
ATOM      2  C   UNL     1      -0.966  -0.077   0.994  0.00  0.00    +0.000 A 
ATOM      3  C   UNL     1      -0.831  -1.119   0.067  0.00  0.00    +0.000 A 
ATOM      4  C   UNL     1       0.207  -1.058  -0.877  0.00  0.00    +0.000 A 
ATOM      5  C   UNL     1       1.104   0.022  -0.899  0.00  0.00    +0.000 A 
ATOM      6  C   UNL     1       0.948   1.051   0.041  0.00  0.00    +0.000 A 
ENDROOT
BRANCH   5   7
ATOM      7  C   UNL     1       2.224   0.088  -1.908  0.00  0.00    +0.000 C 
ATOM      8  F   UNL     1       2.243  -0.962  -2.776  0.00  0.00    +0.000 F 
ATOM      9  F   UNL     1       2.161   1.207  -2.681  0.00  0.00    +0.000 F 
ATOM     10  F   UNL     1       3.454   0.109  -1.322  0.00  0.00    +0.000 F 
ENDBRANCH   5   7
BRANCH   3  11
ATOM     11  C   UNL     1      -1.796  -2.282   0.065  0.00  0.00    +0.000 C 
BRANCH  11  12
ATOM     12  O   UNL     1      -1.054  -3.487   0.244  0.00  0.00    +0.000 OA
BRANCH  12  13
ATOM     13  C   UNL     1      -1.755  -4.661   0.229  0.00  0.00    +0.000 A 
ATOM     14  C   UNL     1      -3.135  -4.793   0.059  0.00  0.00    +0.000 A 
ATOM     15  C   UNL     1      -3.722  -6.063   0.063  0.00  0.00    +0.000 A 
ATOM     16  C   UNL     1      -2.927  -7.190   0.236  0.00  0.00    +0.000 A 
ATOM     17  C   UNL     1      -1.555  -7.074   0.407  0.00  0.00    +0.000 A 
ATOM     18  C   UNL     1      -0.970  -5.807   0.404  0.00  0.00    +0.000 A 
ATOM     19  F   UNL     1      -3.494  -8.403   0.239  0.00  0.00    +0.000 F 
ENDBRANCH  12  13
ENDBRANCH  11  12
ENDBRANCH   3  11
TORSDOF 4
