REMARK  Name = *****
REMARK  4 active torsions:
REMARK  status: ('A' for Active; 'I' for Inactive)
REMARK    1  A    between atoms: C_1  and  C_2
REMARK    2  A    between atoms: C_5  and  C_7
REMARK    3  A    between atoms: N_8  and  C_9
REMARK    4  A    between atoms: C_14  and  C_15
REMARK                            x       y       z     vdW  Elec       q    Type
REMARK                         _______ _______ _______ _____ _____    ______ ____
ROOT
ATOM      1  C   UNL     1      -5.317   0.599   0.209  0.00  0.00    +0.000 A 
ATOM      2  C   UNL     1      -5.683   1.656   1.055  0.00  0.00    +0.000 A 
ATOM      3  C   UNL     1      -6.911   2.299   0.907  0.00  0.00    +0.000 A 
ATOM      4  C   UNL     1      -7.795   1.883  -0.083  0.00  0.00    +0.000 A 
ATOM      5  C   UNL     1      -7.451   0.820  -0.918  0.00  0.00    +0.000 A 
ATOM      6  C   UNL     1      -6.213   0.164  -0.778  0.00  0.00    +0.000 A 
ENDROOT
BRANCH   6   7
ATOM      7  C   UNL     1      -5.858  -0.991  -1.675  0.00  0.00    +0.000 C 
ATOM      8  F   UNL     1      -4.707  -0.788  -2.379  0.00  0.00    +0.000 F 
ATOM      9  F   UNL     1      -5.704  -2.172  -1.014  0.00  0.00    +0.000 F 
ATOM     10  F   UNL     1      -6.812  -1.237  -2.624  0.00  0.00    +0.000 F 
ENDBRANCH   6   7
BRANCH   1  12
ATOM     11  C   UNL     1      -3.041   0.564  -0.085  0.00  0.00    +0.000 C 
ATOM     12  N   UNL     1      -4.083  -0.036   0.403  0.00  0.00    +0.000 NA
BRANCH  11  17
ATOM     13  C   UNL     1       2.170  -0.245  -0.286  0.00  0.00    +0.000 C 
ATOM     14  C   UNL     1       0.709  -0.388  -0.028  0.00  0.00    +0.000 A 
ATOM     15  C   UNL     1       0.046  -1.413   0.614  0.00  0.00    +0.000 A 
ATOM     16  C   UNL     1      -1.361  -1.194   0.668  0.00  0.00    +0.000 A 
ATOM     17  C   UNL     1      -1.727  -0.008   0.065  0.00  0.00    +0.000 A 
ATOM     18  S   UNL     1      -0.374   0.827  -0.558  0.00  0.00    +0.000 S 
ENDBRANCH  11  17
ENDBRANCH   1  12
TORSDOF 3
