REMARK  Name = *****
REMARK  2 active torsions:
REMARK  status: ('A' for Active; 'I' for Inactive)
REMARK    1  A    between atoms: C_4  and  C_7
REMARK    2  A    between atoms: C_8  and  C_9
REMARK                            x       y       z     vdW  Elec       q    Type
REMARK                         _______ _______ _______ _____ _____    ______ ____
ROOT
ATOM      1  C   UNL     1      -2.829   0.437  -0.327  0.00  0.00    +0.000 C 
ATOM      2  C   UNL     1      -3.767  -0.521  -0.262  0.00  0.00    +0.000 C 
ENDROOT
BRANCH   1   6
ATOM      3  C   UNL     1       1.376  -0.176   0.171  0.00  0.00    +0.000 A 
ATOM      4  C   UNL     1       0.620  -1.130  -0.507  0.00  0.00    +0.000 A 
ATOM      5  C   UNL     1      -0.756  -0.946  -0.673  0.00  0.00    +0.000 A 
ATOM      6  C   UNL     1      -1.391   0.189  -0.151  0.00  0.00    +0.000 A 
ATOM      7  C   UNL     1      -0.617   1.149   0.514  0.00  0.00    +0.000 A 
ATOM      8  C   UNL     1       0.759   0.965   0.679  0.00  0.00    +0.000 A 
ENDBRANCH   1   6
BRANCH   2   9
ATOM      9  C   UNL     1      -5.145  -0.210  -0.430  0.00  0.00    +0.000 A 
ATOM     10  C   UNL     1      -6.235  -1.072  -0.393  0.00  0.00    +0.000 A 
ATOM     11  C   UNL     1      -7.404  -0.305  -0.611  0.00  0.00    +0.000 A 
ATOM     12  C   UNL     1      -6.984   0.993  -0.772  0.00  0.00    +0.000 A 
ATOM     13  O   UNL     1      -5.632   1.058  -0.665  0.00  0.00    +0.000 OA
ATOM     14 CL   UNL     1      -7.975   2.366  -1.065  0.00  0.00    +0.000 Cl
ENDBRANCH   2   9
TORSDOF 2
