REMARK  Name = *****
REMARK  3 active torsions:
REMARK  status: ('A' for Active; 'I' for Inactive)
REMARK    1  A    between atoms: C_1  and  C_2
REMARK    2  A    between atoms: C_2  and  C_4
REMARK    3  A    between atoms: C_13  and  C_14
REMARK                            x       y       z     vdW  Elec       q    Type
REMARK                         _______ _______ _______ _____ _____    ______ ____
ROOT
ATOM      1  C   UNL     1       3.271  -1.987  -0.718  0.00  0.00    +0.000 C 
ATOM      2  C   UNL     1       3.778  -2.706  -1.994  0.00  0.00    +0.000 C 
ATOM      3  C   UNL     1       5.246  -3.081  -2.059  0.00  0.00    +0.000 C 
ATOM      4  C   UNL     1       5.791  -3.764  -3.082  0.00  0.00    +0.000 C 
ATOM      5  C   UNL     1       5.071  -4.219  -4.255  0.00  0.00    +0.000 C 
ATOM      6  C   UNL     1       3.806  -4.670  -4.291  0.00  0.00    +0.000 C 
ATOM      7  C   UNL     1       2.928  -4.805  -3.148  0.00  0.00    +0.000 C 
ATOM      8  C   UNL     1       2.905  -3.946  -2.116  0.00  0.00    +0.000 C 
ATOM      9  S   UNL     1       1.959  -4.277  -0.689  0.00  0.00    +0.000 S 
ATOM     10  C   UNL     1       2.900  -3.060   0.314  0.00  0.00    +0.000 C 
ENDROOT
BRANCH  10  11
ATOM     11  C   UNL     1       2.098  -2.621   1.521  0.00  0.00    +0.000 A 
ATOM     12  C   UNL     1       2.377  -3.200   2.772  0.00  0.00    +0.000 A 
ATOM     13  C   UNL     1       1.668  -2.821   3.914  0.00  0.00    +0.000 A 
ATOM     14  C   UNL     1       0.662  -1.864   3.823  0.00  0.00    +0.000 A 
ATOM     15  C   UNL     1       0.359  -1.293   2.590  0.00  0.00    +0.000 A 
ATOM     16  C   UNL     1       1.067  -1.672   1.446  0.00  0.00    +0.000 A 
ENDBRANCH  10  11
BRANCH   1  18
ATOM     17  C   UNL     1       4.991  -1.052   1.034  0.00  0.00    +0.000 C 
ATOM     18  C   UNL     1       4.237  -0.903  -0.262  0.00  0.00    +0.000 C 
ATOM     19  O   UNL     1       4.417   0.095  -0.966  0.00  0.00    +0.000 OA
ENDBRANCH   1  18
TORSDOF 2
