REMARK  Name = *****
REMARK  3 active torsions:
REMARK  status: ('A' for Active; 'I' for Inactive)
REMARK    1  A    between atoms: C_4  and  C_7
REMARK    2  A    between atoms: C_7  and  O_8
REMARK    3  A    between atoms: O_8  and  C_9
REMARK                            x       y       z     vdW  Elec       q    Type
REMARK                         _______ _______ _______ _____ _____    ______ ____
ROOT
ATOM      1  C   UNL     1      -4.900  -0.791  -0.100  0.00  0.00    +0.000 C 
ATOM      2  C   UNL     1      -5.907  -1.685   0.010  0.00  0.00    +0.000 C 
ATOM      3  C   UNL     1      -7.016  -0.687  -0.270  0.00  0.00    +0.000 C 
ATOM      4  C   UNL     1      -5.872   0.370  -0.404  0.00  0.00    +0.000 C 
ATOM      5  F   UNL     1      -5.756   0.964  -1.621  0.00  0.00    +0.000 F 
ATOM      6  F   UNL     1      -5.905   1.392   0.491  0.00  0.00    +0.000 F 
ATOM      7  F   UNL     1      -7.913  -0.448   0.723  0.00  0.00    +0.000 F 
ATOM      8  F   UNL     1      -7.764  -0.876  -1.390  0.00  0.00    +0.000 F 
ATOM      9 CL   UNL     1      -5.927  -3.389   0.352  0.00  0.00    +0.000 Cl
ENDROOT
BRANCH   1  10
ATOM     10  O   UNL     1      -3.624  -0.874   0.008  0.00  0.00    +0.000 OA
BRANCH  10  11
ATOM     11  C   UNL     1      -2.941   0.358  -0.232  0.00  0.00    +0.000 C 
BRANCH  11  15
ATOM     12  C   UNL     1       1.340  -0.137   0.072  0.00  0.00    +0.000 A 
ATOM     13  C   UNL     1       0.559  -1.167  -0.447  0.00  0.00    +0.000 A 
ATOM     14  C   UNL     1      -0.826  -1.017  -0.539  0.00  0.00    +0.000 A 
ATOM     15  C   UNL     1      -1.448   0.161  -0.100  0.00  0.00    +0.000 A 
ATOM     16  C   UNL     1      -0.648   1.196   0.408  0.00  0.00    +0.000 A 
ATOM     17  C   UNL     1       0.738   1.045   0.498  0.00  0.00    +0.000 A 
ENDBRANCH  11  15
ENDBRANCH  10  11
ENDBRANCH   1  10
TORSDOF 3
