REMARK  Name = *****
REMARK  4 active torsions:
REMARK  status: ('A' for Active; 'I' for Inactive)
REMARK    1  A    between atoms: C_1  and  O_2
REMARK    2  A    between atoms: O_2  and  C_3
REMARK    3  A    between atoms: C_8  and  C_9
REMARK    4  A    between atoms: C_10  and  C_11
REMARK                            x       y       z     vdW  Elec       q    Type
REMARK                         _______ _______ _______ _____ _____    ______ ____
ROOT
ATOM      1  C   UNL     1       2.848   1.128   0.588  0.00  0.00    +0.000 A 
ATOM      2  C   UNL     1       2.690   2.337   1.276  0.00  0.00    +0.000 A 
ATOM      3  C   UNL     1       3.296   3.505   0.808  0.00  0.00    +0.000 A 
ATOM      4  C   UNL     1       4.071   3.476  -0.347  0.00  0.00    +0.000 A 
ATOM      5  C   UNL     1       4.238   2.278  -1.041  0.00  0.00    +0.000 A 
ATOM      6  C   UNL     1       3.621   1.098  -0.593  0.00  0.00    +0.000 A 
ENDROOT
BRANCH   1   8
ATOM      7  C   UNL     1       1.426  -0.047   2.108  0.00  0.00    +0.000 C 
ATOM      8  O   UNL     1       2.294  -0.065   0.983  0.00  0.00    +0.000 OA
ENDBRANCH   1   8
BRANCH   6   9
ATOM      9  C   UNL     1       3.832  -0.166  -1.322  0.00  0.00    +0.000 C 
ATOM     10  C   UNL     1       3.748  -0.283  -2.659  0.00  0.00    +0.000 C 
BRANCH  10  11
ATOM     11  C   UNL     1       3.950  -1.575  -3.395  0.00  0.00    +0.000 C 
ATOM     12  S   UNL     1       2.417  -2.163  -4.156  0.00  0.00    +0.000 S 
ATOM     13  C   UNL     1       2.185  -0.927  -5.462  0.00  0.00    +0.000 C 
ATOM     14  C   UNL     1       3.353  -0.865  -6.435  0.00  0.00    +0.000 C 
ATOM     15  C   UNL     1       4.642  -0.350  -5.814  0.00  0.00    +0.000 C 
ATOM     16  S   UNL     1       5.332  -1.467  -4.562  0.00  0.00    +0.000 S 
ENDBRANCH  10  11
ENDBRANCH   6   9
TORSDOF 3
