REMARK  Name = *****
REMARK  6 active torsions:
REMARK  status: ('A' for Active; 'I' for Inactive)
REMARK    1  A    between atoms: C_1  and  C_2
REMARK    2  A    between atoms: C_4  and  C_8
REMARK    3  A    between atoms: C_8  and  S_10
REMARK    4  A    between atoms: S_10  and  C_11
REMARK    5  A    between atoms: C_14  and  O_17
REMARK    6  A    between atoms: O_17  and  C_18
REMARK                            x       y       z     vdW  Elec       q    Type
REMARK                         _______ _______ _______ _____ _____    ______ ____
ROOT
ATOM      1  C   UNL     1      -1.742   2.697   0.136  0.00  0.00    +0.000 C 
ATOM      2  O   UNL     1      -2.956   2.726   0.307  0.00  0.00    +0.000 OA
ENDROOT
BRANCH   1   6
ATOM      3  C   UNL     1       2.483  -0.124   0.038  0.00  0.00    +0.000 C 
ATOM      4  C   UNL     1       0.987  -0.005   0.081  0.00  0.00    +0.000 A 
ATOM      5  C   UNL     1       0.377   1.261   0.097  0.00  0.00    +0.000 A 
ATOM      6  C   UNL     1      -1.021   1.386   0.106  0.00  0.00    +0.000 A 
ATOM      7  C   UNL     1      -1.803   0.220   0.093  0.00  0.00    +0.000 A 
ATOM      8  C   UNL     1      -1.203  -1.040   0.060  0.00  0.00    +0.000 A 
ATOM      9  C   UNL     1       0.186  -1.151   0.048  0.00  0.00    +0.000 A 
ENDBRANCH   1   6
BRANCH   1  10
ATOM     10  S   UNL     1      -0.796   4.171  -0.081  0.00  0.00    +0.000 S 
BRANCH  10  11
ATOM     11  C   UNL     1      -2.056   5.414  -0.270  0.00  0.00    +0.000 A 
ATOM     12  C   UNL     1      -2.842   5.817   0.813  0.00  0.00    +0.000 A 
ATOM     13  C   UNL     1      -3.808   6.820   0.660  0.00  0.00    +0.000 A 
ATOM     14  C   UNL     1      -3.988   7.436  -0.578  0.00  0.00    +0.000 A 
ATOM     15  C   UNL     1      -3.193   7.042  -1.657  0.00  0.00    +0.000 A 
ATOM     16  C   UNL     1      -2.230   6.040  -1.506  0.00  0.00    +0.000 A 
BRANCH  14  17
ATOM     17  O   UNL     1      -4.888   8.425  -0.863  0.00  0.00    +0.000 OA
ATOM     18  C   UNL     1      -5.748   8.833   0.194  0.00  0.00    +0.000 C 
ENDBRANCH  14  17
ENDBRANCH  10  11
ENDBRANCH   1  10
TORSDOF 4
