REMARK  Name = *****
REMARK  5 active torsions:
REMARK  status: ('A' for Active; 'I' for Inactive)
REMARK    1  A    between atoms: C_1  and  C_2
REMARK    2  A    between atoms: C_5  and  C_8
REMARK    3  A    between atoms: C_8  and  O_9
REMARK    4  A    between atoms: O_9  and  C_10
REMARK    5  A    between atoms: C_15  and  C_16
REMARK                            x       y       z     vdW  Elec       q    Type
REMARK                         _______ _______ _______ _____ _____    ______ ____
ROOT
ATOM      1  O   UNL     1      -3.843   1.174   0.015  0.00  0.00    +0.000 OA
ENDROOT
BRANCH   1   2
ATOM      2  C   UNL     1      -5.203   1.297  -0.029  0.00  0.00    +0.000 A 
ATOM      3  C   UNL     1      -6.042   0.479  -0.797  0.00  0.00    +0.000 A 
ATOM      4  C   UNL     1      -7.422   0.709  -0.837  0.00  0.00    +0.000 A 
ATOM      5  C   UNL     1      -7.980   1.762  -0.120  0.00  0.00    +0.000 A 
ATOM      6  C   UNL     1      -7.160   2.582   0.650  0.00  0.00    +0.000 A 
ATOM      7  C   UNL     1      -5.776   2.345   0.710  0.00  0.00    +0.000 A 
BRANCH   7   8
ATOM      8  C   UNL     1      -4.969   3.247   1.578  0.00  0.00    +0.000 C 
ATOM      9  O   UNL     1      -5.257   4.444   1.544  0.00  0.00    +0.000 OA
ATOM     10 CL   UNL     1      -3.776   2.566   2.662  0.00  0.00    +0.000 Cl
ENDBRANCH   7   8
ENDBRANCH   1   2
BRANCH   1  11
ATOM     11  C   UNL     1      -3.240   0.070  -0.657  0.00  0.00    +0.000 C 
BRANCH  11  16
ATOM     12  C   UNL     1       2.483   0.249   0.426  0.00  0.00    +0.000 C 
ATOM     13  C   UNL     1       1.013   0.170   0.139  0.00  0.00    +0.000 A 
ATOM     14  C   UNL     1       0.103  -0.102   1.166  0.00  0.00    +0.000 A 
ATOM     15  C   UNL     1      -1.269  -0.138   0.905  0.00  0.00    +0.000 A 
ATOM     16  C   UNL     1      -1.756   0.107  -0.386  0.00  0.00    +0.000 A 
ATOM     17  C   UNL     1      -0.845   0.401  -1.408  0.00  0.00    +0.000 A 
ATOM     18  C   UNL     1       0.527   0.435  -1.146  0.00  0.00    +0.000 A 
ENDBRANCH  11  16
ENDBRANCH   1  11
TORSDOF 4
