REMARK  Name = *****
REMARK  3 active torsions:
REMARK  status: ('A' for Active; 'I' for Inactive)
REMARK    1  A    between atoms: C_1  and  C_2
REMARK    2  A    between atoms: C_5  and  C_8
REMARK    3  A    between atoms: N_9  and  C_10
REMARK                            x       y       z     vdW  Elec       q    Type
REMARK                         _______ _______ _______ _____ _____    ______ ____
ROOT
ATOM      1  C   UNL     1      -3.321   0.206  -0.228  0.00  0.00    +0.000 C 
ATOM      2  N   UNL     1      -3.998   1.207   0.241  0.00  0.00    +0.000 NA
ENDROOT
BRANCH   1   7
ATOM      3  C   UNL     1       2.441  -0.084   0.074  0.00  0.00    +0.000 C 
ATOM      4  C   UNL     1       0.946   0.009  -0.029  0.00  0.00    +0.000 A 
ATOM      5  C   UNL     1       0.271   1.120   0.492  0.00  0.00    +0.000 A 
ATOM      6  C   UNL     1      -1.122   1.195   0.428  0.00  0.00    +0.000 A 
ATOM      7  C   UNL     1      -1.848   0.151  -0.149  0.00  0.00    +0.000 A 
ATOM      8  C   UNL     1      -1.187  -0.968  -0.658  0.00  0.00    +0.000 A 
ATOM      9  C   UNL     1       0.207  -1.040  -0.592  0.00  0.00    +0.000 A 
ENDBRANCH   1   7
BRANCH   2  10
ATOM     10  C   UNL     1      -5.390   1.128   0.100  0.00  0.00    +0.000 A 
ATOM     11  C   UNL     1      -6.161   0.431   1.032  0.00  0.00    +0.000 A 
ATOM     12  C   UNL     1      -7.545   0.376   0.886  0.00  0.00    +0.000 A 
ATOM     13  C   UNL     1      -8.173   1.021  -0.179  0.00  0.00    +0.000 A 
ATOM     14  C   UNL     1      -7.408   1.733  -1.103  0.00  0.00    +0.000 A 
ATOM     15  C   UNL     1      -6.021   1.788  -0.959  0.00  0.00    +0.000 A 
ATOM     16 CL   UNL     1      -8.491  -0.496   2.030  0.00  0.00    +0.000 Cl
ENDBRANCH   2  10
TORSDOF 2
