REMARK  Name = *****
REMARK  5 active torsions:
REMARK  status: ('A' for Active; 'I' for Inactive)
REMARK    1  A    between atoms: C_1  and  C_2
REMARK    2  A    between atoms: C_5  and  C_8
REMARK    3  A    between atoms: C_8  and  O_9
REMARK    4  A    between atoms: O_9  and  C_10
REMARK    5  A    between atoms: C_13  and  C_16
REMARK                            x       y       z     vdW  Elec       q    Type
REMARK                         _______ _______ _______ _____ _____    ______ ____
ROOT
ATOM      1  O   UNL     1      -3.837   1.319  -0.210  0.00  0.00    +0.000 OA
ENDROOT
BRANCH   1   2
ATOM      2  C   UNL     1      -5.194   1.475  -0.151  0.00  0.00    +0.000 A 
ATOM      3  C   UNL     1      -6.134   0.459   0.018  0.00  0.00    +0.000 A 
ATOM      4  C   UNL     1      -7.500   0.763   0.059  0.00  0.00    +0.000 A 
ATOM      5  C   UNL     1      -7.945   2.086  -0.073  0.00  0.00    +0.000 A 
ATOM      6  C   UNL     1      -6.996   3.102  -0.232  0.00  0.00    +0.000 A 
ATOM      7  C   UNL     1      -5.634   2.795  -0.276  0.00  0.00    +0.000 A 
BRANCH   5   8
ATOM      8  C   UNL     1      -9.412   2.410  -0.015  0.00  0.00    +0.000 C 
ATOM      9 CL   UNL     1      -9.937   2.624   1.667  0.00  0.00    +0.000 Cl
ENDBRANCH   5   8
ENDBRANCH   1   2
BRANCH   1  10
ATOM     10  C   UNL     1      -3.326  -0.001  -0.022  0.00  0.00    +0.000 C 
BRANCH  10  15
ATOM     11  C   UNL     1       2.507   0.013  -0.020  0.00  0.00    +0.000 C 
ATOM     12  C   UNL     1       1.008   0.033  -0.047  0.00  0.00    +0.000 A 
ATOM     13  C   UNL     1       0.296   1.022   0.641  0.00  0.00    +0.000 A 
ATOM     14  C   UNL     1      -1.101   1.020   0.638  0.00  0.00    +0.000 A 
ATOM     15  C   UNL     1      -1.814   0.030  -0.052  0.00  0.00    +0.000 A 
ATOM     16  C   UNL     1      -1.098  -0.973  -0.717  0.00  0.00    +0.000 A 
ATOM     17  C   UNL     1       0.300  -0.972  -0.715  0.00  0.00    +0.000 A 
ENDBRANCH  10  15
ENDBRANCH   1  10
TORSDOF 4
