REMARK  Name = *****
REMARK  4 active torsions:
REMARK  status: ('A' for Active; 'I' for Inactive)
REMARK    1  A    between atoms: C_1  and  C_2
REMARK    2  A    between atoms: C_3  and  C_9
REMARK    3  A    between atoms: N_11  and  C_12
REMARK    4  A    between atoms: N_11  and  C_13
REMARK                            x       y       z     vdW  Elec       q    Type
REMARK                         _______ _______ _______ _____ _____    ______ ____
ROOT
ATOM      1  C   UNL     1      -0.410   2.414  -0.498  0.00  0.00    +0.000 C 
ATOM      2  O   UNL     1       0.016   2.663  -1.624  0.00  0.00    +0.000 OA
ATOM      3  N   UNL     1      -0.753   3.343   0.506  0.00  0.00    +0.000 N 
ATOM      4  C   UNL     1      -1.466   2.931   1.719  0.00  0.00    +0.000 C 
ENDROOT
BRANCH   1   7
ATOM      5  C   UNL     1      -2.859   1.134  -1.454  0.00  0.00    +0.000 C 
ATOM      6  C   UNL     1      -1.814   0.362  -0.697  0.00  0.00    +0.000 A 
ATOM      7  C   UNL     1      -0.634   0.978  -0.232  0.00  0.00    +0.000 A 
ATOM      8  C   UNL     1       0.350   0.233   0.432  0.00  0.00    +0.000 A 
ATOM      9  C   UNL     1       0.148  -1.130   0.660  0.00  0.00    +0.000 A 
ATOM     10  C   UNL     1      -1.022  -1.748   0.216  0.00  0.00    +0.000 A 
ATOM     11  C   UNL     1      -1.995  -1.009  -0.460  0.00  0.00    +0.000 A 
ATOM     12 CL   UNL     1       1.815   0.939   1.012  0.00  0.00    +0.000 Cl
ENDBRANCH   1   7
BRANCH   3  13
ATOM     13  C   UNL     1      -0.496   4.758   0.346  0.00  0.00    +0.000 A 
ATOM     14  C   UNL     1       0.468   5.242  -0.552  0.00  0.00    +0.000 A 
ATOM     15  C   UNL     1       0.721   6.613  -0.688  0.00  0.00    +0.000 A 
ATOM     16  C   UNL     1       0.016   7.535   0.077  0.00  0.00    +0.000 A 
ATOM     17  C   UNL     1      -0.938   7.084   0.981  0.00  0.00    +0.000 A 
ATOM     18  C   UNL     1      -1.187   5.712   1.116  0.00  0.00    +0.000 A 
ENDBRANCH   3  13
TORSDOF 2
