REMARK  Name = *****
REMARK  5 active torsions:
REMARK  status: ('A' for Active; 'I' for Inactive)
REMARK    1  A    between atoms: C_1  and  C_2
REMARK    2  A    between atoms: C_3  and  C_16
REMARK    3  A    between atoms: C_5  and  S_7
REMARK    4  A    between atoms: S_7  and  C_8
REMARK    5  A    between atoms: C_8  and  C_10
REMARK                            x       y       z     vdW  Elec       q    Type
REMARK                         _______ _______ _______ _____ _____    ______ ____
ROOT
ATOM      1  S   UNL     1      -2.579   2.465   1.660  0.00  0.00    +0.000 S 
ENDROOT
BRANCH   1   6
ATOM      2  C   UNL     1       1.100   0.793  -1.497  0.00  0.00    +0.000 C 
ATOM      3  C   UNL     1       0.095   0.582  -0.421  0.00  0.00    +0.000 A 
ATOM      4  C   UNL     1      -0.185  -0.605   0.236  0.00  0.00    +0.000 A 
ATOM      5  S   UNL     1      -1.414  -0.343   1.405  0.00  0.00    +0.000 S 
ATOM      6  C   UNL     1      -1.494   1.301   0.941  0.00  0.00    +0.000 A 
ATOM      7  N   UNL     1      -0.662   1.668  -0.007  0.00  0.00    +0.000 NA
ATOM      8  C   UNL     1       0.402  -1.960   0.058  0.00  0.00    +0.000 C 
ENDBRANCH   1   6
BRANCH   1   9
ATOM      9  C   UNL     1      -4.044   1.839   0.924  0.00  0.00    +0.000 C 
ATOM     10  O   UNL     1      -4.802   1.134   1.580  0.00  0.00    +0.000 OA
BRANCH   9  11
ATOM     11  C   UNL     1      -4.371   2.194  -0.493  0.00  0.00    +0.000 A 
ATOM     12  C   UNL     1      -3.596   3.051  -1.287  0.00  0.00    +0.000 A 
ATOM     13  C   UNL     1      -3.971   3.327  -2.605  0.00  0.00    +0.000 A 
ATOM     14  C   UNL     1      -5.123   2.756  -3.143  0.00  0.00    +0.000 A 
ATOM     15  C   UNL     1      -5.904   1.906  -2.364  0.00  0.00    +0.000 A 
ATOM     16  C   UNL     1      -5.531   1.627  -1.048  0.00  0.00    +0.000 A 
ENDBRANCH   9  11
ENDBRANCH   1   9
TORSDOF 3
