REMARK  Name = *****
REMARK  4 active torsions:
REMARK  status: ('A' for Active; 'I' for Inactive)
REMARK    1  A    between atoms: C_5  and  C_7
REMARK    2  A    between atoms: C_7  and  C_8
REMARK    3  A    between atoms: C_8  and  C_10
REMARK    4  A    between atoms: C_10  and  C_11
REMARK                            x       y       z     vdW  Elec       q    Type
REMARK                         _______ _______ _______ _____ _____    ______ ____
ROOT
ATOM      1  C   UNL     1       2.497  -2.262   0.448  0.00  0.00    +0.000 C 
ATOM      2  O   UNL     1       2.784  -1.304   1.173  0.00  0.00    +0.000 OA
ENDROOT
BRANCH   1   3
ATOM      3  C   UNL     1       1.071  -2.495  -0.010  0.00  0.00    +0.000 C 
BRANCH   3   8
ATOM      4  C   UNL     1       0.782  -0.398  -3.179  0.00  0.00    +0.000 A 
ATOM      5  C   UNL     1       0.471  -1.370  -4.130  0.00  0.00    +0.000 A 
ATOM      6  C   UNL     1       0.349  -2.703  -3.744  0.00  0.00    +0.000 A 
ATOM      7  C   UNL     1       0.540  -3.055  -2.411  0.00  0.00    +0.000 A 
ATOM      8  C   UNL     1       0.857  -2.097  -1.445  0.00  0.00    +0.000 A 
ATOM      9  C   UNL     1       0.974  -0.757  -1.843  0.00  0.00    +0.000 A 
ATOM     10  F   UNL     1       0.419  -4.342  -2.060  0.00  0.00    +0.000 F 
ENDBRANCH   3   8
ENDBRANCH   1   3
BRANCH   1  11
ATOM     11  C   UNL     1       3.559  -3.242  -0.007  0.00  0.00    +0.000 C 
BRANCH  11  12
ATOM     12  C   UNL     1       3.531  -4.524   0.777  0.00  0.00    +0.000 A 
ATOM     13  C   UNL     1       3.889  -4.542   2.133  0.00  0.00    +0.000 A 
ATOM     14  C   UNL     1       3.849  -5.736   2.858  0.00  0.00    +0.000 A 
ATOM     15  C   UNL     1       3.453  -6.921   2.239  0.00  0.00    +0.000 A 
ATOM     16  C   UNL     1       3.095  -6.913   0.892  0.00  0.00    +0.000 A 
ATOM     17  C   UNL     1       3.137  -5.721   0.175  0.00  0.00    +0.000 A 
ATOM     18  F   UNL     1       2.787  -5.733  -1.119  0.00  0.00    +0.000 F 
ENDBRANCH  11  12
ENDBRANCH   1  11
TORSDOF 4
