REMARK  Name = *****
REMARK  4 active torsions:
REMARK  status: ('A' for Active; 'I' for Inactive)
REMARK    1  A    between atoms: C_1  and  C_2
REMARK    2  A    between atoms: C_7  and  C_8
REMARK    3  A    between atoms: C_8  and  C_9
REMARK    4  A    between atoms: C_9  and  C_10
REMARK                            x       y       z     vdW  Elec       q    Type
REMARK                         _______ _______ _______ _____ _____    ______ ____
ROOT
ATOM      1  C   UNL     1       0.938  -2.490   0.081  0.00  0.00    +0.000 C 
ENDROOT
BRANCH   1   8
ATOM      2  C   UNL     1       0.131  -0.623   2.347  0.00  0.00    +0.000 C 
ATOM      3  C   UNL     1       0.050  -0.216   0.901  0.00  0.00    +0.000 A 
ATOM      4  C   UNL     1      -0.406   1.078   0.595  0.00  0.00    +0.000 A 
ATOM      5  C   UNL     1      -0.514   1.510  -0.727  0.00  0.00    +0.000 A 
ATOM      6  C   UNL     1      -0.171   0.653  -1.765  0.00  0.00    +0.000 A 
ATOM      7  C   UNL     1       0.285  -0.633  -1.479  0.00  0.00    +0.000 A 
ATOM      8  C   UNL     1       0.412  -1.083  -0.151  0.00  0.00    +0.000 A 
ENDBRANCH   1   8
BRANCH   1   9
ATOM      9  C   UNL     1       2.435  -2.642  -0.249  0.00  0.00    +0.000 C 
ATOM     10 CL   UNL     1       2.843  -4.391  -0.399  0.00  0.00    +0.000 Cl
BRANCH   9  11
ATOM     11  C   UNL     1       3.353  -1.977   0.761  0.00  0.00    +0.000 A 
ATOM     12  C   UNL     1       3.548  -2.499   2.050  0.00  0.00    +0.000 A 
ATOM     13  C   UNL     1       4.379  -1.850   2.966  0.00  0.00    +0.000 A 
ATOM     14  C   UNL     1       5.020  -0.666   2.609  0.00  0.00    +0.000 A 
ATOM     15  C   UNL     1       4.830  -0.129   1.338  0.00  0.00    +0.000 A 
ATOM     16  C   UNL     1       4.001  -0.778   0.421  0.00  0.00    +0.000 A 
ENDBRANCH   9  11
ENDBRANCH   1   9
TORSDOF 3
