REMARK  Name = *****
REMARK  5 active torsions:
REMARK  status: ('A' for Active; 'I' for Inactive)
REMARK    1  A    between atoms: C_1  and  C_2
REMARK    2  A    between atoms: C_5  and  C_8
REMARK    3  A    between atoms: C_8  and  N_9
REMARK    4  A    between atoms: N_9  and  C_10
REMARK    5  A    between atoms: N_9  and  C_11
REMARK                            x       y       z     vdW  Elec       q    Type
REMARK                         _______ _______ _______ _____ _____    ______ ____
ROOT
ATOM      1  C   UNL     1      -3.196   0.561   0.671  0.00  0.00    +0.000 C 
ENDROOT
BRANCH   1   6
ATOM      2  C   UNL     1       2.472  -0.292  -0.423  0.00  0.00    +0.000 C 
ATOM      3  C   UNL     1       1.020  -0.041  -0.147  0.00  0.00    +0.000 A 
ATOM      4  C   UNL     1       0.578   0.202   1.159  0.00  0.00    +0.000 A 
ATOM      5  C   UNL     1      -0.779   0.405   1.424  0.00  0.00    +0.000 A 
ATOM      6  C   UNL     1      -1.720   0.363   0.387  0.00  0.00    +0.000 A 
ATOM      7  C   UNL     1      -1.277   0.098  -0.916  0.00  0.00    +0.000 A 
ATOM      8  C   UNL     1       0.079  -0.105  -1.181  0.00  0.00    +0.000 A 
ENDBRANCH   1   6
BRANCH   1   9
ATOM      9  N   UNL     1      -3.770   1.628  -0.165  0.00  0.00    +0.000 N 
ATOM     10  C   UNL     1      -3.299   2.984   0.148  0.00  0.00    +0.000 C 
BRANCH   9  11
ATOM     11  C   UNL     1      -5.166   1.600  -0.361  0.00  0.00    +0.000 A 
ATOM     12  C   UNL     1      -6.064   0.982   0.522  0.00  0.00    +0.000 A 
ATOM     13  C   UNL     1      -7.443   0.989   0.279  0.00  0.00    +0.000 A 
ATOM     14  C   UNL     1      -7.951   1.613  -0.856  0.00  0.00    +0.000 A 
ATOM     15  C   UNL     1      -7.080   2.229  -1.749  0.00  0.00    +0.000 A 
ATOM     16  C   UNL     1      -5.705   2.220  -1.501  0.00  0.00    +0.000 A 
ENDBRANCH   9  11
ENDBRANCH   1   9
TORSDOF 3
