REMARK  Name = *****
REMARK  3 active torsions:
REMARK  status: ('A' for Active; 'I' for Inactive)
REMARK    1  A    between atoms: C_6  and  C_7
REMARK    2  A    between atoms: N_9  and  C_10
REMARK    3  A    between atoms: N_9  and  O_17
REMARK                            x       y       z     vdW  Elec       q    Type
REMARK                         _______ _______ _______ _____ _____    ______ ____
ROOT
ATOM      1  C   UNL     1       3.898   0.064  -0.058  0.00  0.00    +0.000 C 
ATOM      2  O   UNL     1       2.678  -0.078  -0.013  0.00  0.00    +0.000 OA
ATOM      3  N   UNL     1       4.591   1.268   0.040  0.00  0.00    +0.000 N 
ENDROOT
BRANCH   1   9
ATOM      4  C   UNL     1       4.361  -2.282   0.613  0.00  0.00    +0.000 A 
ATOM      5  C   UNL     1       5.062  -3.484   0.487  0.00  0.00    +0.000 A 
ATOM      6  C   UNL     1       6.081  -3.595  -0.459  0.00  0.00    +0.000 A 
ATOM      7  C   UNL     1       6.400  -2.518  -1.286  0.00  0.00    +0.000 A 
ATOM      8  C   UNL     1       5.699  -1.315  -1.163  0.00  0.00    +0.000 A 
ATOM      9  C   UNL     1       4.692  -1.188  -0.197  0.00  0.00    +0.000 A 
ATOM     10 CL   UNL     1       6.944  -5.074  -0.613  0.00  0.00    +0.000 Cl
ENDBRANCH   1   9
BRANCH   3  11
ATOM     11  C   UNL     1       4.054   2.587   0.025  0.00  0.00    +0.000 A 
ATOM     12  C   UNL     1       2.677   2.840  -0.046  0.00  0.00    +0.000 A 
ATOM     13  C   UNL     1       2.179   4.151  -0.055  0.00  0.00    +0.000 A 
ATOM     14  C   UNL     1       3.055   5.228   0.002  0.00  0.00    +0.000 A 
ATOM     15  C   UNL     1       4.426   5.007   0.067  0.00  0.00    +0.000 A 
ATOM     16  C   UNL     1       4.919   3.696   0.077  0.00  0.00    +0.000 A 
ATOM     17 CL   UNL     1       2.445   6.835  -0.009  0.00  0.00    +0.000 Cl
ENDBRANCH   3  11
BRANCH   3  18
ATOM     18  O   UNL     1       6.001   1.203   0.145  0.00  0.00    +0.000 OA
ATOM     19  H   UNL     1       6.283   0.275   0.149  0.00  0.00    +0.000 HD
ENDBRANCH   3  18
TORSDOF 3
