REMARK  Name = *****
REMARK  5 active torsions:
REMARK  status: ('A' for Active; 'I' for Inactive)
REMARK    1  A    between atoms: C_1  and  C_2
REMARK    2  A    between atoms: C_4  and  C_9
REMARK    3  A    between atoms: C_7  and  C_8
REMARK    4  A    between atoms: C_9  and  C_10
REMARK    5  A    between atoms: C_10  and  C_11
REMARK                            x       y       z     vdW  Elec       q    Type
REMARK                         _______ _______ _______ _____ _____    ______ ____
ROOT
ATOM      1  C   UNL     1       5.451  -1.571   0.812  0.00  0.00    +0.000 C 
ENDROOT
BRANCH   1   5
ATOM      2  C   UNL     1       0.980   0.032  -0.229  0.00  0.00    +0.000 C 
ATOM      3  C   UNL     1       2.469  -0.004   0.082  0.00  0.00    +0.000 C 
ATOM      4  C   UNL     1       2.875  -1.263   0.857  0.00  0.00    +0.000 C 
ATOM      5  C   UNL     1       4.232  -0.950   1.496  0.00  0.00    +0.000 C 
ATOM      6  C   UNL     1       4.262   0.566   1.496  0.00  0.00    +0.000 C 
ATOM      7  O   UNL     1       5.192   1.229   1.939  0.00  0.00    +0.000 OA
ATOM      8  C   UNL     1       2.997   1.170   0.923  0.00  0.00    +0.000 C 
ATOM      9  C   UNL     1       2.098   1.633   2.060  0.00  0.00    +0.000 C 
ENDBRANCH   1   5
BRANCH   1  10
ATOM     10  C   UNL     1       5.639  -1.204  -0.663  0.00  0.00    +0.000 C 
BRANCH  10  11
ATOM     11  C   UNL     1       6.875  -1.858  -1.235  0.00  0.00    +0.000 A 
ATOM     12  C   UNL     1       6.792  -3.113  -1.855  0.00  0.00    +0.000 A 
ATOM     13  C   UNL     1       7.939  -3.730  -2.359  0.00  0.00    +0.000 A 
ATOM     14  C   UNL     1       9.174  -3.096  -2.242  0.00  0.00    +0.000 A 
ATOM     15  C   UNL     1       9.272  -1.851  -1.625  0.00  0.00    +0.000 A 
ATOM     16  C   UNL     1       8.125  -1.234  -1.120  0.00  0.00    +0.000 A 
ATOM     17 CL   UNL     1      10.587  -3.858  -2.861  0.00  0.00    +0.000 Cl
ENDBRANCH  10  11
ENDBRANCH   1  10
TORSDOF 3
