REMARK  Name = *****
REMARK  4 active torsions:
REMARK  status: ('A' for Active; 'I' for Inactive)
REMARK    1  A    between atoms: C_1  and  C_2
REMARK    2  A    between atoms: C_7  and  C_8
REMARK    3  A    between atoms: C_9  and  C_10
REMARK    4  A    between atoms: C_13  and  C_16
REMARK                            x       y       z     vdW  Elec       q    Type
REMARK                         _______ _______ _______ _____ _____    ______ ____
ROOT
ATOM      1  C   UNL     1       1.068  -2.434  -0.187  0.00  0.00    +0.000 C 
ATOM      2  C   UNL     1       2.374  -2.633   0.050  0.00  0.00    +0.000 C 
ENDROOT
BRANCH   1   9
ATOM      3  C   UNL     1      -1.312  -1.887   1.498  0.00  0.00    +0.000 C 
ATOM      4  C   UNL     1      -0.688  -0.833   0.624  0.00  0.00    +0.000 A 
ATOM      5  C   UNL     1      -1.262   0.449   0.588  0.00  0.00    +0.000 A 
ATOM      6  C   UNL     1      -0.717   1.455  -0.211  0.00  0.00    +0.000 A 
ATOM      7  C   UNL     1       0.405   1.191  -0.989  0.00  0.00    +0.000 A 
ATOM      8  C   UNL     1       0.983  -0.078  -0.968  0.00  0.00    +0.000 A 
ATOM      9  C   UNL     1       0.452  -1.098  -0.162  0.00  0.00    +0.000 A 
ENDBRANCH   1   9
BRANCH   2  10
ATOM     10  C   UNL     1       3.017  -3.955   0.053  0.00  0.00    +0.000 A 
ATOM     11  C   UNL     1       2.653  -4.966  -0.848  0.00  0.00    +0.000 A 
ATOM     12  C   UNL     1       3.308  -6.201  -0.834  0.00  0.00    +0.000 A 
ATOM     13  C   UNL     1       4.341  -6.428   0.077  0.00  0.00    +0.000 A 
ATOM     14  C   UNL     1       4.727  -5.426   0.969  0.00  0.00    +0.000 A 
ATOM     15  C   UNL     1       4.068  -4.193   0.950  0.00  0.00    +0.000 A 
BRANCH  13  16
ATOM     16  C   UNL     1       5.040  -7.729   0.100  0.00  0.00    +0.000 C 
ATOM     17  O   UNL     1       4.745  -8.642  -0.660  0.00  0.00    +0.000 OA
ENDBRANCH  13  16
ENDBRANCH   2  10
TORSDOF 3
