REMARK  Name = *****
REMARK  2 active torsions:
REMARK  status: ('A' for Active; 'I' for Inactive)
REMARK    1  A    between atoms: C_1  and  C_2
REMARK    2  A    between atoms: C_4  and  C_8
REMARK                            x       y       z     vdW  Elec       q    Type
REMARK                         _______ _______ _______ _____ _____    ______ ____
ROOT
ATOM      1  C   UNL     1      -1.923   2.489   0.136  0.00  0.00    +0.000 A 
ATOM      2  N   UNL     1      -3.234   2.649   0.202  0.00  0.00    +0.000 NA
ATOM      3  C   UNL     1      -3.399   4.009   0.257  0.00  0.00    +0.000 A 
ATOM      4  C   UNL     1      -2.162   4.632   0.218  0.00  0.00    +0.000 A 
ATOM      5  O   UNL     1      -1.208   3.662   0.140  0.00  0.00    +0.000 OA
ATOM      6  C   UNL     1      -1.965   6.006   0.256  0.00  0.00    +0.000 A 
ATOM      7  C   UNL     1      -3.129   6.781   0.343  0.00  0.00    +0.000 A 
ATOM      8  C   UNL     1      -4.396   6.183   0.385  0.00  0.00    +0.000 A 
ATOM      9  C   UNL     1      -4.556   4.792   0.343  0.00  0.00    +0.000 A 
ATOM     10 CL   UNL     1      -5.794   7.184   0.494  0.00  0.00    +0.000 Cl
ENDROOT
BRANCH   1  14
ATOM     11  C   UNL     1       2.474   0.046  -0.059  0.00  0.00    +0.000 C 
ATOM     12  C   UNL     1       0.974   0.044  -0.030  0.00  0.00    +0.000 A 
ATOM     13  C   UNL     1       0.253   1.246   0.031  0.00  0.00    +0.000 A 
ATOM     14  C   UNL     1      -1.152   1.249   0.066  0.00  0.00    +0.000 A 
ATOM     15  C   UNL     1      -1.824   0.019   0.036  0.00  0.00    +0.000 A 
ATOM     16  C   UNL     1      -1.116  -1.182  -0.025  0.00  0.00    +0.000 A 
ATOM     17  C   UNL     1       0.278  -1.169  -0.057  0.00  0.00    +0.000 A 
ENDBRANCH   1  14
TORSDOF 1
