REMARK  Name = *****
REMARK  4 active torsions:
REMARK  status: ('A' for Active; 'I' for Inactive)
REMARK    1  A    between atoms: C_1  and  C_2
REMARK    2  A    between atoms: C_5  and  S_8
REMARK    3  A    between atoms: S_8  and  N_10
REMARK    4  A    between atoms: N_10  and  C_11
REMARK                            x       y       z     vdW  Elec       q    Type
REMARK                         _______ _______ _______ _____ _____    ______ ____
ROOT
ATOM      1  S   UNL     1      -3.740  -0.514   0.023  0.00  0.00    +0.000 S 
ATOM      2  O   UNL     1      -4.192  -1.022   1.358  0.00  0.00    +0.000 OA
ENDROOT
BRANCH   1   7
ATOM      3  C   UNL     1       2.245   0.675   0.458  0.00  0.00    +0.000 C 
ATOM      4  C   UNL     1       0.771   0.412   0.352  0.00  0.00    +0.000 A 
ATOM      5  C   UNL     1       0.169   0.231  -0.900  0.00  0.00    +0.000 A 
ATOM      6  C   UNL     1      -1.196  -0.050  -0.994  0.00  0.00    +0.000 A 
ATOM      7  C   UNL     1      -1.974  -0.162   0.164  0.00  0.00    +0.000 A 
ATOM      8  C   UNL     1      -1.372  -0.002   1.415  0.00  0.00    +0.000 A 
ATOM      9  C   UNL     1      -0.007   0.280   1.508  0.00  0.00    +0.000 A 
ENDBRANCH   1   7
BRANCH   1  10
ATOM     10  N   UNL     1      -4.152   1.090  -0.157  0.00  0.00    +0.000 N 
ATOM     11  H   UNL     1      -3.419   1.734  -0.288  0.00  0.00    +0.000 HD
BRANCH  10  12
ATOM     12  C   UNL     1      -5.465   1.597  -0.137  0.00  0.00    +0.000 A 
ATOM     13  C   UNL     1      -6.588   0.852   0.248  0.00  0.00    +0.000 A 
ATOM     14  C   UNL     1      -7.857   1.436   0.276  0.00  0.00    +0.000 A 
ATOM     15  C   UNL     1      -8.032   2.775  -0.062  0.00  0.00    +0.000 A 
ATOM     16  C   UNL     1      -6.927   3.539  -0.421  0.00  0.00    +0.000 A 
ATOM     17  C   UNL     1      -5.657   2.955  -0.450  0.00  0.00    +0.000 A 
ATOM     18 CL   UNL     1      -9.222   0.492   0.736  0.00  0.00    +0.000 Cl
ENDBRANCH  10  12
ENDBRANCH   1  10
TORSDOF 3
