REMARK  Name = *****
REMARK  4 active torsions:
REMARK  status: ('A' for Active; 'I' for Inactive)
REMARK    1  A    between atoms: C_1  and  C_2
REMARK    2  A    between atoms: C_2  and  C_4
REMARK    3  A    between atoms: C_7  and  C_10
REMARK    4  A    between atoms: C_11  and  C_12
REMARK                            x       y       z     vdW  Elec       q    Type
REMARK                         _______ _______ _______ _____ _____    ______ ____
ROOT
ATOM      1  C   UNL     1       3.305  -0.382   1.260  0.00  0.00    +0.000 A 
ATOM      2  C   UNL     1       2.849  -1.436   2.057  0.00  0.00    +0.000 A 
ATOM      3  C   UNL     1       3.576  -1.828   3.188  0.00  0.00    +0.000 A 
ATOM      4  C   UNL     1       4.772  -1.187   3.535  0.00  0.00    +0.000 A 
ATOM      5  C   UNL     1       5.218  -0.126   2.737  0.00  0.00    +0.000 A 
ATOM      6  C   UNL     1       4.494   0.271   1.607  0.00  0.00    +0.000 A 
ENDROOT
BRANCH   1   8
ATOM      7  C   UNL     1       1.287  -0.622  -0.337  0.00  0.00    +0.000 C 
ATOM      8  C   UNL     1       2.558   0.086   0.054  0.00  0.00    +0.000 C 
ATOM      9  O   UNL     1       2.982   1.038  -0.599  0.00  0.00    +0.000 OA
ENDBRANCH   1   8
BRANCH   4  10
ATOM     10  C   UNL     1       5.526  -1.531   4.752  0.00  0.00    +0.000 C 
ATOM     11  C   UNL     1       5.587  -2.765   5.280  0.00  0.00    +0.000 C 
BRANCH  11  12
ATOM     12  C   UNL     1       6.298  -3.112   6.522  0.00  0.00    +0.000 A 
ATOM     13  C   UNL     1       6.445  -2.208   7.584  0.00  0.00    +0.000 A 
ATOM     14  C   UNL     1       7.072  -2.598   8.773  0.00  0.00    +0.000 A 
ATOM     15  C   UNL     1       7.545  -3.900   8.911  0.00  0.00    +0.000 A 
ATOM     16  C   UNL     1       7.397  -4.814   7.872  0.00  0.00    +0.000 A 
ATOM     17  C   UNL     1       6.773  -4.421   6.684  0.00  0.00    +0.000 A 
ATOM     18 CL   UNL     1       8.301  -4.384  10.378  0.00  0.00    +0.000 Cl
ENDBRANCH  11  12
ENDBRANCH   4  10
TORSDOF 3
