REMARK  Name = *****
REMARK  5 active torsions:
REMARK  status: ('A' for Active; 'I' for Inactive)
REMARK    1  A    between atoms: C_1  and  C_2
REMARK    2  A    between atoms: C_5  and  C_8
REMARK    3  A    between atoms: C_8  and  N_9
REMARK    4  A    between atoms: N_9  and  C_10
REMARK    5  A    between atoms: C_10  and  C_11
REMARK                            x       y       z     vdW  Elec       q    Type
REMARK                         _______ _______ _______ _____ _____    ______ ____
ROOT
ATOM      1  N   UNL     1      -3.855   1.318   0.014  0.00  0.00    +0.000 NA
ENDROOT
BRANCH   1   2
ATOM      2  C   UNL     1      -3.233   0.190  -0.023  0.00  0.00    +0.000 C 
BRANCH   2   7
ATOM      3  C   UNL     1       2.533  -0.181  -0.044  0.00  0.00    +0.000 C 
ATOM      4  C   UNL     1       1.036  -0.069  -0.041  0.00  0.00    +0.000 A 
ATOM      5  C   UNL     1       0.410   1.184  -0.023  0.00  0.00    +0.000 A 
ATOM      6  C   UNL     1      -0.983   1.277  -0.018  0.00  0.00    +0.000 A 
ATOM      7  C   UNL     1      -1.759   0.115  -0.033  0.00  0.00    +0.000 A 
ATOM      8  C   UNL     1      -1.145  -1.139  -0.054  0.00  0.00    +0.000 A 
ATOM      9  C   UNL     1       0.249  -1.228  -0.057  0.00  0.00    +0.000 A 
ENDBRANCH   2   7
ENDBRANCH   1   2
BRANCH   1  10
ATOM     10  C   UNL     1      -5.317   1.204   0.038  0.00  0.00    +0.000 C 
BRANCH  10  11
ATOM     11  C   UNL     1      -5.950   2.419   0.678  0.00  0.00    +0.000 A 
ATOM     12  C   UNL     1      -5.672   3.704   0.183  0.00  0.00    +0.000 A 
ATOM     13  C   UNL     1      -6.258   4.830   0.762  0.00  0.00    +0.000 A 
ATOM     14  C   UNL     1      -7.125   4.672   1.836  0.00  0.00    +0.000 A 
ATOM     15  C   UNL     1      -7.417   3.410   2.341  0.00  0.00    +0.000 A 
ATOM     16  C   UNL     1      -6.832   2.283   1.762  0.00  0.00    +0.000 A 
ATOM     17  F   UNL     1      -7.687   5.752   2.395  0.00  0.00    +0.000 F 
ENDBRANCH  10  11
ENDBRANCH   1  10
TORSDOF 4
