REMARK  Name = *****
REMARK  3 active torsions:
REMARK  status: ('A' for Active; 'I' for Inactive)
REMARK    1  A    between atoms: C_8  and  O_10
REMARK    2  A    between atoms: O_10  and  C_11
REMARK    3  A    between atoms: C_11  and  C_13
REMARK                            x       y       z     vdW  Elec       q    Type
REMARK                         _______ _______ _______ _____ _____    ______ ____
ROOT
ATOM      1  C   UNL     1      -1.600   0.630   0.190  0.00  0.00    +0.000 C 
ATOM      2  C   UNL     1      -0.397   1.542  -0.039  0.00  0.00    +0.000 C 
ATOM      3  C   UNL     1       0.896   0.892   0.348  0.00  0.00    +0.000 C 
ATOM      4  C   UNL     1       0.998  -0.619   0.476  0.00  0.00    +0.000 C 
ATOM      5  C   UNL     1       1.631   0.081  -0.665  0.00  0.00    +0.000 C 
ATOM      6  F   UNL     1       1.152  -0.061  -1.945  0.00  0.00    +0.000 F 
ATOM      7  F   UNL     1       3.001   0.177  -0.749  0.00  0.00    +0.000 F 
ATOM      8  C   UNL     1      -0.208  -1.488   0.277  0.00  0.00    +0.000 C 
ATOM      9  C   UNL     1      -1.369  -0.757  -0.413  0.00  0.00    +0.000 C 
ENDROOT
BRANCH   8  10
ATOM     10  O   UNL     1      -0.699  -1.894   1.574  0.00  0.00    +0.000 OA
BRANCH  10  11
ATOM     11  C   UNL     1      -0.146  -3.013   2.101  0.00  0.00    +0.000 C 
ATOM     12  O   UNL     1       0.739  -3.682   1.592  0.00  0.00    +0.000 OA
BRANCH  11  13
ATOM     13  C   UNL     1      -0.756  -3.324   3.423  0.00  0.00    +0.000 A 
ATOM     14  C   UNL     1      -0.266  -4.429   4.133  0.00  0.00    +0.000 A 
ATOM     15  C   UNL     1      -0.805  -4.760   5.378  0.00  0.00    +0.000 A 
ATOM     16  C   UNL     1      -1.835  -3.992   5.919  0.00  0.00    +0.000 A 
ATOM     17  C   UNL     1      -2.328  -2.892   5.218  0.00  0.00    +0.000 A 
ATOM     18  C   UNL     1      -1.792  -2.556   3.973  0.00  0.00    +0.000 A 
ENDBRANCH  11  13
ENDBRANCH  10  11
ENDBRANCH   8  10
TORSDOF 3
