REMARK  Name = *****
REMARK  3 active torsions:
REMARK  status: ('A' for Active; 'I' for Inactive)
REMARK    1  A    between atoms: C_3  and  O_8
REMARK    2  A    between atoms: O_8  and  C_9
REMARK    3  A    between atoms: C_9  and  C_11
REMARK                            x       y       z     vdW  Elec       q    Type
REMARK                         _______ _______ _______ _____ _____    ______ ____
ROOT
ATOM      1  C   UNL     1      -1.194   3.686   0.388  0.00  0.00    +0.000 C 
ATOM      2  O   UNL     1      -0.001   3.674   0.120  0.00  0.00    +0.000 OA
ENDROOT
BRANCH   1   3
ATOM      3  C   UNL     1      -2.019   4.911   0.246  0.00  0.00    +0.000 A 
ATOM      4  C   UNL     1      -3.297   5.042   0.793  0.00  0.00    +0.000 A 
ATOM      5  C   UNL     1      -4.015   6.223   0.623  0.00  0.00    +0.000 A 
ATOM      6  C   UNL     1      -3.464   7.281  -0.087  0.00  0.00    +0.000 A 
ATOM      7  C   UNL     1      -2.189   7.176  -0.633  0.00  0.00    +0.000 A 
ATOM      8  C   UNL     1      -1.465   5.993  -0.466  0.00  0.00    +0.000 A 
ATOM      9  F   UNL     1      -4.155   8.417  -0.250  0.00  0.00    +0.000 F 
ATOM     10  F   UNL     1      -5.242   6.339   1.151  0.00  0.00    +0.000 F 
ATOM     11  F   UNL     1      -3.859   4.055   1.506  0.00  0.00    +0.000 F 
ENDBRANCH   1   3
BRANCH   1  12
ATOM     12  O   UNL     1      -1.967   2.619   0.794  0.00  0.00    +0.000 OA
BRANCH  12  15
ATOM     13  C   UNL     1      -1.066  -0.914   0.357  0.00  0.00    +0.000 A 
ATOM     14  C   UNL     1      -1.684   0.325   0.183  0.00  0.00    +0.000 A 
ATOM     15  C   UNL     1      -1.282   1.409   0.965  0.00  0.00    +0.000 A 
ATOM     16  C   UNL     1      -0.300   1.269   1.943  0.00  0.00    +0.000 A 
ATOM     17  C   UNL     1       0.306   0.029   2.102  0.00  0.00    +0.000 A 
ATOM     18  C   UNL     1      -0.065  -1.061   1.318  0.00  0.00    +0.000 A 
ATOM     19  F   UNL     1       1.259  -0.124   3.032  0.00  0.00    +0.000 F 
ENDBRANCH  12  15
ENDBRANCH   1  12
TORSDOF 3
