REMARK  Name = *****
REMARK  2 active torsions:
REMARK  status: ('A' for Active; 'I' for Inactive)
REMARK    1  A    between atoms: C_5  and  N_7
REMARK    2  A    between atoms: C_8  and  C_9
REMARK                            x       y       z     vdW  Elec       q    Type
REMARK                         _______ _______ _______ _____ _____    ______ ____
ROOT
ATOM      1  N   UNL     1       0.255  -2.548   0.057  0.00  0.00    +0.000 NA
ATOM      2  C   UNL     1       1.499  -2.685  -0.272  0.00  0.00    +0.000 C 
ENDROOT
BRANCH   2   3
ATOM      3  C   UNL     1       2.206  -3.982  -0.235  0.00  0.00    +0.000 A 
ATOM      4  C   UNL     1       3.267  -4.195  -1.134  0.00  0.00    +0.000 A 
ATOM      5  C   UNL     1       3.982  -5.402  -1.127  0.00  0.00    +0.000 A 
ATOM      6  C   UNL     1       3.651  -6.409  -0.227  0.00  0.00    +0.000 A 
ATOM      7  C   UNL     1       2.603  -6.209   0.666  0.00  0.00    +0.000 A 
ATOM      8  C   UNL     1       1.879  -5.005   0.671  0.00  0.00    +0.000 A 
ATOM      9 CL   UNL     1       0.639  -4.900   1.873  0.00  0.00    +0.000 Cl
ATOM     10 CL   UNL     1       3.741  -3.044  -2.342  0.00  0.00    +0.000 Cl
ENDBRANCH   2   3
BRANCH   1  15
ATOM     11  C   UNL     1      -2.027   0.195  -0.889  0.00  0.00    +0.000 A 
ATOM     12  C   UNL     1      -1.511   1.289  -0.205  0.00  0.00    +0.000 A 
ATOM     13  C   UNL     1      -0.382   1.138   0.603  0.00  0.00    +0.000 A 
ATOM     14  C   UNL     1       0.249  -0.109   0.732  0.00  0.00    +0.000 A 
ATOM     15  C   UNL     1      -0.258  -1.229   0.023  0.00  0.00    +0.000 A 
ATOM     16  C   UNL     1      -1.405  -1.049  -0.769  0.00  0.00    +0.000 A 
ATOM     17  S   UNL     1       1.627  -0.158   1.790  0.00  0.00    +0.000 S 
ENDBRANCH   1  15
TORSDOF 2
