REMARK  Name = *****
REMARK  2 active torsions:
REMARK  status: ('A' for Active; 'I' for Inactive)
REMARK    1  A    between atoms: C_4  and  C_7
REMARK    2  A    between atoms: C_8  and  C_9
REMARK                            x       y       z     vdW  Elec       q    Type
REMARK                         _______ _______ _______ _____ _____    ______ ____
ROOT
ATOM      1  C   UNL     1       2.781  -0.551  -0.327  0.00  0.00    +0.000 C 
ATOM      2  C   UNL     1       3.848  -0.817   0.443  0.00  0.00    +0.000 C 
ATOM      3  F   UNL     1       3.670  -0.891   1.783  0.00  0.00    +0.000 F 
ENDROOT
BRANCH   1   7
ATOM      4  C   UNL     1      -1.478   0.286  -0.200  0.00  0.00    +0.000 C 
ATOM      5  C   UNL     1      -1.005  -1.109   0.197  0.00  0.00    +0.000 C 
ATOM      6  C   UNL     1       0.421  -1.377  -0.281  0.00  0.00    +0.000 C 
ATOM      7  C   UNL     1       1.396  -0.298   0.216  0.00  0.00    +0.000 C 
ATOM      8  C   UNL     1       0.912   1.102  -0.193  0.00  0.00    +0.000 C 
ATOM      9  C   UNL     1      -0.515   1.365   0.284  0.00  0.00    +0.000 C 
ENDBRANCH   1   7
BRANCH   2  10
ATOM     10  C   UNL     1       5.210  -1.082  -0.052  0.00  0.00    +0.000 A 
ATOM     11  C   UNL     1       5.689  -0.586  -1.274  0.00  0.00    +0.000 A 
ATOM     12  C   UNL     1       6.996  -0.853  -1.692  0.00  0.00    +0.000 A 
ATOM     13  C   UNL     1       7.846  -1.612  -0.891  0.00  0.00    +0.000 A 
ATOM     14  C   UNL     1       7.391  -2.101   0.331  0.00  0.00    +0.000 A 
ATOM     15  C   UNL     1       6.084  -1.833   0.748  0.00  0.00    +0.000 A 
ENDBRANCH   2  10
TORSDOF 2
