REMARK  Name = *****
REMARK  3 active torsions:
REMARK  status: ('A' for Active; 'I' for Inactive)
REMARK    1  A    between atoms: C_1  and  C_2
REMARK    2  A    between atoms: C_5  and  C_8
REMARK    3  A    between atoms: C_9  and  C_10
REMARK                            x       y       z     vdW  Elec       q    Type
REMARK                         _______ _______ _______ _____ _____    ______ ____
ROOT
ATOM      1  C   UNL     1       2.471   0.080  -0.074  0.00  0.00    +0.000 C 
ATOM      2  C   UNL     1       0.971   0.086  -0.081  0.00  0.00    +0.000 A 
ATOM      3  C   UNL     1       0.261   1.042   0.653  0.00  0.00    +0.000 A 
ATOM      4  C   UNL     1      -1.138   1.027   0.672  0.00  0.00    +0.000 A 
ATOM      5  C   UNL     1      -1.850   0.056  -0.042  0.00  0.00    +0.000 A 
ATOM      6  C   UNL     1      -1.136  -0.918  -0.750  0.00  0.00    +0.000 A 
ATOM      7  C   UNL     1       0.262  -0.903  -0.770  0.00  0.00    +0.000 A 
ENDROOT
BRANCH   5   8
ATOM      8  C   UNL     1      -3.316  -0.012  -0.018  0.00  0.00    +0.000 C 
ATOM      9  C   UNL     1      -4.117   1.066  -0.081  0.00  0.00    +0.000 C 
BRANCH   9  10
ATOM     10  C   UNL     1      -5.614   0.996  -0.059  0.00  0.00    +0.000 C 
ATOM     11  S   UNL     1      -6.267   1.691  -1.607  0.00  0.00    +0.000 S 
ATOM     12  C   UNL     1      -7.459   2.825  -0.852  0.00  0.00    +0.000 C 
ATOM     13  C   UNL     1      -6.845   3.358   0.426  0.00  0.00    +0.000 C 
ATOM     14  S   UNL     1      -6.237   1.937   1.365  0.00  0.00    +0.000 S 
ENDBRANCH   9  10
ENDBRANCH   5   8
TORSDOF 2
