REMARK  Name = *****
REMARK  4 active torsions:
REMARK  status: ('A' for Active; 'I' for Inactive)
REMARK    1  A    between atoms: C_4  and  C_7
REMARK    2  A    between atoms: C_7  and  S_8
REMARK    3  A    between atoms: S_8  and  S_9
REMARK    4  A    between atoms: S_9  and  C_12
REMARK                            x       y       z     vdW  Elec       q    Type
REMARK                         _______ _______ _______ _____ _____    ______ ____
ROOT
ATOM      1  S   UNL     1      -5.710  -0.706  -0.528  0.00  0.00    +0.000 S 
ATOM      2  O   UNL     1      -6.164   0.216   0.494  0.00  0.00    +0.000 OA
ATOM      3  O   UNL     1      -5.687  -0.319  -1.924  0.00  0.00    +0.000 OA
ENDROOT
BRANCH   1   4
ATOM      4  C   UNL     1      -6.659  -2.198  -0.383  0.00  0.00    +0.000 A 
ATOM      5  C   UNL     1      -7.253  -2.522   0.841  0.00  0.00    +0.000 A 
ATOM      6  C   UNL     1      -8.015  -3.685   0.947  0.00  0.00    +0.000 A 
ATOM      7  C   UNL     1      -8.190  -4.510  -0.166  0.00  0.00    +0.000 A 
ATOM      8  C   UNL     1      -7.607  -4.175  -1.389  0.00  0.00    +0.000 A 
ATOM      9  C   UNL     1      -6.842  -3.014  -1.504  0.00  0.00    +0.000 A 
ENDBRANCH   1   4
BRANCH   1  10
ATOM     10  S   UNL     1      -3.788  -1.307  -0.016  0.00  0.00    +0.000 S 
BRANCH  10  11
ATOM     11  C   UNL     1      -2.939   0.283  -0.148  0.00  0.00    +0.000 C 
BRANCH  11  15
ATOM     12  C   UNL     1       1.252  -0.100   0.793  0.00  0.00    +0.000 A 
ATOM     13  C   UNL     1       0.819  -0.235  -0.524  0.00  0.00    +0.000 A 
ATOM     14  C   UNL     1      -0.537  -0.109  -0.831  0.00  0.00    +0.000 A 
ATOM     15  C   UNL     1      -1.473   0.160   0.179  0.00  0.00    +0.000 A 
ATOM     16  C   UNL     1      -1.025   0.286   1.503  0.00  0.00    +0.000 A 
ATOM     17  C   UNL     1       0.331   0.159   1.806  0.00  0.00    +0.000 A 
ENDBRANCH  11  15
ENDBRANCH  10  11
ENDBRANCH   1  10
TORSDOF 4
