REMARK  Name = *****
REMARK  3 active torsions:
REMARK  status: ('A' for Active; 'I' for Inactive)
REMARK    1  A    between atoms: C_4  and  C_7
REMARK    2  A    between atoms: C_7  and  N_9
REMARK    3  A    between atoms: N_9  and  C_10
REMARK                            x       y       z     vdW  Elec       q    Type
REMARK                         _______ _______ _______ _____ _____    ______ ____
ROOT
ATOM      1  N   UNL     1      -3.626  -0.149  -0.637  0.00  0.00    +0.000 N 
ATOM      2  H   UNL     1      -3.316  -0.974  -0.198  0.00  0.00    +0.000 HD
ENDROOT
BRANCH   1   3
ATOM      3  C   UNL     1      -4.988  -0.187  -1.016  0.00  0.00    +0.000 A 
ATOM      4  C   UNL     1      -5.623   0.730  -1.853  0.00  0.00    +0.000 A 
ATOM      5  C   UNL     1      -6.979   0.585  -2.178  0.00  0.00    +0.000 A 
ATOM      6  C   UNL     1      -7.708  -0.487  -1.673  0.00  0.00    +0.000 A 
ATOM      7  C   UNL     1      -7.090  -1.420  -0.850  0.00  0.00    +0.000 A 
ATOM      8  C   UNL     1      -5.736  -1.272  -0.529  0.00  0.00    +0.000 A 
ATOM      9 CL   UNL     1      -9.370  -0.663  -2.075  0.00  0.00    +0.000 Cl
ENDBRANCH   1   3
BRANCH   1  10
ATOM     10  C   UNL     1      -2.638   0.821  -0.760  0.00  0.00    +0.000 C 
ATOM     11  S   UNL     1      -2.773   2.417  -1.255  0.00  0.00    +0.000 S 
BRANCH  10  15
ATOM     12  C   UNL     1       1.140  -0.754   0.489  0.00  0.00    +0.000 A 
ATOM     13  C   UNL     1       0.561   0.296   1.204  0.00  0.00    +0.000 A 
ATOM     14  C   UNL     1      -0.666   0.823   0.800  0.00  0.00    +0.000 A 
ATOM     15  C   UNL     1      -1.308   0.298  -0.328  0.00  0.00    +0.000 A 
ATOM     16  C   UNL     1      -0.729  -0.759  -1.043  0.00  0.00    +0.000 A 
ATOM     17  C   UNL     1       0.498  -1.281  -0.633  0.00  0.00    +0.000 A 
ENDBRANCH  10  15
ENDBRANCH   1  10
TORSDOF 3
