REMARK  Name = *****
REMARK  4 active torsions:
REMARK  status: ('A' for Active; 'I' for Inactive)
REMARK    1  A    between atoms: C_4  and  O_7
REMARK    2  A    between atoms: O_7  and  C_8
REMARK    3  A    between atoms: C_8  and  C_9
REMARK    4  A    between atoms: C_12  and  C_15
REMARK                            x       y       z     vdW  Elec       q    Type
REMARK                         _______ _______ _______ _____ _____    ______ ____
ROOT
ATOM      1  C   UNL     1      -3.620  -0.697  -0.334  0.00  0.00    +0.000 C 
ENDROOT
BRANCH   1   2
ATOM      2  C   UNL     1      -5.026  -0.163  -0.456  0.00  0.00    +0.000 A 
ATOM      3  C   UNL     1      -5.533   0.226  -1.703  0.00  0.00    +0.000 A 
ATOM      4  C   UNL     1      -6.836   0.718  -1.818  0.00  0.00    +0.000 A 
ATOM      5  C   UNL     1      -7.651   0.847  -0.685  0.00  0.00    +0.000 A 
ATOM      6  C   UNL     1      -7.139   0.467   0.563  0.00  0.00    +0.000 A 
ATOM      7  C   UNL     1      -5.837  -0.025   0.678  0.00  0.00    +0.000 A 
BRANCH   5   8
ATOM      8  C   UNL     1      -9.058   1.359  -0.811  0.00  0.00    +0.000 C 
ATOM      9 CL   UNL     1     -10.187   0.018  -1.085  0.00  0.00    +0.000 Cl
ENDBRANCH   5   8
ENDBRANCH   1   2
BRANCH   1  10
ATOM     10  O   UNL     1      -2.740   0.402  -0.115  0.00  0.00    +0.000 OA
BRANCH  10  14
ATOM     11  C   UNL     1       1.363  -0.190   0.293  0.00  0.00    +0.000 A 
ATOM     12  C   UNL     1       0.553  -1.305   0.086  0.00  0.00    +0.000 A 
ATOM     13  C   UNL     1      -0.831  -1.155  -0.056  0.00  0.00    +0.000 A 
ATOM     14  C   UNL     1      -1.409   0.114   0.008  0.00  0.00    +0.000 A 
ATOM     15  C   UNL     1      -0.589   1.227   0.216  0.00  0.00    +0.000 A 
ATOM     16  C   UNL     1       0.792   1.078   0.358  0.00  0.00    +0.000 A 
ENDBRANCH  10  14
ENDBRANCH   1  10
TORSDOF 4
