REMARK  Name = *****
REMARK  4 active torsions:
REMARK  status: ('A' for Active; 'I' for Inactive)
REMARK    1  A    between atoms: C_6  and  C_7
REMARK    2  A    between atoms: C_7  and  C_8
REMARK    3  A    between atoms: C_8  and  C_9
REMARK    4  A    between atoms: C_9  and  C_11
REMARK                            x       y       z     vdW  Elec       q    Type
REMARK                         _______ _______ _______ _____ _____    ______ ____
ROOT
ATOM      1  C   UNL     1      -5.519   1.444   0.017  0.00  0.00    +0.000 C 
ATOM      2  O   UNL     1      -6.183   0.412  -0.033  0.00  0.00    +0.000 OA
ENDROOT
BRANCH   1   3
ATOM      3  C   UNL     1      -6.229   2.758   0.077  0.00  0.00    +0.000 A 
ATOM      4  C   UNL     1      -5.545   3.978   0.108  0.00  0.00    +0.000 A 
ATOM      5  C   UNL     1      -6.267   5.169   0.165  0.00  0.00    +0.000 A 
ATOM      6  C   UNL     1      -7.654   5.175   0.191  0.00  0.00    +0.000 A 
ATOM      7  C   UNL     1      -8.324   3.962   0.159  0.00  0.00    +0.000 A 
ATOM      8  C   UNL     1      -7.630   2.757   0.102  0.00  0.00    +0.000 A 
ATOM      9  F   UNL     1      -9.663   3.950   0.184  0.00  0.00    +0.000 F 
ATOM     10  F   UNL     1      -5.604   6.332   0.195  0.00  0.00    +0.000 F 
ENDBRANCH   1   3
BRANCH   1  11
ATOM     11  C   UNL     1      -4.001   1.434   0.021  0.00  0.00    +0.000 C 
BRANCH  11  12
ATOM     12  C   UNL     1      -3.447   0.010  -0.006  0.00  0.00    +0.000 C 
BRANCH  12  18
ATOM     13  C   UNL     1      -1.220   0.020  -1.202  0.00  0.00    +0.000 A 
ATOM     14  C   UNL     1       0.175   0.042  -1.192  0.00  0.00    +0.000 A 
ATOM     15  C   UNL     1       0.852   0.057   0.022  0.00  0.00    +0.000 A 
ATOM     16  C   UNL     1       0.159   0.050   1.227  0.00  0.00    +0.000 A 
ATOM     17  C   UNL     1      -1.236   0.028   1.219  0.00  0.00    +0.000 A 
ATOM     18  C   UNL     1      -1.937   0.009   0.004  0.00  0.00    +0.000 A 
ATOM     19  F   UNL     1       2.191   0.079   0.031  0.00  0.00    +0.000 F 
ENDBRANCH  12  18
ENDBRANCH  11  12
ENDBRANCH   1  11
TORSDOF 4
