REMARK  Name = *****
REMARK  1 active torsions:
REMARK  status: ('A' for Active; 'I' for Inactive)
REMARK    1  A    between atoms: C_3  and  C_11
REMARK                            x       y       z     vdW  Elec       q    Type
REMARK                         _______ _______ _______ _____ _____    ______ ____
ROOT
ATOM      1  C   UNL     1       1.212   1.478   0.365  0.00  0.00    +0.000 C 
ATOM      2  C   UNL     1       2.442   0.765  -0.211  0.00  0.00    +0.000 C 
ATOM      3  C   UNL     1       2.421  -0.728   0.025  0.00  0.00    +0.000 C 
ATOM      4  C   UNL     1       1.255  -1.393   0.131  0.00  0.00    +0.000 C 
ATOM      5  C   UNL     1      -0.028  -0.685   0.030  0.00  0.00    +0.000 A 
ATOM      6  C   UNL     1      -1.220  -1.399  -0.134  0.00  0.00    +0.000 A 
ATOM      7  C   UNL     1      -2.439  -0.724  -0.216  0.00  0.00    +0.000 A 
ATOM      8  C   UNL     1      -2.476   0.667  -0.123  0.00  0.00    +0.000 A 
ATOM      9  C   UNL     1      -1.294   1.387   0.049  0.00  0.00    +0.000 A 
ATOM     10  C   UNL     1      -0.065   0.717   0.116  0.00  0.00    +0.000 A 
ENDROOT
BRANCH   3  11
ATOM     11  C   UNL     1       3.714  -1.441   0.091  0.00  0.00    +0.000 A 
ATOM     12  C   UNL     1       4.736  -1.154  -0.825  0.00  0.00    +0.000 A 
ATOM     13  C   UNL     1       5.966  -1.815  -0.756  0.00  0.00    +0.000 A 
ATOM     14  C   UNL     1       6.191  -2.770   0.232  0.00  0.00    +0.000 A 
ATOM     15  C   UNL     1       5.188  -3.063   1.153  0.00  0.00    +0.000 A 
ATOM     16  C   UNL     1       3.959  -2.402   1.084  0.00  0.00    +0.000 A 
ENDBRANCH   3  11
TORSDOF 1
