REMARK  Name = *****
REMARK  5 active torsions:
REMARK  status: ('A' for Active; 'I' for Inactive)
REMARK    1  A    between atoms: C_1  and  C_2
REMARK    2  A    between atoms: C_4  and  C_16
REMARK    3  A    between atoms: C_5  and  C_8
REMARK    4  A    between atoms: C_9  and  C_10
REMARK    5  A    between atoms: C_16  and  C_18
REMARK                            x       y       z     vdW  Elec       q    Type
REMARK                         _______ _______ _______ _____ _____    ______ ____
ROOT
ATOM      1  C   UNL     1       2.491   0.103   0.001  0.00  0.00    +0.000 C 
ATOM      2  C   UNL     1       0.992   0.076  -0.058  0.00  0.00    +0.000 A 
ATOM      3  C   UNL     1       0.247   1.190   0.343  0.00  0.00    +0.000 A 
ATOM      4  C   UNL     1      -1.157   1.161   0.318  0.00  0.00    +0.000 A 
ATOM      5  C   UNL     1      -1.835  -0.009  -0.064  0.00  0.00    +0.000 A 
ATOM      6  C   UNL     1      -1.081  -1.124  -0.458  0.00  0.00    +0.000 A 
ATOM      7  C   UNL     1       0.316  -1.083  -0.453  0.00  0.00    +0.000 A 
ENDROOT
BRANCH   4   8
ATOM      8  C   UNL     1      -1.852   2.410   0.718  0.00  0.00    +0.000 C 
ATOM      9  O   UNL     1      -1.499   2.994   1.741  0.00  0.00    +0.000 OA
ATOM     10  C   UNL     1      -2.927   2.961  -0.181  0.00  0.00    +0.000 C 
ENDBRANCH   4   8
BRANCH   5  11
ATOM     11  C   UNL     1      -3.294  -0.166  -0.034  0.00  0.00    +0.000 C 
ATOM     12  C   UNL     1      -3.980  -0.148   1.120  0.00  0.00    +0.000 C 
BRANCH  12  13
ATOM     13  C   UNL     1      -5.440  -0.283   1.212  0.00  0.00    +0.000 A 
ATOM     14  C   UNL     1      -6.173  -1.130   0.371  0.00  0.00    +0.000 A 
ATOM     15  C   UNL     1      -7.558  -1.247   0.512  0.00  0.00    +0.000 A 
ATOM     16  C   UNL     1      -8.223  -0.527   1.502  0.00  0.00    +0.000 A 
ATOM     17  C   UNL     1      -7.503   0.307   2.355  0.00  0.00    +0.000 A 
ATOM     18  C   UNL     1      -6.118   0.424   2.214  0.00  0.00    +0.000 A 
ENDBRANCH  12  13
ENDBRANCH   5  11
TORSDOF 3
