REMARK  Name = *****
REMARK  3 active torsions:
REMARK  status: ('A' for Active; 'I' for Inactive)
REMARK    1  A    between atoms: C_4  and  C_7
REMARK    2  A    between atoms: C_7  and  S_8
REMARK    3  A    between atoms: S_8  and  C_10
REMARK                            x       y       z     vdW  Elec       q    Type
REMARK                         _______ _______ _______ _____ _____    ______ ____
ROOT
ATOM      1  S   UNL     1      -3.724  -1.432  -0.242  0.00  0.00    +0.000 S 
ATOM      2  O   UNL     1      -3.615  -2.288   0.988  0.00  0.00    +0.000 OA
ENDROOT
BRANCH   1   3
ATOM      3  C   UNL     1      -5.432  -0.835  -0.264  0.00  0.00    +0.000 A 
ATOM      4  C   UNL     1      -5.910  -0.148  -1.385  0.00  0.00    +0.000 A 
ATOM      5  C   UNL     1      -7.226   0.311  -1.405  0.00  0.00    +0.000 A 
ATOM      6  C   UNL     1      -8.075   0.087  -0.323  0.00  0.00    +0.000 A 
ATOM      7  C   UNL     1      -7.605  -0.608   0.791  0.00  0.00    +0.000 A 
ATOM      8  C   UNL     1      -6.288  -1.069   0.819  0.00  0.00    +0.000 A 
ATOM      9 CL   UNL     1      -7.807   1.166  -2.781  0.00  0.00    +0.000 Cl
ENDBRANCH   1   3
BRANCH   1  10
ATOM     10  C   UNL     1      -2.932   0.174   0.127  0.00  0.00    +0.000 C 
BRANCH  10  14
ATOM     11  C   UNL     1       1.369  -0.119   0.018  0.00  0.00    +0.000 A 
ATOM     12  C   UNL     1       0.679   0.400  -1.075  0.00  0.00    +0.000 A 
ATOM     13  C   UNL     1      -0.714   0.498  -1.043  0.00  0.00    +0.000 A 
ATOM     14  C   UNL     1      -1.429   0.080   0.089  0.00  0.00    +0.000 A 
ATOM     15  C   UNL     1      -0.724  -0.449   1.180  0.00  0.00    +0.000 A 
ATOM     16  C   UNL     1       0.668  -0.545   1.145  0.00  0.00    +0.000 A 
ENDBRANCH  10  14
ENDBRANCH   1  10
TORSDOF 3
