REMARK  Name = *****
REMARK  3 active torsions:
REMARK  status: ('A' for Active; 'I' for Inactive)
REMARK    1  A    between atoms: C_4  and  C_7
REMARK    2  A    between atoms: C_7  and  C_9
REMARK    3  A    between atoms: C_9  and  C_10
REMARK                            x       y       z     vdW  Elec       q    Type
REMARK                         _______ _______ _______ _____ _____    ______ ____
ROOT
ATOM      1  C   UNL     1       2.657  -1.133  -1.142  0.00  0.00    +0.000 C 
ATOM      2  O   UNL     1       2.616  -0.944  -2.359  0.00  0.00    +0.000 OA
ENDROOT
BRANCH   1   6
ATOM      3  C   UNL     1      -1.068   0.544   0.364  0.00  0.00    +0.000 C 
ATOM      4  C   UNL     1      -0.648  -0.843   0.843  0.00  0.00    +0.000 C 
ATOM      5  C   UNL     1       0.432  -1.448  -0.050  0.00  0.00    +0.000 C 
ATOM      6  C   UNL     1       1.636  -0.512  -0.192  0.00  0.00    +0.000 C 
ATOM      7  C   UNL     1       1.205   0.876  -0.680  0.00  0.00    +0.000 C 
ATOM      8  C   UNL     1       0.131   1.477   0.223  0.00  0.00    +0.000 C 
ENDBRANCH   1   6
BRANCH   1   9
ATOM      9  C   UNL     1       3.717  -2.031  -0.531  0.00  0.00    +0.000 C 
BRANCH   9  10
ATOM     10  C   UNL     1       4.790  -1.254   0.189  0.00  0.00    +0.000 A 
ATOM     11  C   UNL     1       4.965  -1.390   1.574  0.00  0.00    +0.000 A 
ATOM     12  C   UNL     1       5.959  -0.663   2.234  0.00  0.00    +0.000 A 
ATOM     13  C   UNL     1       6.781   0.201   1.514  0.00  0.00    +0.000 A 
ATOM     14  C   UNL     1       6.621   0.343   0.138  0.00  0.00    +0.000 A 
ATOM     15  C   UNL     1       5.628  -0.383  -0.523  0.00  0.00    +0.000 A 
ATOM     16 CL   UNL     1       8.003   1.096   2.330  0.00  0.00    +0.000 Cl
ENDBRANCH   9  10
ENDBRANCH   1   9
TORSDOF 3
