REMARK  Name = *****
REMARK  2 active torsions:
REMARK  status: ('A' for Active; 'I' for Inactive)
REMARK    1  A    between atoms: C_1  and  C_2
REMARK    2  A    between atoms: C_4  and  C_5
REMARK                            x       y       z     vdW  Elec       q    Type
REMARK                         _______ _______ _______ _____ _____    ______ ____
ROOT
ATOM      1  C   UNL     1       0.780   0.031  -0.169  0.00  0.00    +0.000 C 
ATOM      2  C   UNL     1       2.306  -0.007  -0.125  0.00  0.00    +0.000 C 
ATOM      3  C   UNL     1       2.901   1.111   0.732  0.00  0.00    +0.000 C 
ATOM      4  C   UNL     1       2.753   2.423   0.477  0.00  0.00    +0.000 C 
ATOM      5  C   UNL     1       3.704   0.512   1.878  0.00  0.00    +0.000 C 
ATOM      6  C   UNL     1       3.608  -0.967   1.649  0.00  0.00    +0.000 A 
ATOM      7  C   UNL     1       4.191  -1.974   2.402  0.00  0.00    +0.000 A 
ATOM      8  C   UNL     1       3.981  -3.300   2.017  0.00  0.00    +0.000 A 
ATOM      9  C   UNL     1       3.199  -3.600   0.892  0.00  0.00    +0.000 A 
ATOM     10  C   UNL     1       2.615  -2.579   0.139  0.00  0.00    +0.000 A 
ATOM     11  C   UNL     1       2.821  -1.264   0.530  0.00  0.00    +0.000 A 
ENDROOT
BRANCH   4  12
ATOM     12  C   UNL     1       3.340   3.474   1.308  0.00  0.00    +0.000 A 
ATOM     13  C   UNL     1       4.627   3.949   1.038  0.00  0.00    +0.000 A 
ATOM     14  C   UNL     1       5.189   4.946   1.838  0.00  0.00    +0.000 A 
ATOM     15  C   UNL     1       4.467   5.470   2.910  0.00  0.00    +0.000 A 
ATOM     16  C   UNL     1       3.184   4.996   3.185  0.00  0.00    +0.000 A 
ATOM     17  C   UNL     1       2.621   3.999   2.386  0.00  0.00    +0.000 A 
ENDBRANCH   4  12
TORSDOF 1
