REMARK  Name = *****
REMARK  4 active torsions:
REMARK  status: ('A' for Active; 'I' for Inactive)
REMARK    1  A    between atoms: C_1  and  C_2
REMARK    2  A    between atoms: C_5  and  C_8
REMARK    3  A    between atoms: N_9  and  C_10
REMARK    4  A    between atoms: C_15  and  C_16
REMARK                            x       y       z     vdW  Elec       q    Type
REMARK                         _______ _______ _______ _____ _____    ______ ____
ROOT
ATOM      1  C   UNL     1      -3.313   0.244  -0.321  0.00  0.00    +0.000 C 
ATOM      2  N   UNL     1      -4.041   1.031   0.407  0.00  0.00    +0.000 NA
ENDROOT
BRANCH   1   7
ATOM      3  C   UNL     1       2.446   0.052   0.089  0.00  0.00    +0.000 C 
ATOM      4  C   UNL     1       0.952   0.125  -0.035  0.00  0.00    +0.000 A 
ATOM      5  C   UNL     1       0.220   1.007   0.769  0.00  0.00    +0.000 A 
ATOM      6  C   UNL     1      -1.173   1.055   0.681  0.00  0.00    +0.000 A 
ATOM      7  C   UNL     1      -1.842   0.211  -0.208  0.00  0.00    +0.000 A 
ATOM      8  C   UNL     1      -1.124  -0.683  -1.005  0.00  0.00    +0.000 A 
ATOM      9  C   UNL     1       0.270  -0.728  -0.913  0.00  0.00    +0.000 A 
ENDBRANCH   1   7
BRANCH   2  10
ATOM     10  C   UNL     1      -5.427   0.957   0.189  0.00  0.00    +0.000 A 
ATOM     11  C   UNL     1      -6.172  -0.040   0.830  0.00  0.00    +0.000 A 
ATOM     12  C   UNL     1      -7.550  -0.136   0.636  0.00  0.00    +0.000 A 
ATOM     13  C   UNL     1      -8.197   0.775  -0.196  0.00  0.00    +0.000 A 
ATOM     14  C   UNL     1      -7.468   1.785  -0.825  0.00  0.00    +0.000 A 
ATOM     15  C   UNL     1      -6.081   1.891  -0.632  0.00  0.00    +0.000 A 
ATOM     16  C   UNL     1      -5.311   2.990  -1.307  0.00  0.00    +0.000 C 
ENDBRANCH   2  10
TORSDOF 2
