REMARK  Name = *****
REMARK  4 active torsions:
REMARK  status: ('A' for Active; 'I' for Inactive)
REMARK    1  A    between atoms: C_3  and  C_17
REMARK    2  A    between atoms: C_5  and  O_7
REMARK    3  A    between atoms: O_7  and  C_8
REMARK    4  A    between atoms: C_8  and  C_9
REMARK                            x       y       z     vdW  Elec       q    Type
REMARK                         _______ _______ _______ _____ _____    ______ ____
ROOT
ATOM      1  O   UNL     1      -1.087   2.505   0.134  0.00  0.00    +0.000 OA
ENDROOT
BRANCH   1   6
ATOM      2  C   UNL     1       1.335  -0.174  -0.154  0.00  0.00    +0.000 A 
ATOM      3  C   UNL     1       0.557  -1.322  -0.001  0.00  0.00    +0.000 A 
ATOM      4  C   UNL     1      -0.825  -1.210   0.207  0.00  0.00    +0.000 A 
ATOM      5  C   UNL     1      -1.415   0.067   0.258  0.00  0.00    +0.000 A 
ATOM      6  C   UNL     1      -0.636   1.215   0.106  0.00  0.00    +0.000 A 
ATOM      7  C   UNL     1       0.738   1.085  -0.101  0.00  0.00    +0.000 A 
BRANCH   4   8
ATOM      8  C   UNL     1      -1.702  -2.416   0.374  0.00  0.00    +0.000 C 
ATOM      9  O   UNL     1      -2.908  -2.217   0.514  0.00  0.00    +0.000 OA
ATOM     10 CL   UNL     1      -0.998  -4.019   0.362  0.00  0.00    +0.000 Cl
ENDBRANCH   4   8
ENDBRANCH   1   6
BRANCH   1  11
ATOM     11  C   UNL     1      -2.471   2.711   0.405  0.00  0.00    +0.000 C 
BRANCH  11  12
ATOM     12  C   UNL     1      -2.717   4.201   0.438  0.00  0.00    +0.000 A 
ATOM     13  C   UNL     1      -2.475   4.980   1.584  0.00  0.00    +0.000 A 
ATOM     14  C   UNL     1      -2.692   6.359   1.567  0.00  0.00    +0.000 A 
ATOM     15  C   UNL     1      -3.142   6.965   0.402  0.00  0.00    +0.000 A 
ATOM     16  C   UNL     1      -3.375   6.224  -0.748  0.00  0.00    +0.000 A 
ATOM     17  C   UNL     1      -3.159   4.845  -0.733  0.00  0.00    +0.000 A 
ATOM     18  F   UNL     1      -3.349   8.288   0.385  0.00  0.00    +0.000 F 
ATOM     19 CL   UNL     1      -1.900   4.282   3.057  0.00  0.00    +0.000 Cl
ENDBRANCH  11  12
ENDBRANCH   1  11
TORSDOF 4
