REMARK  Name = *****
REMARK  2 active torsions:
REMARK  status: ('A' for Active; 'I' for Inactive)
REMARK    1  A    between atoms: C_4  and  C_7
REMARK    2  A    between atoms: C_8  and  C_9
REMARK                            x       y       z     vdW  Elec       q    Type
REMARK                         _______ _______ _______ _____ _____    ______ ____
ROOT
ATOM      1  C   UNL     1       2.910   0.188  -0.318  0.00  0.00    +0.000 C 
ATOM      2  C   UNL     1       4.103   0.235  -0.453  0.00  0.00    +0.000 C 
ENDROOT
BRANCH   2   3
ATOM      3  C   UNL     1       5.526   0.288  -0.616  0.00  0.00    +0.000 A 
ATOM      4  C   UNL     1       6.133   1.550  -0.671  0.00  0.00    +0.000 A 
ATOM      5  C   UNL     1       7.516   1.667  -0.831  0.00  0.00    +0.000 A 
ATOM      6  C   UNL     1       8.303   0.523  -0.937  0.00  0.00    +0.000 A 
ATOM      7  C   UNL     1       7.711  -0.739  -0.883  0.00  0.00    +0.000 A 
ATOM      8  C   UNL     1       6.324  -0.860  -0.723  0.00  0.00    +0.000 A 
ATOM      9  I   UNL     1       5.533  -2.805  -0.654  0.00  0.00    +0.000 I 
ENDBRANCH   2   3
BRANCH   1  13
ATOM     10  C   UNL     1      -1.282  -0.035   0.139  0.00  0.00    +0.000 A 
ATOM     11  C   UNL     1      -0.655   1.209   0.062  0.00  0.00    +0.000 A 
ATOM     12  C   UNL     1       0.731   1.284  -0.089  0.00  0.00    +0.000 A 
ATOM     13  C   UNL     1       1.490   0.114  -0.162  0.00  0.00    +0.000 A 
ATOM     14  C   UNL     1       0.861  -1.130  -0.084  0.00  0.00    +0.000 A 
ATOM     15  C   UNL     1      -0.525  -1.204   0.066  0.00  0.00    +0.000 A 
ENDBRANCH   1  13
TORSDOF 2
