REMARK  Name = *****
REMARK  1 active torsions:
REMARK  status: ('A' for Active; 'I' for Inactive)
REMARK    1  A    between atoms: C_4  and  C_7
REMARK                            x       y       z     vdW  Elec       q    Type
REMARK                         _______ _______ _______ _____ _____    ______ ____
ROOT
ATOM      1  C   UNL     1      -2.860   0.596  -0.169  0.00  0.00    +0.000 A 
ATOM      2  C   UNL     1      -3.809  -0.067   0.641  0.00  0.00    +0.000 A 
ATOM      3  C   UNL     1      -5.171   0.222   0.478  0.00  0.00    +0.000 A 
ATOM      4  C   UNL     1      -5.549   1.150  -0.478  0.00  0.00    +0.000 A 
ATOM      5  C   UNL     1      -4.672   1.833  -1.306  0.00  0.00    +0.000 A 
ATOM      6  C   UNL     1      -3.313   1.533  -1.125  0.00  0.00    +0.000 A 
ATOM      7  O   UNL     1      -6.910   1.255  -0.443  0.00  0.00    +0.000 OA
ATOM      8  C   UNL     1      -7.271   0.380   0.538  0.00  0.00    +0.000 A 
ATOM      9  N   UNL     1      -6.282  -0.264   1.121  0.00  0.00    +0.000 NA
ENDROOT
BRANCH   1  13
ATOM     10  C   UNL     1       1.337  -0.213   0.286  0.00  0.00    +0.000 A 
ATOM     11  C   UNL     1       0.756  -0.233  -0.978  0.00  0.00    +0.000 A 
ATOM     12  C   UNL     1      -0.610   0.029  -1.126  0.00  0.00    +0.000 A 
ATOM     13  C   UNL     1      -1.419   0.317  -0.013  0.00  0.00    +0.000 A 
ATOM     14  C   UNL     1      -0.810   0.332   1.253  0.00  0.00    +0.000 A 
ATOM     15  C   UNL     1       0.555   0.069   1.403  0.00  0.00    +0.000 A 
ENDBRANCH   1  13
TORSDOF 1
