REMARK  Name = *****
REMARK  5 active torsions:
REMARK  status: ('A' for Active; 'I' for Inactive)
REMARK    1  A    between atoms: C_1  and  C_2
REMARK    2  A    between atoms: C_4  and  C_8
REMARK    3  A    between atoms: C_8  and  C_9
REMARK    4  A    between atoms: C_9  and  C_10
REMARK    5  A    between atoms: C_14  and  C_16
REMARK                            x       y       z     vdW  Elec       q    Type
REMARK                         _______ _______ _______ _____ _____    ______ ____
ROOT
ATOM      1  C   UNL     1      -1.823   2.353  -0.068  0.00  0.00    +0.000 C 
ENDROOT
BRANCH   1   5
ATOM      2  C   UNL     1       2.192  -0.783  -0.068  0.00  0.00    +0.000 C 
ATOM      3  C   UNL     1       0.720  -0.543  -0.239  0.00  0.00    +0.000 A 
ATOM      4  C   UNL     1       0.190   0.748  -0.087  0.00  0.00    +0.000 A 
ATOM      5  C   UNL     1      -1.187   0.986  -0.211  0.00  0.00    +0.000 A 
ATOM      6  C   UNL     1      -2.029  -0.105  -0.482  0.00  0.00    +0.000 A 
ATOM      7  C   UNL     1      -1.513  -1.393  -0.620  0.00  0.00    +0.000 A 
ATOM      8  C   UNL     1      -0.144  -1.613  -0.493  0.00  0.00    +0.000 A 
ENDBRANCH   1   5
BRANCH   1   9
ATOM      9  C   UNL     1      -0.886   3.526   0.240  0.00  0.00    +0.000 C 
BRANCH   9  10
ATOM     10  C   UNL     1      -1.643   4.828   0.360  0.00  0.00    +0.000 A 
ATOM     11  C   UNL     1      -1.860   5.628  -0.767  0.00  0.00    +0.000 A 
ATOM     12  C   UNL     1      -2.570   6.824  -0.656  0.00  0.00    +0.000 A 
ATOM     13  C   UNL     1      -3.076   7.225   0.580  0.00  0.00    +0.000 A 
ATOM     14  C   UNL     1      -2.889   6.428   1.714  0.00  0.00    +0.000 A 
ATOM     15  C   UNL     1      -2.162   5.236   1.598  0.00  0.00    +0.000 A 
ATOM     16  C   UNL     1      -3.406   6.874   3.050  0.00  0.00    +0.000 C 
ENDBRANCH   9  10
ENDBRANCH   1   9
TORSDOF 3
