REMARK  Name = *****
REMARK  7 active torsions:
REMARK  status: ('A' for Active; 'I' for Inactive)
REMARK    1  A    between atoms: C_1  and  C_2
REMARK    2  A    between atoms: C_5  and  C_8
REMARK    3  A    between atoms: C_8  and  C_10
REMARK    4  A    between atoms: C_10  and  C_11
REMARK    5  A    between atoms: C_11  and  C_12
REMARK    6  A    between atoms: C_13  and  C_19
REMARK    7  A    between atoms: C_16  and  C_18
REMARK                            x       y       z     vdW  Elec       q    Type
REMARK                         _______ _______ _______ _____ _____    ______ ____
ROOT
ATOM      1  C   UNL     1      -4.075   2.197  -0.672  0.00  0.00    +0.000 C 
ENDROOT
BRANCH   1   2
ATOM      2  C   UNL     1      -2.949   1.181  -0.648  0.00  0.00    +0.000 C 
ATOM      3  O   UNL     1      -3.148  -0.013  -0.435  0.00  0.00    +0.000 OA
BRANCH   2   8
ATOM      4  C   UNL     1       2.529   2.879  -1.591  0.00  0.00    +0.000 C 
ATOM      5  C   UNL     1       1.114   2.460  -1.323  0.00  0.00    +0.000 A 
ATOM      6  C   UNL     1       0.816   1.126  -1.026  0.00  0.00    +0.000 A 
ATOM      7  C   UNL     1      -0.506   0.729  -0.808  0.00  0.00    +0.000 A 
ATOM      8  C   UNL     1      -1.552   1.657  -0.893  0.00  0.00    +0.000 A 
ATOM      9  C   UNL     1      -1.257   2.989  -1.206  0.00  0.00    +0.000 A 
ATOM     10  C   UNL     1       0.067   3.384  -1.425  0.00  0.00    +0.000 A 
ENDBRANCH   2   8
ENDBRANCH   1   2
BRANCH   1  11
ATOM     11  C   UNL     1      -5.423   1.557  -0.336  0.00  0.00    +0.000 C 
BRANCH  11  12
ATOM     12  C   UNL     1      -6.532   2.587  -0.321  0.00  0.00    +0.000 A 
ATOM     13  C   UNL     1      -6.918   3.265   0.852  0.00  0.00    +0.000 A 
ATOM     14  C   UNL     1      -7.952   4.212   0.783  0.00  0.00    +0.000 A 
ATOM     15  C   UNL     1      -8.583   4.502  -0.428  0.00  0.00    +0.000 A 
ATOM     16  C   UNL     1      -8.190   3.856  -1.600  0.00  0.00    +0.000 A 
ATOM     17  C   UNL     1      -7.175   2.893  -1.535  0.00  0.00    +0.000 A 
ATOM     18  C   UNL     1      -8.890   4.136  -2.896  0.00  0.00    +0.000 C 
ATOM     19  C   UNL     1      -6.285   2.977   2.185  0.00  0.00    +0.000 C 
ENDBRANCH  11  12
ENDBRANCH   1  11
TORSDOF 4
