REMARK  Name = *****
REMARK  6 active torsions:
REMARK  status: ('A' for Active; 'I' for Inactive)
REMARK    1  A    between atoms: C_1  and  C_2
REMARK    2  A    between atoms: C_4  and  C_17
REMARK    3  A    between atoms: C_5  and  S_9
REMARK    4  A    between atoms: C_6  and  C_8
REMARK    5  A    between atoms: S_9  and  C_10
REMARK    6  A    between atoms: C_10  and  N_11
REMARK                            x       y       z     vdW  Elec       q    Type
REMARK                         _______ _______ _______ _____ _____    ______ ____
ROOT
ATOM      1  C   UNL     1       2.269   1.851  -0.037  0.00  0.00    +0.000 C 
ATOM      2  C   UNL     1       1.158   0.847   0.062  0.00  0.00    +0.000 A 
ATOM      3  C   UNL     1       1.399  -0.505  -0.195  0.00  0.00    +0.000 A 
ATOM      4  C   UNL     1       0.364  -1.454  -0.142  0.00  0.00    +0.000 A 
ATOM      5  C   UNL     1      -0.946  -1.031   0.179  0.00  0.00    +0.000 A 
ATOM      6  C   UNL     1      -1.207   0.340   0.402  0.00  0.00    +0.000 A 
ATOM      7  C   UNL     1      -0.147   1.261   0.341  0.00  0.00    +0.000 A 
ATOM      8  C   UNL     1      -2.589   0.863   0.699  0.00  0.00    +0.000 C 
ATOM      9  C   UNL     1       0.699  -2.892  -0.443  0.00  0.00    +0.000 C 
ENDROOT
BRANCH   5  10
ATOM     10  S   UNL     1      -2.283  -2.233   0.283  0.00  0.00    +0.000 S 
BRANCH  10  11
ATOM     11  C   UNL     1      -2.122  -2.666   2.049  0.00  0.00    +0.000 C 
BRANCH  11  12
ATOM     12  N   UNL     1      -3.112  -3.666   2.475  0.00  0.00    +0.000 N 
ATOM     13  C   UNL     1      -2.777  -5.008   1.968  0.00  0.00    +0.000 C 
ATOM     14  C   UNL     1      -3.831  -6.037   2.383  0.00  0.00    +0.000 C 
ATOM     15  C   UNL     1      -4.014  -6.067   3.895  0.00  0.00    +0.000 C 
ATOM     16  C   UNL     1      -4.277  -4.663   4.424  0.00  0.00    +0.000 C 
ATOM     17  C   UNL     1      -3.210  -3.679   3.943  0.00  0.00    +0.000 C 
ATOM     18  H   UNL     1      -4.017  -3.407   2.081  0.00  0.00    +0.000 HD
ENDBRANCH  11  12
ENDBRANCH  10  11
ENDBRANCH   5  10
TORSDOF 3
