REMARK  Name = *****
REMARK  3 active torsions:
REMARK  status: ('A' for Active; 'I' for Inactive)
REMARK    1  A    between atoms: C_6  and  C_7
REMARK    2  A    between atoms: C_7  and  N_8
REMARK    3  A    between atoms: N_8  and  C_9
REMARK                            x       y       z     vdW  Elec       q    Type
REMARK                         _______ _______ _______ _____ _____    ______ ____
ROOT
ATOM      1  N   UNL     1       4.608   1.335  -0.077  0.00  0.00    +0.000 N 
ATOM      2  O   UNL     1       4.130   2.501  -0.256  0.00  0.00    +0.000 OA
ENDROOT
BRANCH   1   3
ATOM      3  C   UNL     1       6.053   1.176   0.004  0.00  0.00    +0.000 A 
ATOM      4  C   UNL     1       6.720   0.263  -0.823  0.00  0.00    +0.000 A 
ATOM      5  C   UNL     1       8.109   0.144  -0.733  0.00  0.00    +0.000 A 
ATOM      6  C   UNL     1       8.819   0.941   0.167  0.00  0.00    +0.000 A 
ATOM      7  C   UNL     1       8.155   1.863   0.977  0.00  0.00    +0.000 A 
ATOM      8  C   UNL     1       6.767   1.987   0.893  0.00  0.00    +0.000 A 
ATOM      9 CL   UNL     1      10.530   0.790   0.271  0.00  0.00    +0.000 Cl
ENDBRANCH   1   3
BRANCH   1  10
ATOM     10  C   UNL     1       3.873   0.253   0.055  0.00  0.00    +0.000 C 
BRANCH  10  16
ATOM     11  C   UNL     1       1.554   1.282   0.210  0.00  0.00    +0.000 A 
ATOM     12  C   UNL     1       0.166   1.112   0.171  0.00  0.00    +0.000 A 
ATOM     13  C   UNL     1      -0.375  -0.151  -0.058  0.00  0.00    +0.000 A 
ATOM     14  C   UNL     1       0.461  -1.250  -0.243  0.00  0.00    +0.000 A 
ATOM     15  C   UNL     1       1.848  -1.080  -0.203  0.00  0.00    +0.000 A 
ATOM     16  C   UNL     1       2.402   0.189   0.013  0.00  0.00    +0.000 A 
ATOM     17 CL   UNL     1      -2.081  -0.358  -0.104  0.00  0.00    +0.000 Cl
ENDBRANCH  10  16
ENDBRANCH   1  10
TORSDOF 3
