REMARK  Name = *****
REMARK  3 active torsions:
REMARK  status: ('A' for Active; 'I' for Inactive)
REMARK    1  A    between atoms: C_3  and  C_9
REMARK    2  A    between atoms: C_9  and  O_10
REMARK    3  A    between atoms: O_10  and  N_11
REMARK                            x       y       z     vdW  Elec       q    Type
REMARK                         _______ _______ _______ _____ _____    ______ ____
ROOT
ATOM      1  O   UNL     1       1.024  -3.904   0.878  0.00  0.00    +0.000 OA
ENDROOT
BRANCH   1   2
ATOM      2  N   UNL     1       1.997  -4.895   0.820  0.00  0.00    +0.000 N 
ATOM      3  C   UNL     1       1.978  -5.998   0.020  0.00  0.00    +0.000 A 
ATOM      4  C   UNL     1       3.139  -6.660   0.402  0.00  0.00    +0.000 A 
ATOM      5  C   UNL     1       3.478  -7.869  -0.223  0.00  0.00    +0.000 A 
ATOM      6  C   UNL     1       2.622  -8.370  -1.215  0.00  0.00    +0.000 A 
ATOM      7  C   UNL     1       1.459  -7.681  -1.572  0.00  0.00    +0.000 A 
ATOM      8  C   UNL     1       1.104  -6.472  -0.963  0.00  0.00    +0.000 A 
ATOM      9 CL   UNL     1       0.434  -8.332  -2.794  0.00  0.00    +0.000 Cl
ATOM     10  N   UNL     1       3.773  -5.952   1.391  0.00  0.00    +0.000 NA
ATOM     11  N   UNL     1       3.044  -4.872   1.655  0.00  0.00    +0.000 NA
ENDBRANCH   1   2
BRANCH   1  12
ATOM     12  C   UNL     1       1.541  -2.738   0.234  0.00  0.00    +0.000 C 
BRANCH  12  15
ATOM     13  C   UNL     1      -1.783  -0.843   0.486  0.00  0.00    +0.000 A 
ATOM     14  C   UNL     1      -0.811  -1.835   0.631  0.00  0.00    +0.000 A 
ATOM     15  C   UNL     1       0.474  -1.671   0.080  0.00  0.00    +0.000 A 
ATOM     16  C   UNL     1       0.753  -0.476  -0.611  0.00  0.00    +0.000 A 
ATOM     17  C   UNL     1      -0.219   0.516  -0.755  0.00  0.00    +0.000 A 
ATOM     18  C   UNL     1      -1.478   0.321  -0.206  0.00  0.00    +0.000 A 
ATOM     19  F   UNL     1      -2.412   1.271  -0.343  0.00  0.00    +0.000 F 
ATOM     20 CL   UNL     1       2.306  -0.178  -1.311  0.00  0.00    +0.000 Cl
ENDBRANCH  12  15
ENDBRANCH   1  12
TORSDOF 3
