REMARK  Name = *****
REMARK  3 active torsions:
REMARK  status: ('A' for Active; 'I' for Inactive)
REMARK    1  A    between atoms: C_5  and  C_7
REMARK    2  A    between atoms: C_7  and  S_8
REMARK    3  A    between atoms: S_8  and  C_9
REMARK                            x       y       z     vdW  Elec       q    Type
REMARK                         _______ _______ _______ _____ _____    ______ ____
ROOT
ATOM      1  S   UNL     1       2.860  -2.089  -0.164  0.00  0.00    +0.000 S 
ENDROOT
BRANCH   1   2
ATOM      2  C   UNL     1       3.583  -3.720  -0.027  0.00  0.00    +0.000 A 
ATOM      3  C   UNL     1       4.983  -3.781   0.059  0.00  0.00    +0.000 A 
ATOM      4  C   UNL     1       5.639  -5.011   0.151  0.00  0.00    +0.000 A 
ATOM      5  C   UNL     1       4.917  -6.197   0.158  0.00  0.00    +0.000 A 
ATOM      6  C   UNL     1       3.534  -6.134   0.072  0.00  0.00    +0.000 A 
ATOM      7  C   UNL     1       2.863  -4.916  -0.022  0.00  0.00    +0.000 A 
ATOM      8  F   UNL     1       2.825  -7.271   0.075  0.00  0.00    +0.000 F 
ATOM      9 CL   UNL     1       7.356  -5.058   0.254  0.00  0.00    +0.000 Cl
ENDBRANCH   1   2
BRANCH   1  10
ATOM     10  C   UNL     1       1.071  -2.390   0.049  0.00  0.00    +0.000 C 
BRANCH  10  15
ATOM     11  C   UNL     1      -0.354   0.966   1.185  0.00  0.00    +0.000 A 
ATOM     12  C   UNL     1      -1.176   1.298   0.108  0.00  0.00    +0.000 A 
ATOM     13  C   UNL     1      -1.269   0.436  -0.983  0.00  0.00    +0.000 A 
ATOM     14  C   UNL     1      -0.539  -0.749  -0.992  0.00  0.00    +0.000 A 
ATOM     15  C   UNL     1       0.292  -1.101   0.077  0.00  0.00    +0.000 A 
ATOM     16  C   UNL     1       0.374  -0.227   1.172  0.00  0.00    +0.000 A 
ATOM     17  F   UNL     1      -0.651  -1.565  -2.050  0.00  0.00    +0.000 F 
ENDBRANCH  10  15
ENDBRANCH   1  10
TORSDOF 3
