REMARK  Name = *****
REMARK  6 active torsions:
REMARK  status: ('A' for Active; 'I' for Inactive)
REMARK    1  A    between atoms: C_1  and  C_2
REMARK    2  A    between atoms: C_2  and  O_4
REMARK    3  A    between atoms: O_4  and  C_5
REMARK    4  A    between atoms: C_7  and  C_12
REMARK    5  A    between atoms: C_9  and  O_11
REMARK    6  A    between atoms: C_13  and  C_14
REMARK                            x       y       z     vdW  Elec       q    Type
REMARK                         _______ _______ _______ _____ _____    ______ ____
ROOT
ATOM      1  C   UNL     1       2.996  -0.568   2.136  0.00  0.00    +0.000 A 
ATOM      2  C   UNL     1       1.928  -1.463   2.223  0.00  0.00    +0.000 A 
ATOM      3  C   UNL     1       1.454  -1.862   3.479  0.00  0.00    +0.000 A 
ATOM      4  C   UNL     1       2.096  -1.391   4.634  0.00  0.00    +0.000 A 
ATOM      5  C   UNL     1       3.177  -0.517   4.523  0.00  0.00    +0.000 A 
ATOM      6  C   UNL     1       3.638  -0.103   3.280  0.00  0.00    +0.000 A 
ENDROOT
BRANCH   5   7
ATOM      7  O   UNL     1       3.822  -0.042   5.627  0.00  0.00    +0.000 OA
ATOM      8  H   UNL     1       3.539  -0.301   6.482  0.00  0.00    +0.000 HD
ENDBRANCH   5   7
BRANCH   3   9
ATOM      9  C   UNL     1       0.335  -2.805   3.620  0.00  0.00    +0.000 C 
ATOM     10  C   UNL     1      -0.785  -2.728   2.883  0.00  0.00    +0.000 C 
BRANCH  10  11
ATOM     11  C   UNL     1      -1.914  -3.662   3.004  0.00  0.00    +0.000 A 
ATOM     12  C   UNL     1      -2.347  -4.157   4.243  0.00  0.00    +0.000 A 
ATOM     13  C   UNL     1      -3.444  -5.019   4.318  0.00  0.00    +0.000 A 
ATOM     14  C   UNL     1      -4.114  -5.377   3.155  0.00  0.00    +0.000 A 
ATOM     15  C   UNL     1      -3.713  -4.886   1.920  0.00  0.00    +0.000 A 
ATOM     16  C   UNL     1      -2.617  -4.024   1.845  0.00  0.00    +0.000 A 
ATOM     17  F   UNL     1      -5.167  -6.203   3.228  0.00  0.00    +0.000 F 
ENDBRANCH  10  11
ENDBRANCH   3   9
BRANCH   1  18
ATOM     18  O   UNL     1       3.533  -0.174   0.901  0.00  0.00    +0.000 OA
BRANCH  18  20
ATOM     19  C   UNL     1       3.421   0.727  -1.267  0.00  0.00    +0.000 C 
ATOM     20  C   UNL     1       2.653   0.377  -0.027  0.00  0.00    +0.000 C 
ATOM     21  O   UNL     1       1.454   0.571   0.119  0.00  0.00    +0.000 OA
ENDBRANCH  18  20
ENDBRANCH   1  18
TORSDOF 5
