REMARK  Name = *****
REMARK  4 active torsions:
REMARK  status: ('A' for Active; 'I' for Inactive)
REMARK    1  A    between atoms: C_1  and  C_2
REMARK    2  A    between atoms: C_5  and  N_8
REMARK    3  A    between atoms: N_8  and  N_9
REMARK    4  A    between atoms: N_9  and  C_11
REMARK                            x       y       z     vdW  Elec       q    Type
REMARK                         _______ _______ _______ _____ _____    ______ ____
ROOT
ATOM      1  N   UNL     1      -3.196   0.337   0.016  0.00  0.00    +0.000 N 
ATOM      2  H   UNL     1      -3.663  -0.530   0.024  0.00  0.00    +0.000 HD
ENDROOT
BRANCH   1   7
ATOM      3  C   UNL     1       2.516  -0.233  -0.013  0.00  0.00    +0.000 C 
ATOM      4  C   UNL     1       1.026  -0.061  -0.022  0.00  0.00    +0.000 A 
ATOM      5  C   UNL     1       0.447   1.209  -0.046  0.00  0.00    +0.000 A 
ATOM      6  C   UNL     1      -0.946   1.358  -0.042  0.00  0.00    +0.000 A 
ATOM      7  C   UNL     1      -1.794   0.249  -0.027  0.00  0.00    +0.000 A 
ATOM      8  C   UNL     1      -1.201  -1.022   0.013  0.00  0.00    +0.000 A 
ATOM      9  C   UNL     1       0.190  -1.179   0.012  0.00  0.00    +0.000 A 
ENDBRANCH   1   7
BRANCH   1  10
ATOM     10  N   UNL     1      -4.049   1.471   0.048  0.00  0.00    +0.000 N 
ATOM     11  O   UNL     1      -3.618   2.607   0.051  0.00  0.00    +0.000 OA
BRANCH  10  12
ATOM     12  C   UNL     1      -5.492   1.295   0.052  0.00  0.00    +0.000 A 
ATOM     13  C   UNL     1      -6.074   0.219   0.734  0.00  0.00    +0.000 A 
ATOM     14  C   UNL     1      -7.463   0.069   0.727  0.00  0.00    +0.000 A 
ATOM     15  C   UNL     1      -8.261   0.995   0.051  0.00  0.00    +0.000 A 
ATOM     16  C   UNL     1      -7.683   2.074  -0.617  0.00  0.00    +0.000 A 
ATOM     17  C   UNL     1      -6.296   2.228  -0.617  0.00  0.00    +0.000 A 
ATOM     18 CL   UNL     1      -9.971   0.806   0.051  0.00  0.00    +0.000 Cl
ENDBRANCH  10  12
ENDBRANCH   1  10
TORSDOF 3
