REMARK  Name = *****
REMARK  2 active torsions:
REMARK  status: ('A' for Active; 'I' for Inactive)
REMARK    1  A    between atoms: C_3  and  C_8
REMARK    2  A    between atoms: N_9  and  C_10
REMARK                            x       y       z     vdW  Elec       q    Type
REMARK                         _______ _______ _______ _____ _____    ______ ____
ROOT
ATOM      1  C   UNL     1       2.499   2.370   0.055  0.00  0.00    +0.000 C 
ATOM      2  N   UNL     1       3.779   2.437  -0.159  0.00  0.00    +0.000 NA
ATOM      3 CL   UNL     1       1.696   3.910   0.067  0.00  0.00    +0.000 Cl
ENDROOT
BRANCH   1   6
ATOM      4  C   UNL     1       1.226  -0.863   1.545  0.00  0.00    +0.000 A 
ATOM      5  C   UNL     1       1.996   0.283   1.342  0.00  0.00    +0.000 A 
ATOM      6  C   UNL     1       1.696   1.142   0.278  0.00  0.00    +0.000 A 
ATOM      7  C   UNL     1       0.616   0.874  -0.568  0.00  0.00    +0.000 A 
ATOM      8  C   UNL     1      -0.146  -0.273  -0.355  0.00  0.00    +0.000 A 
ATOM      9  C   UNL     1       0.155  -1.142   0.694  0.00  0.00    +0.000 A 
ATOM     10 CL   UNL     1      -1.469  -0.621  -1.397  0.00  0.00    +0.000 Cl
ENDBRANCH   1   6
BRANCH   2  11
ATOM     11  C   UNL     1       4.563   1.284  -0.268  0.00  0.00    +0.000 A 
ATOM     12  C   UNL     1       4.478   0.448  -1.389  0.00  0.00    +0.000 A 
ATOM     13  C   UNL     1       5.287  -0.686  -1.486  0.00  0.00    +0.000 A 
ATOM     14  C   UNL     1       6.193  -0.969  -0.470  0.00  0.00    +0.000 A 
ATOM     15  C   UNL     1       6.312  -0.134   0.635  0.00  0.00    +0.000 A 
ATOM     16  C   UNL     1       5.502   0.998   0.729  0.00  0.00    +0.000 A 
ATOM     17  F   UNL     1       6.969  -2.056  -0.563  0.00  0.00    +0.000 F 
ENDBRANCH   2  11
TORSDOF 2
