REMARK  Name = *****
REMARK  1 active torsions:
REMARK  status: ('A' for Active; 'I' for Inactive)
REMARK    1  A    between atoms: C_6  and  C_11
REMARK                            x       y       z     vdW  Elec       q    Type
REMARK                         _______ _______ _______ _____ _____    ______ ____
ROOT
ATOM      1  C   UNL     1       2.324  -0.621  -0.077  0.00  0.00    +0.000 A 
ATOM      2  C   UNL     1       2.322   0.770  -0.062  0.00  0.00    +0.000 A 
ATOM      3  C   UNL     1       1.112   1.466  -0.033  0.00  0.00    +0.000 A 
ATOM      4  C   UNL     1      -0.112   0.778  -0.019  0.00  0.00    +0.000 A 
ATOM      5  C   UNL     1      -1.338   1.466   0.012  0.00  0.00    +0.000 A 
ATOM      6  C   UNL     1      -2.552   0.765   0.027  0.00  0.00    +0.000 A 
ATOM      7  C   UNL     1      -2.541  -0.633   0.010  0.00  0.00    +0.000 A 
ATOM      8  C   UNL     1      -1.329  -1.327  -0.020  0.00  0.00    +0.000 A 
ATOM      9  C   UNL     1      -0.108  -0.637  -0.034  0.00  0.00    +0.000 A 
ATOM     10  C   UNL     1       1.117  -1.321  -0.064  0.00  0.00    +0.000 A 
ENDROOT
BRANCH   6  11
ATOM     11  C   UNL     1      -3.853   1.466   0.062  0.00  0.00    +0.000 A 
ATOM     12  N   UNL     1      -5.013   0.882   0.070  0.00  0.00    +0.000 NA
ATOM     13  S   UNL     1      -6.197   2.082   0.115  0.00  0.00    +0.000 S 
ATOM     14  C   UNL     1      -4.987   3.348   0.123  0.00  0.00    +0.000 A 
ATOM     15  O   UNL     1      -5.234   4.544   0.154  0.00  0.00    +0.000 OA
ATOM     16  O   UNL     1      -3.737   2.820   0.090  0.00  0.00    +0.000 OA
ENDBRANCH   6  11
TORSDOF 1
