REMARK  Name = *****
REMARK  4 active torsions:
REMARK  status: ('A' for Active; 'I' for Inactive)
REMARK    1  A    between atoms: C_4  and  C_7
REMARK    2  A    between atoms: C_7  and  S_8
REMARK    3  A    between atoms: S_8  and  C_9
REMARK    4  A    between atoms: C_14  and  O_15
REMARK                            x       y       z     vdW  Elec       q    Type
REMARK                         _______ _______ _______ _____ _____    ______ ____
ROOT
ATOM      1  S   UNL     1       3.249  -2.514   0.339  0.00  0.00    +0.000 S 
ENDROOT
BRANCH   1   2
ATOM      2  C   UNL     1       4.902  -2.618  -0.424  0.00  0.00    +0.000 C 
ATOM      3  C   UNL     1       4.831  -2.889  -1.932  0.00  0.00    +0.000 C 
ATOM      4  C   UNL     1       6.225  -3.123  -2.531  0.00  0.00    +0.000 C 
ATOM      5  C   UNL     1       6.963  -4.267  -1.829  0.00  0.00    +0.000 C 
ATOM      6  C   UNL     1       7.074  -4.024  -0.329  0.00  0.00    +0.000 C 
ATOM      7  C   UNL     1       5.700  -3.743   0.204  0.00  0.00    +0.000 C 
BRANCH   7   8
ATOM      8  O   UNL     1       5.208  -4.470   1.151  0.00  0.00    +0.000 OA
ATOM      9  H   UNL     1       4.350  -4.291   1.481  0.00  0.00    +0.000 HD
ENDBRANCH   7   8
ENDBRANCH   1   2
BRANCH   1  10
ATOM     10  C   UNL     1       2.644  -0.950  -0.395  0.00  0.00    +0.000 C 
BRANCH  10  14
ATOM     11  C   UNL     1      -1.504   0.448  -0.116  0.00  0.00    +0.000 C 
ATOM     12  C   UNL     1      -1.201  -0.968   0.358  0.00  0.00    +0.000 C 
ATOM     13  C   UNL     1       0.146  -1.465  -0.165  0.00  0.00    +0.000 C 
ATOM     14  C   UNL     1       1.295  -0.508   0.202  0.00  0.00    +0.000 C 
ATOM     15  C   UNL     1       0.969   0.919  -0.280  0.00  0.00    +0.000 C 
ATOM     16  C   UNL     1      -0.377   1.409   0.247  0.00  0.00    +0.000 C 
ENDBRANCH  10  14
ENDBRANCH   1  10
TORSDOF 4
