REMARK  Name = *****
REMARK  2 active torsions:
REMARK  status: ('A' for Active; 'I' for Inactive)
REMARK    1  A    between atoms: C_4  and  C_7
REMARK    2  A    between atoms: C_8  and  C_9
REMARK                            x       y       z     vdW  Elec       q    Type
REMARK                         _______ _______ _______ _____ _____    ______ ____
ROOT
ATOM      1  C   UNL     1      -5.160  -0.298  -0.595  0.00  0.00    +0.000 A 
ATOM      2  C   UNL     1      -5.654   0.756  -1.377  0.00  0.00    +0.000 A 
ATOM      3  C   UNL     1      -7.029   0.925  -1.539  0.00  0.00    +0.000 A 
ATOM      4  C   UNL     1      -7.925   0.052  -0.943  0.00  0.00    +0.000 A 
ATOM      5  C   UNL     1      -7.443  -1.002  -0.182  0.00  0.00    +0.000 A 
ATOM      6  C   UNL     1      -6.072  -1.187  -0.008  0.00  0.00    +0.000 A 
ATOM      7  F   UNL     1      -8.296  -1.861   0.396  0.00  0.00    +0.000 F 
ATOM      8  F   UNL     1      -9.245   0.221  -1.105  0.00  0.00    +0.000 F 
ATOM      9  F   UNL     1      -7.477   1.943  -2.287  0.00  0.00    +0.000 F 
ENDROOT
BRANCH   1  11
ATOM     10  C   UNL     1      -2.806   0.438  -0.308  0.00  0.00    +0.000 C 
ATOM     11  C   UNL     1      -3.722  -0.539  -0.418  0.00  0.00    +0.000 C 
BRANCH  10  15
ATOM     12  C   UNL     1       1.390  -0.178   0.257  0.00  0.00    +0.000 A 
ATOM     13  C   UNL     1       0.680  -1.026  -0.590  0.00  0.00    +0.000 A 
ATOM     14  C   UNL     1      -0.692  -0.841  -0.778  0.00  0.00    +0.000 A 
ATOM     15  C   UNL     1      -1.370   0.189  -0.112  0.00  0.00    +0.000 A 
ATOM     16  C   UNL     1      -0.642   1.045   0.723  0.00  0.00    +0.000 A 
ATOM     17  C   UNL     1       0.730   0.860   0.912  0.00  0.00    +0.000 A 
ENDBRANCH  10  15
ENDBRANCH   1  11
TORSDOF 2
