REMARK  Name = *****
REMARK  6 active torsions:
REMARK  status: ('A' for Active; 'I' for Inactive)
REMARK    1  A    between atoms: C_1  and  C_2
REMARK    2  A    between atoms: C_4  and  C_8
REMARK    3  A    between atoms: C_8  and  O_10
REMARK    4  A    between atoms: O_10  and  C_11
REMARK    5  A    between atoms: C_12  and  C_18
REMARK    6  A    between atoms: C_15  and  C_17
REMARK                            x       y       z     vdW  Elec       q    Type
REMARK                         _______ _______ _______ _____ _____    ______ ____
ROOT
ATOM      1  C   UNL     1      -2.228   2.623  -0.995  0.00  0.00    +0.000 C 
ATOM      2  O   UNL     1      -1.030   2.720  -0.773  0.00  0.00    +0.000 OA
ENDROOT
BRANCH   1   6
ATOM      3  C   UNL     1      -1.671  -2.099  -2.529  0.00  0.00    +0.000 C 
ATOM      4  C   UNL     1      -2.570  -0.938  -2.221  0.00  0.00    +0.000 A 
ATOM      5  C   UNL     1      -2.034   0.271  -1.756  0.00  0.00    +0.000 A 
ATOM      6  C   UNL     1      -2.863   1.372  -1.497  0.00  0.00    +0.000 A 
ATOM      7  C   UNL     1      -4.243   1.260  -1.717  0.00  0.00    +0.000 A 
ATOM      8  C   UNL     1      -4.780   0.063  -2.195  0.00  0.00    +0.000 A 
ATOM      9  C   UNL     1      -3.948  -1.027  -2.450  0.00  0.00    +0.000 A 
ENDBRANCH   1   6
BRANCH   1  10
ATOM     10  O   UNL     1      -3.191   3.601  -0.834  0.00  0.00    +0.000 OA
BRANCH  10  11
ATOM     11  C   UNL     1      -2.693   4.817  -0.352  0.00  0.00    +0.000 A 
ATOM     12  C   UNL     1      -2.916   5.165   0.985  0.00  0.00    +0.000 A 
ATOM     13  C   UNL     1      -2.441   6.403   1.432  0.00  0.00    +0.000 A 
ATOM     14  C   UNL     1      -1.789   7.275   0.553  0.00  0.00    +0.000 A 
ATOM     15  C   UNL     1      -1.607   6.932  -0.793  0.00  0.00    +0.000 A 
ATOM     16  C   UNL     1      -2.060   5.688  -1.242  0.00  0.00    +0.000 A 
ATOM     17  C   UNL     1      -0.877   7.858  -1.720  0.00  0.00    +0.000 C 
ATOM     18  C   UNL     1      -3.609   4.228   1.929  0.00  0.00    +0.000 C 
ENDBRANCH  10  11
ENDBRANCH   1  10
TORSDOF 3
