REMARK  Name = *****
REMARK  3 active torsions:
REMARK  status: ('A' for Active; 'I' for Inactive)
REMARK    1  A    between atoms: C_4  and  C_7
REMARK    2  A    between atoms: N_8  and  C_9
REMARK    3  A    between atoms: C_14  and  C_15
REMARK                            x       y       z     vdW  Elec       q    Type
REMARK                         _______ _______ _______ _____ _____    ______ ____
ROOT
ATOM      1  C   UNL     1      -2.870   0.532  -0.068  0.00  0.00    +0.000 C 
ATOM      2  N   UNL     1      -3.399   1.719  -0.059  0.00  0.00    +0.000 NA
ATOM      3 CL   UNL     1      -4.044  -0.753  -0.073  0.00  0.00    +0.000 Cl
ENDROOT
BRANCH   1   7
ATOM      4  C   UNL     1       1.272  -0.526  -0.053  0.00  0.00    +0.000 A 
ATOM      5  C   UNL     1       0.413  -1.044   0.916  0.00  0.00    +0.000 A 
ATOM      6  C   UNL     1      -0.939  -0.695   0.909  0.00  0.00    +0.000 A 
ATOM      7  C   UNL     1      -1.426   0.183  -0.067  0.00  0.00    +0.000 A 
ATOM      8  C   UNL     1      -0.566   0.691  -1.045  0.00  0.00    +0.000 A 
ATOM      9  C   UNL     1       0.784   0.339  -1.033  0.00  0.00    +0.000 A 
ENDBRANCH   1   7
BRANCH   2  10
ATOM     10  C   UNL     1      -2.620   2.884   0.004  0.00  0.00    +0.000 A 
ATOM     11  C   UNL     1      -1.858   3.167   1.146  0.00  0.00    +0.000 A 
ATOM     12  C   UNL     1      -1.093   4.331   1.228  0.00  0.00    +0.000 A 
ATOM     13  C   UNL     1      -1.099   5.238   0.174  0.00  0.00    +0.000 A 
ATOM     14  C   UNL     1      -1.884   4.990  -0.952  0.00  0.00    +0.000 A 
ATOM     15  C   UNL     1      -2.664   3.822  -1.043  0.00  0.00    +0.000 A 
BRANCH  15  16
ATOM     16  C   UNL     1      -3.530   3.606  -2.254  0.00  0.00    +0.000 C 
ATOM     17 CL   UNL     1      -2.548   3.099  -3.649  0.00  0.00    +0.000 Cl
ENDBRANCH  15  16
ENDBRANCH   2  10
TORSDOF 3
