REMARK  Name = *****
REMARK  2 active torsions:
REMARK  status: ('A' for Active; 'I' for Inactive)
REMARK    1  A    between atoms: C_4  and  S_7
REMARK    2  A    between atoms: S_7  and  C_8
REMARK                            x       y       z     vdW  Elec       q    Type
REMARK                         _______ _______ _______ _____ _____    ______ ____
ROOT
ATOM      1  S   UNL     1       2.988  -0.834  -0.654  0.00  0.00    +0.000 S 
ENDROOT
BRANCH   1   5
ATOM      2  C   UNL     1      -1.461   0.373  -0.108  0.00  0.00    +0.000 C 
ATOM      3  C   UNL     1      -1.066  -1.016   0.378  0.00  0.00    +0.000 C 
ATOM      4  C   UNL     1       0.294  -1.447  -0.172  0.00  0.00    +0.000 C 
ATOM      5  C   UNL     1       1.385  -0.417   0.144  0.00  0.00    +0.000 C 
ATOM      6  C   UNL     1       0.975   0.982  -0.344  0.00  0.00    +0.000 C 
ATOM      7  C   UNL     1      -0.383   1.401   0.216  0.00  0.00    +0.000 C 
ENDBRANCH   1   5
BRANCH   1   8
ATOM      8  C   UNL     1       3.395  -2.454   0.111  0.00  0.00    +0.000 C 
ATOM      9  C   UNL     1       3.640  -2.334   1.619  0.00  0.00    +0.000 C 
ATOM     10  C   UNL     1       4.086  -3.668   2.220  0.00  0.00    +0.000 C 
ATOM     11  C   UNL     1       5.307  -4.235   1.503  0.00  0.00    +0.000 C 
ATOM     12  C   UNL     1       5.070  -4.348   0.001  0.00  0.00    +0.000 C 
ATOM     13  C   UNL     1       4.638  -3.012  -0.600  0.00  0.00    +0.000 C 
ENDBRANCH   1   8
TORSDOF 2
