REMARK  Name = *****
REMARK  4 active torsions:
REMARK  status: ('A' for Active; 'I' for Inactive)
REMARK    1  A    between atoms: C_1  and  C_2
REMARK    2  A    between atoms: C_2  and  C_3
REMARK    3  A    between atoms: C_2  and  S_9
REMARK    4  A    between atoms: S_9  and  C_10
REMARK                            x       y       z     vdW  Elec       q    Type
REMARK                         _______ _______ _______ _____ _____    ______ ____
ROOT
ATOM      1  C   UNL     1       3.113   1.551   0.651  0.00  0.00    +0.000 C 
ATOM      2  C   UNL     1       2.645   0.131   0.317  0.00  0.00    +0.000 C 
ENDROOT
BRANCH   2   3
ATOM      3  C   UNL     1       1.138   0.059   0.117  0.00  0.00    +0.000 A 
ATOM      4  C   UNL     1       0.236   0.537   1.082  0.00  0.00    +0.000 A 
ATOM      5  C   UNL     1      -1.143   0.460   0.873  0.00  0.00    +0.000 A 
ATOM      6  C   UNL     1      -1.641  -0.099  -0.302  0.00  0.00    +0.000 A 
ATOM      7  C   UNL     1      -0.761  -0.586  -1.266  0.00  0.00    +0.000 A 
ATOM      8  C   UNL     1       0.618  -0.509  -1.058  0.00  0.00    +0.000 A 
ENDBRANCH   2   3
BRANCH   2   9
ATOM      9  S   UNL     1       3.168  -1.059   1.624  0.00  0.00    +0.000 S 
BRANCH   9  10
ATOM     10  C   UNL     1       4.929  -1.100   1.347  0.00  0.00    +0.000 A 
ATOM     11  C   UNL     1       5.791  -0.643   2.349  0.00  0.00    +0.000 A 
ATOM     12  C   UNL     1       7.173  -0.672   2.157  0.00  0.00    +0.000 A 
ATOM     13  C   UNL     1       7.701  -1.167   0.966  0.00  0.00    +0.000 A 
ATOM     14  C   UNL     1       6.848  -1.640  -0.030  0.00  0.00    +0.000 A 
ATOM     15  C   UNL     1       5.465  -1.611   0.162  0.00  0.00    +0.000 A 
ENDBRANCH   9  10
ENDBRANCH   2   9
TORSDOF 3
