REMARK  Name = *****
REMARK  4 active torsions:
REMARK  status: ('A' for Active; 'I' for Inactive)
REMARK    1  A    between atoms: C_4  and  C_7
REMARK    2  A    between atoms: C_7  and  S_8
REMARK    3  A    between atoms: S_8  and  C_9
REMARK    4  A    between atoms: C_13  and  C_15
REMARK                            x       y       z     vdW  Elec       q    Type
REMARK                         _______ _______ _______ _____ _____    ______ ____
ROOT
ATOM      1  C   UNL     1      -5.451  -0.818  -0.599  0.00  0.00    +0.000 A 
ATOM      2  C   UNL     1      -6.344  -1.851  -0.912  0.00  0.00    +0.000 A 
ATOM      3  C   UNL     1      -7.724  -1.642  -0.900  0.00  0.00    +0.000 A 
ATOM      4  C   UNL     1      -8.235  -0.389  -0.571  0.00  0.00    +0.000 A 
ATOM      5  C   UNL     1      -7.367   0.664  -0.253  0.00  0.00    +0.000 A 
ATOM      6  C   UNL     1      -5.976   0.437  -0.271  0.00  0.00    +0.000 A 
ENDROOT
BRANCH   5   7
ATOM      7  C   UNL     1      -7.895   2.030   0.106  0.00  0.00    +0.000 C 
ATOM      8  F   UNL     1      -9.254   2.116   0.086  0.00  0.00    +0.000 F 
ATOM      9  F   UNL     1      -7.514   2.421   1.354  0.00  0.00    +0.000 F 
ATOM     10  F   UNL     1      -7.446   2.998  -0.740  0.00  0.00    +0.000 F 
ENDBRANCH   5   7
BRANCH   1  11
ATOM     11  S   UNL     1      -3.710  -1.226  -0.653  0.00  0.00    +0.000 S 
BRANCH  11  12
ATOM     12  C   UNL     1      -2.882   0.331  -0.191  0.00  0.00    +0.000 C 
BRANCH  12  16
ATOM     13  C   UNL     1       1.406  -0.152  -0.146  0.00  0.00    +0.000 A 
ATOM     14  C   UNL     1       0.761   0.238  -1.318  0.00  0.00    +0.000 A 
ATOM     15  C   UNL     1      -0.626   0.396  -1.334  0.00  0.00    +0.000 A 
ATOM     16  C   UNL     1      -1.382   0.170  -0.174  0.00  0.00    +0.000 A 
ATOM     17  C   UNL     1      -0.722  -0.233   0.997  0.00  0.00    +0.000 A 
ATOM     18  C   UNL     1       0.665  -0.389   1.011  0.00  0.00    +0.000 A 
ENDBRANCH  12  16
ENDBRANCH  11  12
ENDBRANCH   1  11
TORSDOF 4
