REMARK  Name = *****
REMARK  3 active torsions:
REMARK  status: ('A' for Active; 'I' for Inactive)
REMARK    1  A    between atoms: C_4  and  O_7
REMARK    2  A    between atoms: O_7  and  C_8
REMARK    3  A    between atoms: C_8  and  C_10
REMARK                            x       y       z     vdW  Elec       q    Type
REMARK                         _______ _______ _______ _____ _____    ______ ____
ROOT
ATOM      1  C   UNL     1       3.422  -1.737   0.339  0.00  0.00    +0.000 C 
ATOM      2  O   UNL     1       3.051  -2.382   1.306  0.00  0.00    +0.000 OA
ENDROOT
BRANCH   1   3
ATOM      3  C   UNL     1       4.737  -1.945  -0.325  0.00  0.00    +0.000 A 
ATOM      4  C   UNL     1       5.571  -2.957   0.170  0.00  0.00    +0.000 A 
ATOM      5  C   UNL     1       6.809  -3.182  -0.424  0.00  0.00    +0.000 A 
ATOM      6  C   UNL     1       7.225  -2.412  -1.504  0.00  0.00    +0.000 A 
ATOM      7  C   UNL     1       6.409  -1.404  -2.006  0.00  0.00    +0.000 A 
ATOM      8  C   UNL     1       5.162  -1.168  -1.417  0.00  0.00    +0.000 A 
ATOM      9  F   UNL     1       8.418  -2.634  -2.071  0.00  0.00    +0.000 F 
ATOM     10  F   UNL     1       7.600  -4.152   0.055  0.00  0.00    +0.000 F 
ENDBRANCH   1   3
BRANCH   1  11
ATOM     11  O   UNL     1       2.726  -0.755  -0.284  0.00  0.00    +0.000 OA
BRANCH  11  15
ATOM     12  C   UNL     1      -1.366   0.366  -0.267  0.00  0.00    +0.000 C 
ATOM     13  C   UNL     1      -1.025  -1.070   0.123  0.00  0.00    +0.000 C 
ATOM     14  C   UNL     1       0.393  -1.444  -0.296  0.00  0.00    +0.000 C 
ATOM     15  C   UNL     1       1.426  -0.458   0.258  0.00  0.00    +0.000 C 
ATOM     16  C   UNL     1       1.078   0.976  -0.149  0.00  0.00    +0.000 C 
ATOM     17  C   UNL     1      -0.337   1.356   0.271  0.00  0.00    +0.000 C 
ENDBRANCH  11  15
ENDBRANCH   1  11
TORSDOF 3
