REMARK  Name = *****
REMARK  3 active torsions:
REMARK  status: ('A' for Active; 'I' for Inactive)
REMARK    1  A    between atoms: C_4  and  C_7
REMARK    2  A    between atoms: C_7  and  O_8
REMARK    3  A    between atoms: O_8  and  C_9
REMARK                            x       y       z     vdW  Elec       q    Type
REMARK                         _______ _______ _______ _____ _____    ______ ____
ROOT
ATOM      1  O   UNL     1      -3.588  -0.730  -0.065  0.00  0.00    +0.000 OA
ENDROOT
BRANCH   1   2
ATOM      2  C   UNL     1      -4.946  -0.683  -0.218  0.00  0.00    +0.000 A 
ATOM      3  C   UNL     1      -5.702   0.447  -0.529  0.00  0.00    +0.000 A 
ATOM      4  C   UNL     1      -7.089   0.340  -0.653  0.00  0.00    +0.000 A 
ATOM      5  C   UNL     1      -7.731  -0.884  -0.471  0.00  0.00    +0.000 A 
ATOM      6  C   UNL     1      -6.979  -2.014  -0.160  0.00  0.00    +0.000 A 
ATOM      7  C   UNL     1      -5.593  -1.910  -0.034  0.00  0.00    +0.000 A 
ATOM      8 CL   UNL     1      -8.019   1.738  -1.037  0.00  0.00    +0.000 Cl
ENDBRANCH   1   2
BRANCH   1   9
ATOM      9  C   UNL     1      -2.865   0.486  -0.266  0.00  0.00    +0.000 C 
BRANCH   9  13
ATOM     10  C   UNL     1       1.378  -0.214   0.131  0.00  0.00    +0.000 A 
ATOM     11  C   UNL     1       0.595  -1.092  -0.615  0.00  0.00    +0.000 A 
ATOM     12  C   UNL     1      -0.778  -0.873  -0.736  0.00  0.00    +0.000 A 
ATOM     13  C   UNL     1      -1.386   0.223  -0.105  0.00  0.00    +0.000 A 
ATOM     14  C   UNL     1      -0.584   1.106   0.634  0.00  0.00    +0.000 A 
ATOM     15  C   UNL     1       0.790   0.885   0.754  0.00  0.00    +0.000 A 
ENDBRANCH   9  13
ENDBRANCH   1   9
TORSDOF 3
