REMARK  Name = *****
REMARK  4 active torsions:
REMARK  status: ('A' for Active; 'I' for Inactive)
REMARK    1  A    between atoms: C_4  and  C_7
REMARK    2  A    between atoms: C_7  and  C_8
REMARK    3  A    between atoms: C_8  and  C_16
REMARK    4  A    between atoms: C_9  and  C_10
REMARK                            x       y       z     vdW  Elec       q    Type
REMARK                         _______ _______ _______ _____ _____    ______ ____
ROOT
ATOM      1  C   UNL     1      -3.626  -0.766  -0.091  0.00  0.00    +0.000 C 
ATOM      2  C   UNL     1      -3.024  -1.970  -0.119  0.00  0.00    +0.000 C 
ENDROOT
BRANCH   2   3
ATOM      3  C   UNL     1      -3.681  -3.257  -0.347  0.00  0.00    +0.000 A 
ATOM      4  C   UNL     1      -3.749  -3.787  -1.639  0.00  0.00    +0.000 A 
ATOM      5  C   UNL     1      -4.388  -5.007  -1.862  0.00  0.00    +0.000 A 
ATOM      6  C   UNL     1      -4.961  -5.701  -0.796  0.00  0.00    +0.000 A 
ATOM      7  C   UNL     1      -4.895  -5.176   0.494  0.00  0.00    +0.000 A 
ATOM      8  C   UNL     1      -4.255  -3.956   0.720  0.00  0.00    +0.000 A 
ENDBRANCH   2   3
BRANCH   1   9
ATOM      9  C   UNL     1      -5.099  -0.632  -0.274  0.00  0.00    +0.000 C 
ATOM     10  O   UNL     1      -5.695   0.427  -0.107  0.00  0.00    +0.000 OA
ENDBRANCH   1   9
BRANCH   1  11
ATOM     11  C   UNL     1      -2.864   0.508   0.170  0.00  0.00    +0.000 C 
BRANCH  11  15
ATOM     12  C   UNL     1      -1.676   2.484  -3.482  0.00  0.00    +0.000 A 
ATOM     13  C   UNL     1      -2.902   2.785  -2.892  0.00  0.00    +0.000 A 
ATOM     14  C   UNL     1      -3.283   2.151  -1.709  0.00  0.00    +0.000 A 
ATOM     15  C   UNL     1      -2.440   1.211  -1.100  0.00  0.00    +0.000 A 
ATOM     16  C   UNL     1      -1.211   0.910  -1.707  0.00  0.00    +0.000 A 
ATOM     17  C   UNL     1      -0.831   1.546  -2.890  0.00  0.00    +0.000 A 
ENDBRANCH  11  15
ENDBRANCH   1  11
TORSDOF 4
