REMARK  Name = *****
REMARK  4 active torsions:
REMARK  status: ('A' for Active; 'I' for Inactive)
REMARK    1  A    between atoms: C_1  and  O_2
REMARK    2  A    between atoms: O_2  and  C_3
REMARK    3  A    between atoms: C_7  and  C_10
REMARK    4  A    between atoms: C_11  and  C_12
REMARK                            x       y       z     vdW  Elec       q    Type
REMARK                         _______ _______ _______ _____ _____    ______ ____
ROOT
ATOM      1  C   UNL     1       3.292  -0.184  -1.170  0.00  0.00    +0.000 A 
ATOM      2  C   UNL     1       4.135  -1.299  -1.096  0.00  0.00    +0.000 A 
ATOM      3  C   UNL     1       4.727  -1.816  -2.250  0.00  0.00    +0.000 A 
ATOM      4  C   UNL     1       4.477  -1.227  -3.488  0.00  0.00    +0.000 A 
ATOM      5  C   UNL     1       3.625  -0.121  -3.584  0.00  0.00    +0.000 A 
ATOM      6  C   UNL     1       3.024   0.397  -2.424  0.00  0.00    +0.000 A 
ATOM      7 CL   UNL     1       1.963   1.772  -2.524  0.00  0.00    +0.000 Cl
ENDROOT
BRANCH   1   9
ATOM      8  C   UNL     1       3.310   0.176   1.180  0.00  0.00    +0.000 C 
ATOM      9  O   UNL     1       2.669   0.364  -0.076  0.00  0.00    +0.000 OA
ENDBRANCH   1   9
BRANCH   5  10
ATOM     10  C   UNL     1       3.409   0.455  -4.880  0.00  0.00    +0.000 C 
ATOM     11  C   UNL     1       3.237   0.956  -5.958  0.00  0.00    +0.000 C 
BRANCH  11  12
ATOM     12  C   UNL     1       3.036   1.581  -7.228  0.00  0.00    +0.000 A 
ATOM     13  C   UNL     1       3.071   0.820  -8.399  0.00  0.00    +0.000 A 
ATOM     14  C   UNL     1       2.879   1.436  -9.638  0.00  0.00    +0.000 A 
ATOM     15  C   UNL     1       2.654   2.811  -9.706  0.00  0.00    +0.000 A 
ATOM     16  C   UNL     1       2.618   3.572  -8.538  0.00  0.00    +0.000 A 
ATOM     17  C   UNL     1       2.809   2.957  -7.299  0.00  0.00    +0.000 A 
ENDBRANCH  11  12
ENDBRANCH   5  10
TORSDOF 3
