REMARK  Name = *****
REMARK  5 active torsions:
REMARK  status: ('A' for Active; 'I' for Inactive)
REMARK    1  A    between atoms: C_1  and  C_2
REMARK    2  A    between atoms: C_3  and  C_16
REMARK    3  A    between atoms: C_5  and  S_8
REMARK    4  A    between atoms: S_8  and  C_9
REMARK    5  A    between atoms: C_9  and  C_10
REMARK                            x       y       z     vdW  Elec       q    Type
REMARK                         _______ _______ _______ _____ _____    ______ ____
ROOT
ATOM      1  C   UNL     1       1.786   1.526  -0.229  0.00  0.00    +0.000 C 
ATOM      2  C   UNL     1       0.500   0.769  -0.034  0.00  0.00    +0.000 A 
ATOM      3  C   UNL     1       0.470  -0.640  -0.032  0.00  0.00    +0.000 A 
ATOM      4  C   UNL     1      -0.756  -1.301   0.161  0.00  0.00    +0.000 A 
ATOM      5  C   UNL     1      -1.941  -0.584   0.348  0.00  0.00    +0.000 A 
ATOM      6  C   UNL     1      -1.900   0.810   0.367  0.00  0.00    +0.000 A 
ATOM      7  C   UNL     1      -0.691   1.480   0.175  0.00  0.00    +0.000 A 
ATOM      8  C   UNL     1       1.720  -1.452  -0.234  0.00  0.00    +0.000 C 
ENDROOT
BRANCH   5   9
ATOM      9  S   UNL     1      -3.469  -1.469   0.591  0.00  0.00    +0.000 S 
BRANCH   9  10
ATOM     10  C   UNL     1      -4.374  -0.912  -0.890  0.00  0.00    +0.000 C 
BRANCH  10  11
ATOM     11  C   UNL     1      -5.677  -1.629  -1.003  0.00  0.00    +0.000 A 
ATOM     12  C   UNL     1      -5.953  -2.859  -1.573  0.00  0.00    +0.000 A 
ATOM     13  N   UNL     1      -7.277  -3.256  -1.539  0.00  0.00    +0.000 NA
ATOM     14  C   UNL     1      -7.972  -2.326  -0.933  0.00  0.00    +0.000 A 
ATOM     15  S   UNL     1      -7.136  -0.948  -0.396  0.00  0.00    +0.000 S 
ATOM     16 CL   UNL     1      -9.665  -2.453  -0.687  0.00  0.00    +0.000 Cl
ENDBRANCH  10  11
ENDBRANCH   9  10
ENDBRANCH   5   9
TORSDOF 3
