REMARK  Name = *****
REMARK  6 active torsions:
REMARK  status: ('A' for Active; 'I' for Inactive)
REMARK    1  A    between atoms: C_1  and  C_2
REMARK    2  A    between atoms: C_2  and  C_3
REMARK    3  A    between atoms: C_2  and  O_9
REMARK    4  A    between atoms: O_9  and  C_10
REMARK    5  A    between atoms: C_10  and  C_11
REMARK    6  A    between atoms: C_11  and  C_12
REMARK                            x       y       z     vdW  Elec       q    Type
REMARK                         _______ _______ _______ _____ _____    ______ ____
ROOT
ATOM      1  O   UNL     1       3.239   0.798   0.418  0.00  0.00    +0.000 OA
ENDROOT
BRANCH   1   3
ATOM      2  C   UNL     1       1.219  -0.005  -0.563  0.00  0.00    +0.000 C 
ATOM      3  C   UNL     1       2.617  -0.392  -0.087  0.00  0.00    +0.000 C 
BRANCH   3   4
ATOM      4  C   UNL     1       2.531  -1.469   0.978  0.00  0.00    +0.000 A 
ATOM      5  C   UNL     1       2.206  -1.154   2.307  0.00  0.00    +0.000 A 
ATOM      6  C   UNL     1       2.120  -2.156   3.275  0.00  0.00    +0.000 A 
ATOM      7  C   UNL     1       2.351  -3.485   2.925  0.00  0.00    +0.000 A 
ATOM      8  C   UNL     1       2.668  -3.813   1.609  0.00  0.00    +0.000 A 
ATOM      9  C   UNL     1       2.755  -2.812   0.639  0.00  0.00    +0.000 A 
ENDBRANCH   3   4
ENDBRANCH   1   3
BRANCH   1  10
ATOM     10  C   UNL     1       4.665   0.720   0.504  0.00  0.00    +0.000 C 
BRANCH  10  11
ATOM     11  C   UNL     1       5.316   1.059  -0.838  0.00  0.00    +0.000 C 
BRANCH  11  12
ATOM     12  C   UNL     1       6.820   1.093  -0.745  0.00  0.00    +0.000 A 
ATOM     13  C   UNL     1       7.563  -0.092  -0.821  0.00  0.00    +0.000 A 
ATOM     14  C   UNL     1       8.954  -0.062  -0.715  0.00  0.00    +0.000 A 
ATOM     15  C   UNL     1       9.614   1.151  -0.531  0.00  0.00    +0.000 A 
ATOM     16  C   UNL     1       8.884   2.335  -0.450  0.00  0.00    +0.000 A 
ATOM     17  C   UNL     1       7.492   2.307  -0.554  0.00  0.00    +0.000 A 
ENDBRANCH  11  12
ENDBRANCH  10  11
ENDBRANCH   1  10
TORSDOF 5
