REMARK  Name = *****
REMARK  6 active torsions:
REMARK  status: ('A' for Active; 'I' for Inactive)
REMARK    1  A    between atoms: C_1  and  C_2
REMARK    2  A    between atoms: C_5  and  S_8
REMARK    3  A    between atoms: S_8  and  C_9
REMARK    4  A    between atoms: C_9  and  C_10
REMARK    5  A    between atoms: C_12  and  O_17
REMARK    6  A    between atoms: O_17  and  C_18
REMARK                            x       y       z     vdW  Elec       q    Type
REMARK                         _______ _______ _______ _____ _____    ______ ____
ROOT
ATOM      1  C   UNL     1      -6.073   2.185   1.343  0.00  0.00    +0.000 C 
ENDROOT
BRANCH   1   2
ATOM      2  C   UNL     1      -5.742   1.890  -0.135  0.00  0.00    +0.000 C 
ATOM      3  C   UNL     1      -6.217   0.503  -0.616  0.00  0.00    +0.000 C 
ATOM      4  C   UNL     1      -7.748   0.373  -0.699  0.00  0.00    +0.000 C 
ATOM      5  C   UNL     1      -8.346   1.501  -1.558  0.00  0.00    +0.000 C 
ATOM      6  C   UNL     1      -7.844   2.860  -1.132  0.00  0.00    +0.000 C 
ATOM      7  C   UNL     1      -8.668   3.877  -0.836  0.00  0.00    +0.000 C 
ATOM      8  C   UNL     1      -6.343   2.979  -1.046  0.00  0.00    +0.000 C 
BRANCH   4   9
ATOM      9  O   UNL     1      -8.023  -0.912  -1.273  0.00  0.00    +0.000 OA
ATOM     10  C   UNL     1      -9.353  -1.359  -1.048  0.00  0.00    +0.000 C 
ENDBRANCH   4   9
ENDBRANCH   1   2
BRANCH   1  11
ATOM     11  S   UNL     1      -5.144   1.099   2.485  0.00  0.00    +0.000 S 
BRANCH  11  16
ATOM     12  C   UNL     1      -8.056   2.040   7.761  0.00  0.00    +0.000 C 
ATOM     13  C   UNL     1      -7.368   1.822   6.446  0.00  0.00    +0.000 A 
ATOM     14  C   UNL     1      -6.926   2.911   5.688  0.00  0.00    +0.000 A 
ATOM     15  C   UNL     1      -6.252   2.709   4.480  0.00  0.00    +0.000 A 
ATOM     16  C   UNL     1      -6.010   1.414   4.012  0.00  0.00    +0.000 A 
ATOM     17  C   UNL     1      -6.425   0.325   4.784  0.00  0.00    +0.000 A 
ATOM     18  C   UNL     1      -7.098   0.526   5.993  0.00  0.00    +0.000 A 
ENDBRANCH  11  16
ENDBRANCH   1  11
TORSDOF 4
