REMARK  Name = *****
REMARK  7 active torsions:
REMARK  status: ('A' for Active; 'I' for Inactive)
REMARK    1  A    between atoms: C_1  and  C_2
REMARK    2  A    between atoms: C_2  and  P_3
REMARK    3  A    between atoms: P_3  and  C_4
REMARK    4  A    between atoms: P_3  and  N_11
REMARK    5  A    between atoms: C_9  and  C_10
REMARK    6  A    between atoms: N_11  and  C_12
REMARK    7  A    between atoms: N_11  and  C_13
REMARK                            x       y       z     vdW  Elec       q    Type
REMARK                         _______ _______ _______ _____ _____    ______ ____
ROOT
ATOM      1  P   UNL     1       2.886  -0.440  -1.618  0.00  0.00    +0.000 P 
ENDROOT
BRANCH   1   2
ATOM      2  C   UNL     1       2.373   1.023  -2.605  0.00  0.00    +0.000 A 
ATOM      3  C   UNL     1       1.512   1.990  -2.048  0.00  0.00    +0.000 A 
ATOM      4  C   UNL     1       1.107   3.117  -2.767  0.00  0.00    +0.000 A 
ATOM      5  C   UNL     1       1.547   3.304  -4.069  0.00  0.00    +0.000 A 
ATOM      6  C   UNL     1       2.382   2.357  -4.654  0.00  0.00    +0.000 A 
ATOM      7  C   UNL     1       2.789   1.207  -3.948  0.00  0.00    +0.000 A 
ATOM      8  C   UNL     1       3.687   0.235  -4.673  0.00  0.00    +0.000 C 
ENDBRANCH   1   2
BRANCH   1  10
ATOM      9  C   UNL     1       2.760  -1.281   1.039  0.00  0.00    +0.000 C 
ATOM     10  C   UNL     1       2.286  -0.182   0.100  0.00  0.00    +0.000 C 
ENDBRANCH   1  10
BRANCH   1  11
ATOM     11  N   UNL     1       4.539  -0.240  -1.560  0.00  0.00    +0.000 N 
ATOM     12  C   UNL     1       5.061   1.052  -1.085  0.00  0.00    +0.000 C 
BRANCH  11  13
ATOM     13  C   UNL     1       5.521  -1.242  -1.832  0.00  0.00    +0.000 A 
ATOM     14  C   UNL     1       5.150  -2.556  -2.187  0.00  0.00    +0.000 A 
ATOM     15  C   UNL     1       6.094  -3.553  -2.464  0.00  0.00    +0.000 A 
ATOM     16  C   UNL     1       7.450  -3.266  -2.397  0.00  0.00    +0.000 A 
ATOM     17  C   UNL     1       7.857  -1.982  -2.056  0.00  0.00    +0.000 A 
ATOM     18  C   UNL     1       6.906  -0.989  -1.781  0.00  0.00    +0.000 A 
ENDBRANCH  11  13
ENDBRANCH   1  11
TORSDOF 4
