REMARK  Name = *****
REMARK  3 active torsions:
REMARK  status: ('A' for Active; 'I' for Inactive)
REMARK    1  A    between atoms: C_4  and  C_8
REMARK    2  A    between atoms: C_9  and  C_10
REMARK    3  A    between atoms: C_10  and  C_12
REMARK                            x       y       z     vdW  Elec       q    Type
REMARK                         _______ _______ _______ _____ _____    ______ ____
ROOT
ATOM      1  C   UNL     1       0.167   2.242  -0.722  0.00  0.00    +0.000 C 
ATOM      2  C   UNL     1       1.205   3.059  -0.482  0.00  0.00    +0.000 C 
ENDROOT
BRANCH   1   6
ATOM      3  C   UNL     1      -0.136  -1.899   0.325  0.00  0.00    +0.000 A 
ATOM      4  C   UNL     1      -0.932  -0.950   0.964  0.00  0.00    +0.000 A 
ATOM      5  C   UNL     1      -0.825   0.397   0.616  0.00  0.00    +0.000 A 
ATOM      6  C   UNL     1       0.073   0.824  -0.365  0.00  0.00    +0.000 A 
ATOM      7  C   UNL     1       0.853  -0.144  -1.005  0.00  0.00    +0.000 A 
ATOM      8  C   UNL     1       0.758  -1.494  -0.666  0.00  0.00    +0.000 A 
ATOM      9  F   UNL     1       1.702   0.211  -1.983  0.00  0.00    +0.000 F 
ATOM     10  F   UNL     1      -1.618   1.284   1.237  0.00  0.00    +0.000 F 
ENDBRANCH   1   6
BRANCH   2  11
ATOM     11  C   UNL     1       2.446   2.680   0.257  0.00  0.00    +0.000 C 
ATOM     12  O   UNL     1       2.554   1.656   0.919  0.00  0.00    +0.000 OA
BRANCH  11  13
ATOM     13  C   UNL     1       3.584   3.607   0.175  0.00  0.00    +0.000 A 
ATOM     14  C   UNL     1       3.446   4.962   0.469  0.00  0.00    +0.000 A 
ATOM     15  C   UNL     1       4.543   5.822   0.409  0.00  0.00    +0.000 A 
ATOM     16  C   UNL     1       5.798   5.324   0.059  0.00  0.00    +0.000 A 
ATOM     17  C   UNL     1       5.947   3.967  -0.229  0.00  0.00    +0.000 A 
ATOM     18  C   UNL     1       4.842   3.116  -0.166  0.00  0.00    +0.000 A 
ATOM     19  F   UNL     1       5.020   1.824  -0.475  0.00  0.00    +0.000 F 
ATOM     20  F   UNL     1       2.258   5.471   0.826  0.00  0.00    +0.000 F 
ENDBRANCH  11  13
ENDBRANCH   2  11
TORSDOF 3
