REMARK  Name = *****
REMARK  2 active torsions:
REMARK  status: ('A' for Active; 'I' for Inactive)
REMARK    1  A    between atoms: C_4  and  C_7
REMARK    2  A    between atoms: C_8  and  C_10
REMARK                            x       y       z     vdW  Elec       q    Type
REMARK                         _______ _______ _______ _____ _____    ______ ____
ROOT
ATOM      1  C   UNL     1      -3.082  -0.468  -0.286  0.00  0.00    +0.000 C 
ATOM      2  C   UNL     1      -4.336  -0.905  -0.371  0.00  0.00    +0.000 C 
ATOM      3  O   UNL     1      -3.339  -1.796  -0.079  0.00  0.00    +0.000 OA
ENDROOT
BRANCH   1   7
ATOM      4  C   UNL     1       1.079   0.343   0.128  0.00  0.00    +0.000 A 
ATOM      5  C   UNL     1       0.261   1.145  -0.665  0.00  0.00    +0.000 A 
ATOM      6  C   UNL     1      -1.101   0.852  -0.785  0.00  0.00    +0.000 A 
ATOM      7  C   UNL     1      -1.660  -0.254  -0.129  0.00  0.00    +0.000 A 
ATOM      8  C   UNL     1      -0.824  -1.045   0.673  0.00  0.00    +0.000 A 
ATOM      9  C   UNL     1       0.537  -0.750   0.799  0.00  0.00    +0.000 A 
ENDBRANCH   1   7
BRANCH   2  10
ATOM     10  C   UNL     1      -5.588  -1.627  -0.413  0.00  0.00    +0.000 A 
ATOM     11  C   UNL     1      -6.760  -0.896  -0.168  0.00  0.00    +0.000 A 
ATOM     12  C   UNL     1      -8.014  -1.513  -0.213  0.00  0.00    +0.000 A 
ATOM     13  C   UNL     1      -8.114  -2.868  -0.521  0.00  0.00    +0.000 A 
ATOM     14  C   UNL     1      -6.962  -3.605  -0.785  0.00  0.00    +0.000 A 
ATOM     15  C   UNL     1      -5.708  -2.988  -0.733  0.00  0.00    +0.000 A 
ENDBRANCH   2  10
TORSDOF 2
