REMARK  Name = *****
REMARK  3 active torsions:
REMARK  status: ('A' for Active; 'I' for Inactive)
REMARK    1  A    between atoms: C_4  and  C_7
REMARK    2  A    between atoms: C_8  and  C_9
REMARK    3  A    between atoms: C_9  and  C_10
REMARK                            x       y       z     vdW  Elec       q    Type
REMARK                         _______ _______ _______ _____ _____    ______ ____
ROOT
ATOM      1  C   UNL     1       0.619  -2.773   0.238  0.00  0.00    +0.000 C 
ATOM      2  C   UNL     1      -0.239  -3.806   0.216  0.00  0.00    +0.000 C 
ENDROOT
BRANCH   1   6
ATOM      3  C   UNL     1      -0.471   1.425   0.196  0.00  0.00    +0.000 C 
ATOM      4  C   UNL     1      -1.321   0.487  -0.650  0.00  0.00    +0.000 C 
ATOM      5  C   UNL     1      -1.156  -0.969  -0.203  0.00  0.00    +0.000 C 
ATOM      6  C   UNL     1       0.278  -1.364   0.085  0.00  0.00    +0.000 C 
ATOM      7  C   UNL     1       1.245  -0.433   0.201  0.00  0.00    +0.000 C 
ATOM      8  C   UNL     1       1.006   1.046   0.107  0.00  0.00    +0.000 C 
ENDBRANCH   1   6
BRANCH   2   9
ATOM      9  C   UNL     1       0.179  -5.241   0.390  0.00  0.00    +0.000 C 
BRANCH   9  10
ATOM     10  C   UNL     1      -0.518  -5.905   1.553  0.00  0.00    +0.000 A 
ATOM     11  C   UNL     1      -1.576  -6.799   1.338  0.00  0.00    +0.000 A 
ATOM     12  C   UNL     1      -2.222  -7.404   2.417  0.00  0.00    +0.000 A 
ATOM     13  C   UNL     1      -1.821  -7.119   3.721  0.00  0.00    +0.000 A 
ATOM     14  C   UNL     1      -0.775  -6.227   3.948  0.00  0.00    +0.000 A 
ATOM     15  C   UNL     1      -0.126  -5.622   2.870  0.00  0.00    +0.000 A 
ENDBRANCH   9  10
ENDBRANCH   2   9
TORSDOF 3
