REMARK  Name = *****
REMARK  5 active torsions:
REMARK  status: ('A' for Active; 'I' for Inactive)
REMARK    1  A    between atoms: C_1  and  C_2
REMARK    2  A    between atoms: C_5  and  C_6
REMARK    3  A    between atoms: C_7  and  C_9
REMARK    4  A    between atoms: C_9  and  O_11
REMARK    5  A    between atoms: O_11  and  C_12
REMARK                            x       y       z     vdW  Elec       q    Type
REMARK                         _______ _______ _______ _____ _____    ______ ____
ROOT
ATOM      1  O   UNL     1      -2.139  -2.314   1.546  0.00  0.00    +0.000 OA
ENDROOT
BRANCH   1   2
ATOM      2  C   UNL     1      -2.661  -3.534   1.968  0.00  0.00    +0.000 A 
ATOM      3  C   UNL     1      -1.993  -4.279   2.936  0.00  0.00    +0.000 A 
ATOM      4  C   UNL     1      -2.525  -5.490   3.364  0.00  0.00    +0.000 A 
ATOM      5  C   UNL     1      -3.726  -5.948   2.833  0.00  0.00    +0.000 A 
ATOM      6  C   UNL     1      -4.400  -5.195   1.877  0.00  0.00    +0.000 A 
ATOM      7  C   UNL     1      -3.871  -3.984   1.447  0.00  0.00    +0.000 A 
ATOM      8  F   UNL     1      -4.523  -3.250   0.534  0.00  0.00    +0.000 F 
ATOM      9  F   UNL     1      -5.564  -5.633   1.378  0.00  0.00    +0.000 F 
ATOM     10  F   UNL     1      -4.241  -7.112   3.252  0.00  0.00    +0.000 F 
ATOM     11  F   UNL     1      -1.885  -6.211   4.295  0.00  0.00    +0.000 F 
ATOM     12  F   UNL     1      -0.841  -3.829   3.454  0.00  0.00    +0.000 F 
ENDBRANCH   1   2
BRANCH   1  13
ATOM     13  C   UNL     1      -1.271  -2.494   0.482  0.00  0.00    +0.000 C 
ATOM     14  O   UNL     1      -0.954  -3.562  -0.025  0.00  0.00    +0.000 OA
BRANCH  13  21
ATOM     15  C   UNL     1       2.685   0.156  -0.293  0.00  0.00    +0.000 C 
ATOM     16  C   UNL     1       1.344   0.118  -0.235  0.00  0.00    +0.000 A 
ATOM     17  C   UNL     1       0.568   1.336  -0.453  0.00  0.00    +0.000 A 
ATOM     18  C   UNL     1      -0.776   1.293  -0.440  0.00  0.00    +0.000 A 
ATOM     19  C   UNL     1      -1.478   0.022  -0.216  0.00  0.00    +0.000 A 
ATOM     20  C   UNL     1      -2.816   0.009  -0.340  0.00  0.00    +0.000 C 
ATOM     21  C   UNL     1      -0.690  -1.183   0.104  0.00  0.00    +0.000 A 
ATOM     22  C   UNL     1       0.659  -1.136   0.075  0.00  0.00    +0.000 A 
ENDBRANCH  13  21
ENDBRANCH   1  13
TORSDOF 3
