REMARK  Name = *****
REMARK  5 active torsions:
REMARK  status: ('A' for Active; 'I' for Inactive)
REMARK    1  A    between atoms: C_1  and  C_2
REMARK    2  A    between atoms: C_2  and  O_4
REMARK    3  A    between atoms: O_4  and  C_5
REMARK    4  A    between atoms: C_10  and  C_11
REMARK    5  A    between atoms: C_12  and  C_13
REMARK                            x       y       z     vdW  Elec       q    Type
REMARK                         _______ _______ _______ _____ _____    ______ ____
ROOT
ATOM      1  C   UNL     1       4.788  -0.356   1.268  0.00  0.00    +0.000 A 
ATOM      2  C   UNL     1       5.489   0.814   0.970  0.00  0.00    +0.000 A 
ATOM      3  C   UNL     1       6.852   0.739   0.685  0.00  0.00    +0.000 A 
ATOM      4  C   UNL     1       7.506  -0.495   0.715  0.00  0.00    +0.000 A 
ATOM      5  C   UNL     1       6.800  -1.659   1.034  0.00  0.00    +0.000 A 
ATOM      6  C   UNL     1       5.434  -1.597   1.320  0.00  0.00    +0.000 A 
ENDROOT
BRANCH   6   7
ATOM      7  C   UNL     1       4.728  -2.794   1.665  0.00  0.00    +0.000 C 
ATOM      8  C   UNL     1       4.129  -3.795   1.954  0.00  0.00    +0.000 C 
BRANCH   8   9
ATOM      9  C   UNL     1       3.412  -4.983   2.298  0.00  0.00    +0.000 A 
ATOM     10  C   UNL     1       4.086  -6.069   2.862  0.00  0.00    +0.000 A 
ATOM     11  C   UNL     1       3.385  -7.228   3.199  0.00  0.00    +0.000 A 
ATOM     12  C   UNL     1       2.010  -7.303   2.973  0.00  0.00    +0.000 A 
ATOM     13  C   UNL     1       1.336  -6.220   2.409  0.00  0.00    +0.000 A 
ATOM     14  C   UNL     1       2.036  -5.060   2.071  0.00  0.00    +0.000 A 
ENDBRANCH   8   9
ENDBRANCH   6   7
BRANCH   1  15
ATOM     15  O   UNL     1       3.432  -0.248   1.593  0.00  0.00    +0.000 OA
BRANCH  15  17
ATOM     16  C   UNL     1       1.176  -0.376   0.956  0.00  0.00    +0.000 C 
ATOM     17  C   UNL     1       2.602  -0.420   0.493  0.00  0.00    +0.000 C 
ATOM     18  O   UNL     1       2.940  -0.572  -0.673  0.00  0.00    +0.000 OA
ENDBRANCH  15  17
ENDBRANCH   1  15
TORSDOF 4
