REMARK  Name = *****
REMARK  4 active torsions:
REMARK  status: ('A' for Active; 'I' for Inactive)
REMARK    1  A    between atoms: C_4  and  C_7
REMARK    2  A    between atoms: C_7  and  O_8
REMARK    3  A    between atoms: O_8  and  C_9
REMARK    4  A    between atoms: C_9  and  C_11
REMARK                            x       y       z     vdW  Elec       q    Type
REMARK                         _______ _______ _______ _____ _____    ______ ____
ROOT
ATOM      1  C   UNL     1      -4.802  -0.651  -0.412  0.00  0.00    +0.000 C 
ATOM      2  O   UNL     1      -5.331   0.449  -0.419  0.00  0.00    +0.000 OA
ENDROOT
BRANCH   1   3
ATOM      3  C   UNL     1      -5.569  -1.927  -0.381  0.00  0.00    +0.000 A 
ATOM      4  C   UNL     1      -4.942  -3.184  -0.404  0.00  0.00    +0.000 A 
ATOM      5  C   UNL     1      -5.711  -4.351  -0.376  0.00  0.00    +0.000 A 
ATOM      6  C   UNL     1      -7.097  -4.261  -0.324  0.00  0.00    +0.000 A 
ATOM      7  C   UNL     1      -7.734  -3.025  -0.300  0.00  0.00    +0.000 A 
ATOM      8  C   UNL     1      -6.970  -1.856  -0.328  0.00  0.00    +0.000 A 
ATOM      9  F   UNL     1      -7.830  -5.381  -0.297  0.00  0.00    +0.000 F 
ENDBRANCH   1   3
BRANCH   1  10
ATOM     10  O   UNL     1      -3.471  -0.902  -0.435  0.00  0.00    +0.000 OA
BRANCH  10  11
ATOM     11  C   UNL     1      -2.624   0.253  -0.413  0.00  0.00    +0.000 C 
BRANCH  11  15
ATOM     12  C   UNL     1      -1.493   1.106   3.658  0.00  0.00    +0.000 A 
ATOM     13  C   UNL     1      -0.952   0.002   3.001  0.00  0.00    +0.000 A 
ATOM     14  C   UNL     1      -1.315  -0.272   1.682  0.00  0.00    +0.000 A 
ATOM     15  C   UNL     1      -2.220   0.558   1.006  0.00  0.00    +0.000 A 
ATOM     16  C   UNL     1      -2.768   1.657   1.681  0.00  0.00    +0.000 A 
ATOM     17  C   UNL     1      -2.402   1.932   2.999  0.00  0.00    +0.000 A 
ENDBRANCH  11  15
ENDBRANCH  10  11
ENDBRANCH   1  10
TORSDOF 4
