REMARK  Name = *****
REMARK  3 active torsions:
REMARK  status: ('A' for Active; 'I' for Inactive)
REMARK    1  A    between atoms: C_3  and  O_7
REMARK    2  A    between atoms: O_7  and  C_8
REMARK    3  A    between atoms: C_8  and  C_10
REMARK                            x       y       z     vdW  Elec       q    Type
REMARK                         _______ _______ _______ _____ _____    ______ ____
ROOT
ATOM      1  C   UNL     1      -1.762   1.811  -2.337  0.00  0.00    +0.000 C 
ATOM      2  O   UNL     1      -2.384   2.670  -1.732  0.00  0.00    +0.000 OA
ENDROOT
BRANCH   1   3
ATOM      3  C   UNL     1      -1.529   1.844  -3.807  0.00  0.00    +0.000 A 
ATOM      4  C   UNL     1      -2.071   2.909  -4.540  0.00  0.00    +0.000 A 
ATOM      5  C   UNL     1      -1.877   2.985  -5.920  0.00  0.00    +0.000 A 
ATOM      6  C   UNL     1      -1.141   1.999  -6.576  0.00  0.00    +0.000 A 
ATOM      7  C   UNL     1      -0.597   0.937  -5.855  0.00  0.00    +0.000 A 
ATOM      8  C   UNL     1      -0.789   0.857  -4.473  0.00  0.00    +0.000 A 
ENDBRANCH   1   3
BRANCH   1   9
ATOM      9  O   UNL     1      -1.186   0.713  -1.792  0.00  0.00    +0.000 OA
BRANCH   9  12
ATOM     10  C   UNL     1       1.178   0.954  -0.010  0.00  0.00    +0.000 C 
ATOM     11  C   UNL     1      -0.240   1.411   0.347  0.00  0.00    +0.000 C 
ATOM     12  C   UNL     1      -1.306   0.569  -0.360  0.00  0.00    +0.000 C 
ATOM     13  C   UNL     1      -1.141  -0.923  -0.019  0.00  0.00    +0.000 C 
ATOM     14  C   UNL     1       0.292  -1.383   0.018  0.00  0.00    +0.000 C 
ATOM     15  C   UNL     1       1.334  -0.538   0.006  0.00  0.00    +0.000 C 
ENDBRANCH   9  12
ENDBRANCH   1   9
TORSDOF 3
