REMARK  Name = *****
REMARK  5 active torsions:
REMARK  status: ('A' for Active; 'I' for Inactive)
REMARK    1  A    between atoms: C_1  and  O_2
REMARK    2  A    between atoms: O_2  and  C_3
REMARK    3  A    between atoms: C_6  and  C_9
REMARK    4  A    between atoms: C_9  and  C_10
REMARK    5  A    between atoms: C_10  and  C_11
REMARK                            x       y       z     vdW  Elec       q    Type
REMARK                         _______ _______ _______ _____ _____    ______ ____
ROOT
ATOM      1  C   UNL     1       3.017   0.599  -0.872  0.00  0.00    +0.000 A 
ATOM      2  C   UNL     1       2.499   0.455  -2.158  0.00  0.00    +0.000 A 
ATOM      3  C   UNL     1       3.175   1.000  -3.256  0.00  0.00    +0.000 A 
ATOM      4  C   UNL     1       4.378   1.696  -3.082  0.00  0.00    +0.000 A 
ATOM      5  C   UNL     1       4.895   1.835  -1.790  0.00  0.00    +0.000 A 
ATOM      6  C   UNL     1       4.218   1.290  -0.697  0.00  0.00    +0.000 A 
ENDROOT
BRANCH   1   8
ATOM      7  C   UNL     1       1.217  -0.561   0.158  0.00  0.00    +0.000 C 
ATOM      8  O   UNL     1       2.460   0.119   0.281  0.00  0.00    +0.000 OA
ENDBRANCH   1   8
BRANCH   4   9
ATOM      9  C   UNL     1       5.097   2.296  -4.264  0.00  0.00    +0.000 C 
BRANCH   9  10
ATOM     10  C   UNL     1       4.387   3.519  -4.866  0.00  0.00    +0.000 C 
BRANCH  10  11
ATOM     11  C   UNL     1       4.259   4.726  -3.921  0.00  0.00    +0.000 C 
ATOM     12  S   UNL     1       5.844   5.408  -3.324  0.00  0.00    +0.000 S 
ATOM     13  C   UNL     1       6.524   6.068  -4.871  0.00  0.00    +0.000 C 
ATOM     14  C   UNL     1       5.642   7.136  -5.500  0.00  0.00    +0.000 C 
ATOM     15  C   UNL     1       4.297   6.620  -5.990  0.00  0.00    +0.000 C 
ATOM     16  S   UNL     1       3.221   6.046  -4.647  0.00  0.00    +0.000 S 
ENDBRANCH  10  11
ENDBRANCH   9  10
ENDBRANCH   4   9
TORSDOF 4
