REMARK  Name = *****
REMARK  4 active torsions:
REMARK  status: ('A' for Active; 'I' for Inactive)
REMARK    1  A    between atoms: C_4  and  C_7
REMARK    2  A    between atoms: C_7  and  C_8
REMARK    3  A    between atoms: C_8  and  C_10
REMARK    4  A    between atoms: C_12  and  C_16
REMARK                            x       y       z     vdW  Elec       q    Type
REMARK                         _______ _______ _______ _____ _____    ______ ____
ROOT
ATOM      1  C   UNL     1      -5.012  -0.714  -0.571  0.00  0.00    +0.000 A 
ATOM      2  C   UNL     1      -5.686   0.506  -0.429  0.00  0.00    +0.000 A 
ATOM      3  C   UNL     1      -7.087   0.574  -0.552  0.00  0.00    +0.000 A 
ATOM      4  C   UNL     1      -7.804  -0.598  -0.837  0.00  0.00    +0.000 A 
ATOM      5  C   UNL     1      -7.141  -1.815  -0.979  0.00  0.00    +0.000 A 
ATOM      6  C   UNL     1      -5.753  -1.872  -0.845  0.00  0.00    +0.000 A 
ENDROOT
BRANCH   3   7
ATOM      7  C   UNL     1      -7.815   1.889  -0.411  0.00  0.00    +0.000 C 
ATOM      8  F   UNL     1      -7.064   2.862   0.176  0.00  0.00    +0.000 F 
ATOM      9  F   UNL     1      -8.203   2.393  -1.615  0.00  0.00    +0.000 F 
ATOM     10  F   UNL     1      -8.948   1.789   0.337  0.00  0.00    +0.000 F 
ENDBRANCH   3   7
BRANCH   1  11
ATOM     11  C   UNL     1      -3.526  -0.844  -0.444  0.00  0.00    +0.000 C 
ATOM     12  O   UNL     1      -3.018  -1.966  -0.474  0.00  0.00    +0.000 OA
BRANCH  11  13
ATOM     13  C   UNL     1      -2.663   0.395  -0.288  0.00  0.00    +0.000 C 
BRANCH  13  17
ATOM     14  C   UNL     1      -2.572   2.062   3.692  0.00  0.00    +0.000 A 
ATOM     15  C   UNL     1      -2.428   0.688   3.511  0.00  0.00    +0.000 A 
ATOM     16  C   UNL     1      -2.459   0.144   2.226  0.00  0.00    +0.000 A 
ATOM     17  C   UNL     1      -2.648   0.969   1.108  0.00  0.00    +0.000 A 
ATOM     18  C   UNL     1      -2.769   2.352   1.302  0.00  0.00    +0.000 A 
ATOM     19  C   UNL     1      -2.739   2.894   2.588  0.00  0.00    +0.000 A 
ENDBRANCH  13  17
ENDBRANCH  11  13
ENDBRANCH   1  11
TORSDOF 4
