REMARK  Name = *****
REMARK  0 active torsions:
REMARK  status: ('A' for Active; 'I' for Inactive)
REMARK                            x       y       z     vdW  Elec       q    Type
REMARK                         _______ _______ _______ _____ _____    ______ ____
ROOT
ATOM      1  C   UNL     1       0.868  -1.333   1.746  0.00  0.00    +0.000 C 
ATOM      2  C   UNL     1       1.522  -0.685   0.554  0.00  0.00    +0.000 A 
ATOM      3  C   UNL     1       2.124  -1.523  -0.407  0.00  0.00    +0.000 A 
ATOM      4  C   UNL     1       2.754  -0.995  -1.532  0.00  0.00    +0.000 A 
ATOM      5  C   UNL     1       2.794   0.381  -1.717  0.00  0.00    +0.000 A 
ATOM      6  C   UNL     1       2.195   1.225  -0.780  0.00  0.00    +0.000 A 
ATOM      7  C   UNL     1       1.542   0.708   0.352  0.00  0.00    +0.000 A 
ATOM      8  S   UNL     1       0.824   1.934   1.450  0.00  0.00    +0.000 S 
ATOM      9  C   UNL     1      -0.865   1.304   1.753  0.00  0.00    +0.000 C 
ATOM     10  C   UNL     1      -1.522   0.661   0.560  0.00  0.00    +0.000 A 
ATOM     11  C   UNL     1      -2.127   1.503  -0.396  0.00  0.00    +0.000 A 
ATOM     12  C   UNL     1      -2.759   0.978  -1.522  0.00  0.00    +0.000 A 
ATOM     13  C   UNL     1      -2.799  -0.397  -1.712  0.00  0.00    +0.000 A 
ATOM     14  C   UNL     1      -2.199  -1.244  -0.780  0.00  0.00    +0.000 A 
ATOM     15  C   UNL     1      -1.543  -0.732   0.353  0.00  0.00    +0.000 A 
ATOM     16  S   UNL     1      -0.822  -1.962   1.444  0.00  0.00    +0.000 S 
ENDROOT
TORSDOF 0
