REMARK  Name = *****
REMARK  3 active torsions:
REMARK  status: ('A' for Active; 'I' for Inactive)
REMARK    1  A    between atoms: C_3  and  S_8
REMARK    2  A    between atoms: S_8  and  C_9
REMARK    3  A    between atoms: C_9  and  C_10
REMARK                            x       y       z     vdW  Elec       q    Type
REMARK                         _______ _______ _______ _____ _____    ______ ____
ROOT
ATOM      1  S   UNL     1      -3.748  -0.168   0.168  0.00  0.00    +0.000 S 
ENDROOT
BRANCH   1   4
ATOM      2  C   UNL     1       0.037   0.960   1.179  0.00  0.00    +0.000 A 
ATOM      3  C   UNL     1      -1.346   0.767   1.208  0.00  0.00    +0.000 A 
ATOM      4  C   UNL     1      -1.987   0.107   0.152  0.00  0.00    +0.000 A 
ATOM      5  C   UNL     1      -1.229  -0.376  -0.921  0.00  0.00    +0.000 A 
ATOM      6  C   UNL     1       0.153  -0.182  -0.950  0.00  0.00    +0.000 A 
ATOM      7  C   UNL     1       0.773   0.487   0.099  0.00  0.00    +0.000 A 
ATOM      8  F   UNL     1       2.098   0.673   0.072  0.00  0.00    +0.000 F 
ENDBRANCH   1   4
BRANCH   1   9
ATOM      9  C   UNL     1      -4.326   1.560   0.122  0.00  0.00    +0.000 C 
BRANCH   9  10
ATOM     10  C   UNL     1      -5.826   1.628   0.009  0.00  0.00    +0.000 A 
ATOM     11  C   UNL     1      -6.450   1.660  -1.243  0.00  0.00    +0.000 A 
ATOM     12  C   UNL     1      -7.833   1.707  -1.286  0.00  0.00    +0.000 A 
ATOM     13  N   UNL     1      -8.632   1.723  -0.200  0.00  0.00    +0.000 NA
ATOM     14  C   UNL     1      -8.012   1.677   0.996  0.00  0.00    +0.000 A 
ATOM     15  C   UNL     1      -6.634   1.628   1.151  0.00  0.00    +0.000 A 
ATOM     16 CL   UNL     1      -8.664   1.756  -2.786  0.00  0.00    +0.000 Cl
ENDBRANCH   9  10
ENDBRANCH   1   9
TORSDOF 3
