REMARK  Name = *****
REMARK  3 active torsions:
REMARK  status: ('A' for Active; 'I' for Inactive)
REMARK    1  A    between atoms: C_4  and  C_7
REMARK    2  A    between atoms: N_8  and  O_9
REMARK    3  A    between atoms: O_9  and  C_10
REMARK                            x       y       z     vdW  Elec       q    Type
REMARK                         _______ _______ _______ _____ _____    ______ ____
ROOT
ATOM      1  C   UNL     1      -2.942   0.489  -0.066  0.00  0.00    +0.000 C 
ATOM      2  N   UNL     1      -3.335   1.727  -0.163  0.00  0.00    +0.000 NA
ATOM      3 CL   UNL     1      -4.099  -0.813  -0.062  0.00  0.00    +0.000 Cl
ENDROOT
BRANCH   1   7
ATOM      4  C   UNL     1       1.288  -0.255   0.263  0.00  0.00    +0.000 A 
ATOM      5  C   UNL     1       0.804   1.051   0.229  0.00  0.00    +0.000 A 
ATOM      6  C   UNL     1      -0.569   1.285   0.121  0.00  0.00    +0.000 A 
ATOM      7  C   UNL     1      -1.471   0.212   0.046  0.00  0.00    +0.000 A 
ATOM      8  C   UNL     1      -0.973  -1.098   0.081  0.00  0.00    +0.000 A 
ATOM      9  C   UNL     1       0.402  -1.328   0.188  0.00  0.00    +0.000 A 
ENDBRANCH   1   7
BRANCH   2  10
ATOM     10  O   UNL     1      -4.729   1.844  -0.249  0.00  0.00    +0.000 OA
BRANCH  10  11
ATOM     11  C   UNL     1      -5.110   3.164  -0.332  0.00  0.00    +0.000 A 
ATOM     12  C   UNL     1      -4.282   4.197  -0.777  0.00  0.00    +0.000 A 
ATOM     13  C   UNL     1      -4.771   5.504  -0.845  0.00  0.00    +0.000 A 
ATOM     14  C   UNL     1      -6.088   5.779  -0.476  0.00  0.00    +0.000 A 
ATOM     15  C   UNL     1      -6.920   4.747  -0.043  0.00  0.00    +0.000 A 
ATOM     16  C   UNL     1      -6.432   3.441   0.025  0.00  0.00    +0.000 A 
ENDBRANCH  10  11
ENDBRANCH   2  10
TORSDOF 3
