REMARK  Name = *****
REMARK  3 active torsions:
REMARK  status: ('A' for Active; 'I' for Inactive)
REMARK    1  A    between atoms: C_4  and  O_7
REMARK    2  A    between atoms: O_7  and  C_8
REMARK    3  A    between atoms: C_9  and  C_10
REMARK                            x       y       z     vdW  Elec       q    Type
REMARK                         _______ _______ _______ _____ _____    ______ ____
ROOT
ATOM      1  C   UNL     1       3.376  -1.642   0.220  0.00  0.00    +0.000 C 
ATOM      2  C   UNL     1       4.151  -2.457  -0.508  0.00  0.00    +0.000 C 
ENDROOT
BRANCH   2   3
ATOM      3  C   UNL     1       4.437  -2.336  -1.945  0.00  0.00    +0.000 A 
ATOM      4  C   UNL     1       4.692  -1.104  -2.559  0.00  0.00    +0.000 A 
ATOM      5  C   UNL     1       4.997  -1.035  -3.921  0.00  0.00    +0.000 A 
ATOM      6  C   UNL     1       5.060  -2.200  -4.682  0.00  0.00    +0.000 A 
ATOM      7  C   UNL     1       4.824  -3.434  -4.080  0.00  0.00    +0.000 A 
ATOM      8  C   UNL     1       4.520  -3.502  -2.718  0.00  0.00    +0.000 A 
ENDBRANCH   2   3
BRANCH   1   9
ATOM      9  O   UNL     1       2.737  -0.540  -0.277  0.00  0.00    +0.000 OA
BRANCH   9  13
ATOM     10  C   UNL     1      -1.359   0.555  -0.164  0.00  0.00    +0.000 C 
ATOM     11  C   UNL     1      -1.017  -0.916   0.053  0.00  0.00    +0.000 C 
ATOM     12  C   UNL     1       0.406  -1.235  -0.396  0.00  0.00    +0.000 C 
ATOM     13  C   UNL     1       1.435  -0.323   0.284  0.00  0.00    +0.000 C 
ATOM     14  C   UNL     1       1.082   1.150   0.052  0.00  0.00    +0.000 C 
ATOM     15  C   UNL     1      -0.338   1.473   0.502  0.00  0.00    +0.000 C 
ENDBRANCH   9  13
ENDBRANCH   1   9
TORSDOF 3
