REMARK  Name = *****
REMARK  4 active torsions:
REMARK  status: ('A' for Active; 'I' for Inactive)
REMARK    1  A    between atoms: C_1  and  C_2
REMARK    2  A    between atoms: C_4  and  C_8
REMARK    3  A    between atoms: C_8  and  O_9
REMARK    4  A    between atoms: O_9  and  C_10
REMARK                            x       y       z     vdW  Elec       q    Type
REMARK                         _______ _______ _______ _____ _____    ______ ____
ROOT
ATOM      1  C   UNL     1      -1.869   2.539   0.001  0.00  0.00    +0.000 C 
ENDROOT
BRANCH   1   5
ATOM      2  C   UNL     1      -0.792  -1.904  -2.162  0.00  0.00    +0.000 C 
ATOM      3  C   UNL     1      -0.576  -0.898  -1.070  0.00  0.00    +0.000 A 
ATOM      4  C   UNL     1      -1.287   0.309  -1.051  0.00  0.00    +0.000 A 
ATOM      5  C   UNL     1      -1.082   1.250  -0.030  0.00  0.00    +0.000 A 
ATOM      6  C   UNL     1      -0.154   0.963   0.981  0.00  0.00    +0.000 A 
ATOM      7  C   UNL     1       0.557  -0.236   0.969  0.00  0.00    +0.000 A 
ATOM      8  C   UNL     1       0.347  -1.163  -0.051  0.00  0.00    +0.000 A 
ENDBRANCH   1   5
BRANCH   1   9
ATOM      9  O   UNL     1      -0.958   3.638   0.014  0.00  0.00    +0.000 OA
BRANCH   9  10
ATOM     10  C   UNL     1      -1.496   4.894   0.065  0.00  0.00    +0.000 A 
ATOM     11  C   UNL     1      -2.858   5.206   0.100  0.00  0.00    +0.000 A 
ATOM     12  C   UNL     1      -3.269   6.541   0.152  0.00  0.00    +0.000 A 
ATOM     13  C   UNL     1      -2.319   7.556   0.168  0.00  0.00    +0.000 A 
ATOM     14  C   UNL     1      -0.962   7.262   0.133  0.00  0.00    +0.000 A 
ATOM     15  C   UNL     1      -0.553   5.929   0.081  0.00  0.00    +0.000 A 
ATOM     16  F   UNL     1      -2.718   8.833   0.218  0.00  0.00    +0.000 F 
ENDBRANCH   9  10
ENDBRANCH   1   9
TORSDOF 3
