REMARK  Name = *****
REMARK  3 active torsions:
REMARK  status: ('A' for Active; 'I' for Inactive)
REMARK    1  A    between atoms: C_2  and  C_3
REMARK    2  A    between atoms: C_3  and  C_13
REMARK    3  A    between atoms: C_5  and  C_6
REMARK                            x       y       z     vdW  Elec       q    Type
REMARK                         _______ _______ _______ _____ _____    ______ ____
ROOT
ATOM      1  C   UNL     1       3.466   0.032   0.034  0.00  0.00    +0.000 C 
ATOM      2  C   UNL     1       4.268   0.790  -1.015  0.00  0.00    +0.000 C 
ATOM      3  C   UNL     1       4.222  -0.710  -1.088  0.00  0.00    +0.000 C 
ENDROOT
BRANCH   3   4
ATOM      4  C   UNL     1       3.501  -1.412  -2.219  0.00  0.00    +0.000 A 
ATOM      5  C   UNL     1       3.672  -1.019  -3.560  0.00  0.00    +0.000 A 
ATOM      6  C   UNL     1       3.023  -1.685  -4.602  0.00  0.00    +0.000 A 
ATOM      7  C   UNL     1       2.199  -2.764  -4.315  0.00  0.00    +0.000 A 
ATOM      8  C   UNL     1       2.017  -3.191  -3.008  0.00  0.00    +0.000 A 
ATOM      9  C   UNL     1       2.669  -2.521  -1.970  0.00  0.00    +0.000 A 
ATOM     10  F   UNL     1       1.576  -3.405  -5.313  0.00  0.00    +0.000 F 
ENDBRANCH   3   4
BRANCH   1  11
ATOM     11  C   UNL     1       4.071  -0.076   1.440  0.00  0.00    +0.000 A 
ATOM     12  C   UNL     1       4.258  -1.324   2.061  0.00  0.00    +0.000 A 
ATOM     13  C   UNL     1       4.800  -1.426   3.345  0.00  0.00    +0.000 A 
ATOM     14  C   UNL     1       5.159  -0.276   4.042  0.00  0.00    +0.000 A 
ATOM     15  C   UNL     1       4.973   0.974   3.457  0.00  0.00    +0.000 A 
ATOM     16  C   UNL     1       4.431   1.070   2.173  0.00  0.00    +0.000 A 
ENDBRANCH   1  11
BRANCH   1  18
ATOM     17  C   UNL     1       0.835   0.306  -0.190  0.00  0.00    +0.000 C 
ATOM     18  C   UNL     1       2.026   0.180  -0.092  0.00  0.00    +0.000 C 
ENDBRANCH   1  18
TORSDOF 3
