REMARK  Name = *****
REMARK  3 active torsions:
REMARK  status: ('A' for Active; 'I' for Inactive)
REMARK    1  A    between atoms: C_2  and  C_3
REMARK    2  A    between atoms: C_6  and  C_8
REMARK    3  A    between atoms: C_9  and  C_10
REMARK                            x       y       z     vdW  Elec       q    Type
REMARK                         _______ _______ _______ _____ _____    ______ ____
ROOT
ATOM      1  C   UNL     1       7.041  -1.652  -0.076  0.00  0.00    +0.000 C 
ATOM      2  C   UNL     1       6.941  -2.987   0.025  0.00  0.00    +0.000 C 
ENDROOT
BRANCH   2   3
ATOM      3  C   UNL     1       8.105  -3.885   0.048  0.00  0.00    +0.000 A 
ATOM      4  C   UNL     1       9.262  -3.589   0.781  0.00  0.00    +0.000 A 
ATOM      5  C   UNL     1      10.336  -4.482   0.805  0.00  0.00    +0.000 A 
ATOM      6  C   UNL     1      10.260  -5.685   0.106  0.00  0.00    +0.000 A 
ATOM      7  C   UNL     1       9.108  -5.998  -0.613  0.00  0.00    +0.000 A 
ATOM      8  C   UNL     1       8.034  -5.106  -0.636  0.00  0.00    +0.000 A 
ENDBRANCH   2   3
BRANCH   1  12
ATOM      9  C   UNL     1       4.478   1.247  -0.193  0.00  0.00    +0.000 A 
ATOM     10  C   UNL     1       3.727   0.100  -0.094  0.00  0.00    +0.000 A 
ATOM     11  C   UNL     1       4.541  -1.071  -0.040  0.00  0.00    +0.000 A 
ATOM     12  C   UNL     1       5.898  -0.796  -0.100  0.00  0.00    +0.000 A 
ATOM     13  S   UNL     1       6.148   0.910  -0.223  0.00  0.00    +0.000 S 
BRANCH   9  15
ATOM     14  C   UNL     1       3.493   3.679  -0.321  0.00  0.00    +0.000 C 
ATOM     15  C   UNL     1       3.944   2.568  -0.263  0.00  0.00    +0.000 C 
ENDBRANCH   9  15
ENDBRANCH   1  12
TORSDOF 3
