REMARK  Name = *****
REMARK  6 active torsions:
REMARK  status: ('A' for Active; 'I' for Inactive)
REMARK    1  A    between atoms: C_1  and  C_2
REMARK    2  A    between atoms: C_4  and  C_18
REMARK    3  A    between atoms: C_5  and  C_9
REMARK    4  A    between atoms: C_6  and  C_8
REMARK    5  A    between atoms: C_9  and  O_11
REMARK    6  A    between atoms: O_11  and  C_12
REMARK                            x       y       z     vdW  Elec       q    Type
REMARK                         _______ _______ _______ _____ _____    ______ ____
ROOT
ATOM      1  C   UNL     1       2.194   1.691  -0.546  0.00  0.00    +0.000 C 
ATOM      2  C   UNL     1       1.051   0.767  -0.242  0.00  0.00    +0.000 A 
ATOM      3  C   UNL     1       1.295  -0.559   0.133  0.00  0.00    +0.000 A 
ATOM      4  C   UNL     1       0.241  -1.425   0.466  0.00  0.00    +0.000 A 
ATOM      5  C   UNL     1      -1.083  -0.942   0.392  0.00  0.00    +0.000 A 
ATOM      6  C   UNL     1      -1.345   0.397   0.034  0.00  0.00    +0.000 A 
ATOM      7  C   UNL     1      -0.266   1.241  -0.267  0.00  0.00    +0.000 A 
ATOM      8  C   UNL     1      -2.744   0.949  -0.007  0.00  0.00    +0.000 C 
ATOM      9  C   UNL     1       0.559  -2.840   0.865  0.00  0.00    +0.000 C 
ENDROOT
BRANCH   5  10
ATOM     10  C   UNL     1      -2.221  -1.832   0.720  0.00  0.00    +0.000 C 
ATOM     11  O   UNL     1      -3.003  -1.621   1.632  0.00  0.00    +0.000 OA
BRANCH  10  12
ATOM     12  O   UNL     1      -2.241  -2.827  -0.211  0.00  0.00    +0.000 OA
BRANCH  12  13
ATOM     13  C   UNL     1      -3.224  -3.842  -0.113  0.00  0.00    +0.000 C 
ATOM     14  C   UNL     1      -3.771  -4.316  -1.243  0.00  0.00    +0.000 C 
ATOM     15  C   UNL     1      -4.760  -5.443  -1.274  0.00  0.00    +0.000 C 
ATOM     16  C   UNL     1      -5.266  -5.850   0.112  0.00  0.00    +0.000 C 
ATOM     17  C   UNL     1      -4.138  -5.836   1.141  0.00  0.00    +0.000 C 
ATOM     18  C   UNL     1      -3.509  -4.443   1.240  0.00  0.00    +0.000 C 
ENDBRANCH  12  13
ENDBRANCH  10  12
ENDBRANCH   5  10
TORSDOF 3
