REMARK  Name = *****
REMARK  2 active torsions:
REMARK  status: ('A' for Active; 'I' for Inactive)
REMARK    1  A    between atoms: C_4  and  C_7
REMARK    2  A    between atoms: C_8  and  C_9
REMARK                            x       y       z     vdW  Elec       q    Type
REMARK                         _______ _______ _______ _____ _____    ______ ____
ROOT
ATOM      1  C   UNL     1      -2.807   0.476  -0.231  0.00  0.00    +0.000 C 
ATOM      2  C   UNL     1      -3.748  -0.483  -0.261  0.00  0.00    +0.000 C 
ENDROOT
BRANCH   2   3
ATOM      3  C   UNL     1      -5.191  -0.232  -0.409  0.00  0.00    +0.000 A 
ATOM      4  C   UNL     1      -5.990  -1.181  -1.062  0.00  0.00    +0.000 A 
ATOM      5  C   UNL     1      -7.365  -1.007  -1.206  0.00  0.00    +0.000 A 
ATOM      6  C   UNL     1      -7.962   0.131  -0.677  0.00  0.00    +0.000 A 
ATOM      7  C   UNL     1      -7.197   1.084  -0.006  0.00  0.00    +0.000 A 
ATOM      8  C   UNL     1      -5.817   0.900   0.132  0.00  0.00    +0.000 A 
ATOM      9 BR   UNL     1      -9.826   0.384  -0.860  0.00  0.00    +0.000 Br
ATOM     10  F   UNL     1      -5.435  -2.291  -1.574  0.00  0.00    +0.000 F 
ENDBRANCH   2   3
BRANCH   1  14
ATOM     11  C   UNL     1       1.399  -0.204   0.167  0.00  0.00    +0.000 A 
ATOM     12  C   UNL     1       0.630  -1.088  -0.587  0.00  0.00    +0.000 A 
ATOM     13  C   UNL     1      -0.746  -0.882  -0.720  0.00  0.00    +0.000 A 
ATOM     14  C   UNL     1      -1.368   0.204  -0.091  0.00  0.00    +0.000 A 
ATOM     15  C   UNL     1      -0.581   1.095   0.651  0.00  0.00    +0.000 A 
ATOM     16  C   UNL     1       0.794   0.889   0.784  0.00  0.00    +0.000 A 
ENDBRANCH   1  14
TORSDOF 2
