REMARK  Name = *****
REMARK  4 active torsions:
REMARK  status: ('A' for Active; 'I' for Inactive)
REMARK    1  A    between atoms: C_1  and  C_2
REMARK    2  A    between atoms: C_5  and  C_8
REMARK    3  A    between atoms: C_9  and  C_10
REMARK    4  A    between atoms: C_13  and  C_16
REMARK                            x       y       z     vdW  Elec       q    Type
REMARK                         _______ _______ _______ _____ _____    ______ ____
ROOT
ATOM      1  C   UNL     1      -3.276   0.053  -0.063  0.00  0.00    +0.000 C 
ATOM      2  C   UNL     1      -4.046   1.154  -0.075  0.00  0.00    +0.000 C 
ENDROOT
BRANCH   1   7
ATOM      3  C   UNL     1       2.514   0.005  -0.044  0.00  0.00    +0.000 C 
ATOM      4  C   UNL     1       1.015   0.049  -0.068  0.00  0.00    +0.000 A 
ATOM      5  C   UNL     1       0.318   0.993   0.693  0.00  0.00    +0.000 A 
ATOM      6  C   UNL     1      -1.080   1.012   0.694  0.00  0.00    +0.000 A 
ATOM      7  C   UNL     1      -1.807   0.087  -0.065  0.00  0.00    +0.000 A 
ATOM      8  C   UNL     1      -1.107  -0.877  -0.800  0.00  0.00    +0.000 A 
ATOM      9  C   UNL     1       0.291  -0.896  -0.803  0.00  0.00    +0.000 A 
ENDBRANCH   1   7
BRANCH   2  10
ATOM     10  C   UNL     1      -5.515   1.120  -0.091  0.00  0.00    +0.000 A 
ATOM     11  C   UNL     1      -6.250   0.205   0.672  0.00  0.00    +0.000 A 
ATOM     12  C   UNL     1      -7.648   0.224   0.656  0.00  0.00    +0.000 A 
ATOM     13  C   UNL     1      -8.337   1.159  -0.125  0.00  0.00    +0.000 A 
ATOM     14  C   UNL     1      -7.605   2.094  -0.864  0.00  0.00    +0.000 A 
ATOM     15  C   UNL     1      -6.207   2.075  -0.846  0.00  0.00    +0.000 A 
ATOM     16  C   UNL     1      -9.836   1.202  -0.116  0.00  0.00    +0.000 C 
ENDBRANCH   2  10
TORSDOF 2
