REMARK  Name = *****
REMARK  3 active torsions:
REMARK  status: ('A' for Active; 'I' for Inactive)
REMARK    1  A    between atoms: C_4  and  C_7
REMARK    2  A    between atoms: C_7  and  O_9
REMARK    3  A    between atoms: O_9  and  C_10
REMARK                            x       y       z     vdW  Elec       q    Type
REMARK                         _______ _______ _______ _____ _____    ______ ____
ROOT
ATOM      1  C   UNL     1       5.647  -3.899  -2.117  0.00  0.00    +0.000 C 
ATOM      2  O   UNL     1       6.537  -4.009  -2.949  0.00  0.00    +0.000 OA
ENDROOT
BRANCH   1   6
ATOM      3  C   UNL     1       2.295  -6.114  -0.435  0.00  0.00    +0.000 C 
ATOM      4  C   UNL     1       2.350  -5.905  -1.946  0.00  0.00    +0.000 C 
ATOM      5  C   UNL     1       3.319  -4.787  -2.325  0.00  0.00    +0.000 C 
ATOM      6  C   UNL     1       4.711  -5.029  -1.735  0.00  0.00    +0.000 C 
ATOM      7  C   UNL     1       4.653  -5.236  -0.218  0.00  0.00    +0.000 C 
ATOM      8  C   UNL     1       3.683  -6.356   0.153  0.00  0.00    +0.000 C 
ENDBRANCH   1   6
BRANCH   1   9
ATOM      9  O   UNL     1       5.338  -2.754  -1.450  0.00  0.00    +0.000 OA
BRANCH   9  10
ATOM     10  C   UNL     1       6.132  -1.585  -1.768  0.00  0.00    +0.000 C 
ATOM     11  C   UNL     1       5.551  -0.906  -3.017  0.00  0.00    +0.000 C 
ATOM     12  C   UNL     1       4.154  -0.338  -2.766  0.00  0.00    +0.000 C 
ATOM     13  C   UNL     1       4.132   0.605  -1.566  0.00  0.00    +0.000 C 
ATOM     14  C   UNL     1       4.702  -0.060  -0.314  0.00  0.00    +0.000 C 
ATOM     15  C   UNL     1       6.095  -0.662  -0.537  0.00  0.00    +0.000 C 
ATOM     16 CL   UNL     1       7.318   0.642  -0.684  0.00  0.00    +0.000 Cl
ENDBRANCH   9  10
ENDBRANCH   1   9
TORSDOF 3
