REMARK  Name = *****
REMARK  3 active torsions:
REMARK  status: ('A' for Active; 'I' for Inactive)
REMARK    1  A    between atoms: C_5  and  C_7
REMARK    2  A    between atoms: C_7  and  S_8
REMARK    3  A    between atoms: S_8  and  C_9
REMARK                            x       y       z     vdW  Elec       q    Type
REMARK                         _______ _______ _______ _____ _____    ______ ____
ROOT
ATOM      1  C   UNL     1      -0.948  -5.436   0.237  0.00  0.00    +0.000 A 
ATOM      2  C   UNL     1      -0.456  -6.451  -0.597  0.00  0.00    +0.000 A 
ATOM      3  C   UNL     1      -1.207  -7.595  -0.858  0.00  0.00    +0.000 A 
ATOM      4  C   UNL     1      -2.459  -7.750  -0.285  0.00  0.00    +0.000 A 
ATOM      5  C   UNL     1      -2.959  -6.766   0.552  0.00  0.00    +0.000 A 
ATOM      6  C   UNL     1      -2.209  -5.621   0.815  0.00  0.00    +0.000 A 
ATOM      7  F   UNL     1      -2.718  -4.703   1.650  0.00  0.00    +0.000 F 
ATOM      8  F   UNL     1      -4.165  -6.916   1.117  0.00  0.00    +0.000 F 
ATOM      9  F   UNL     1      -3.182  -8.851  -0.535  0.00  0.00    +0.000 F 
ATOM     10  F   UNL     1      -0.717  -8.547  -1.663  0.00  0.00    +0.000 F 
ATOM     11  F   UNL     1       0.754  -6.336  -1.166  0.00  0.00    +0.000 F 
ENDROOT
BRANCH   1  12
ATOM     12  S   UNL     1       0.074  -4.002   0.556  0.00  0.00    +0.000 S 
BRANCH  12  13
ATOM     13  C   UNL     1      -1.153  -2.647   0.446  0.00  0.00    +0.000 C 
BRANCH  13  18
ATOM     14  C   UNL     1       0.818   0.568   0.876  0.00  0.00    +0.000 A 
ATOM     15  C   UNL     1       0.666   1.111  -0.393  0.00  0.00    +0.000 A 
ATOM     16  C   UNL     1      -0.073   0.401  -1.323  0.00  0.00    +0.000 A 
ATOM     17  N   UNL     1      -0.657  -0.791  -1.070  0.00  0.00    +0.000 NA
ATOM     18  C   UNL     1      -0.498  -1.314   0.173  0.00  0.00    +0.000 A 
ATOM     19  C   UNL     1       0.229  -0.660   1.168  0.00  0.00    +0.000 A 
ENDBRANCH  13  18
ENDBRANCH  12  13
ENDBRANCH   1  12
TORSDOF 3
