REMARK  Name = *****
REMARK  2 active torsions:
REMARK  status: ('A' for Active; 'I' for Inactive)
REMARK    1  A    between atoms: C_4  and  N_7
REMARK    2  A    between atoms: C_8  and  C_9
REMARK                            x       y       z     vdW  Elec       q    Type
REMARK                         _______ _______ _______ _____ _____    ______ ____
ROOT
ATOM      1  N   UNL     1      -2.674   0.265  -0.867  0.00  0.00    +0.000 NA
ATOM      2  C   UNL     1      -3.593  -0.227  -0.100  0.00  0.00    +0.000 C 
ENDROOT
BRANCH   2   3
ATOM      3  C   UNL     1      -5.026  -0.114  -0.426  0.00  0.00    +0.000 A 
ATOM      4  C   UNL     1      -5.594   1.087  -0.877  0.00  0.00    +0.000 A 
ATOM      5  C   UNL     1      -6.959   1.143  -1.186  0.00  0.00    +0.000 A 
ATOM      6  C   UNL     1      -7.765   0.015  -1.042  0.00  0.00    +0.000 A 
ATOM      7  C   UNL     1      -7.209  -1.175  -0.579  0.00  0.00    +0.000 A 
ATOM      8  C   UNL     1      -5.845  -1.242  -0.269  0.00  0.00    +0.000 A 
ATOM      9 CL   UNL     1      -5.237  -2.769   0.273  0.00  0.00    +0.000 Cl
ATOM     10 CL   UNL     1      -4.714   2.571  -1.001  0.00  0.00    +0.000 Cl
ENDBRANCH   2   3
BRANCH   1  14
ATOM     11  C   UNL     1       1.294  -0.286   0.397  0.00  0.00    +0.000 A 
ATOM     12  C   UNL     1       0.651  -1.286  -0.332  0.00  0.00    +0.000 A 
ATOM     13  C   UNL     1      -0.668  -1.104  -0.753  0.00  0.00    +0.000 A 
ATOM     14  C   UNL     1      -1.353   0.073  -0.439  0.00  0.00    +0.000 A 
ATOM     15  C   UNL     1      -0.697   1.077   0.277  0.00  0.00    +0.000 A 
ATOM     16  C   UNL     1       0.622   0.897   0.699  0.00  0.00    +0.000 A 
ENDBRANCH   1  14
TORSDOF 2
