REMARK  Name = *****
REMARK  4 active torsions:
REMARK  status: ('A' for Active; 'I' for Inactive)
REMARK    1  A    between atoms: C_4  and  O_19
REMARK    2  A    between atoms: C_5  and  C_7
REMARK    3  A    between atoms: C_8  and  C_9
REMARK    4  A    between atoms: C_12  and  C_15
REMARK                            x       y       z     vdW  Elec       q    Type
REMARK                         _______ _______ _______ _____ _____    ______ ____
ROOT
ATOM      1  C   UNL     1       2.930   0.197  -0.350  0.00  0.00    +0.000 C 
ATOM      2  C   UNL     1       4.118   0.259  -0.515  0.00  0.00    +0.000 C 
ENDROOT
BRANCH   1   7
ATOM      3  C   UNL     1      -0.483  -1.215   0.136  0.00  0.00    +0.000 A 
ATOM      4  C   UNL     1      -1.256  -0.057   0.216  0.00  0.00    +0.000 A 
ATOM      5  C   UNL     1      -0.652   1.197   0.110  0.00  0.00    +0.000 A 
ATOM      6  C   UNL     1       0.729   1.286  -0.076  0.00  0.00    +0.000 A 
ATOM      7  C   UNL     1       1.512   0.129  -0.157  0.00  0.00    +0.000 A 
ATOM      8  C   UNL     1       0.898  -1.123  -0.050  0.00  0.00    +0.000 A 
BRANCH   6   9
ATOM      9  O   UNL     1       1.323   2.516  -0.180  0.00  0.00    +0.000 OA
ATOM     10  H   UNL     1       0.802   3.293  -0.126  0.00  0.00    +0.000 HD
ENDBRANCH   6   9
ENDBRANCH   1   7
BRANCH   2  11
ATOM     11  C   UNL     1       5.531   0.349  -0.715  0.00  0.00    +0.000 A 
ATOM     12  C   UNL     1       6.144   1.600  -0.805  0.00  0.00    +0.000 A 
ATOM     13  C   UNL     1       7.524   1.694  -1.005  0.00  0.00    +0.000 A 
ATOM     14  C   UNL     1       8.307   0.535  -1.117  0.00  0.00    +0.000 A 
ATOM     15  C   UNL     1       7.680  -0.719  -1.024  0.00  0.00    +0.000 A 
ATOM     16  C   UNL     1       6.300  -0.810  -0.824  0.00  0.00    +0.000 A 
BRANCH  14  17
ATOM     17  C   UNL     1       9.799   0.616  -1.335  0.00  0.00    +0.000 C 
ATOM     18  F   UNL     1      10.272   1.892  -1.407  0.00  0.00    +0.000 F 
ATOM     19  F   UNL     1      10.504   0.014  -0.337  0.00  0.00    +0.000 F 
ATOM     20  F   UNL     1      10.191   0.008  -2.488  0.00  0.00    +0.000 F 
ENDBRANCH  14  17
ENDBRANCH   2  11
TORSDOF 4
