REMARK  Name = *****
REMARK  5 active torsions:
REMARK  status: ('A' for Active; 'I' for Inactive)
REMARK    1  A    between atoms: C_4  and  C_7
REMARK    2  A    between atoms: C_7  and  C_8
REMARK    3  A    between atoms: C_7  and  C_11
REMARK    4  A    between atoms: C_8  and  C_9
REMARK    5  A    between atoms: C_11  and  C_12
REMARK                            x       y       z     vdW  Elec       q    Type
REMARK                         _______ _______ _______ _____ _____    ______ ____
ROOT
ATOM      1  C   UNL     1      -2.716   0.305  -0.333  0.00  0.00    +0.000 C 
ENDROOT
BRANCH   1   5
ATOM      2  C   UNL     1      -2.970   2.997  -3.728  0.00  0.00    +0.000 A 
ATOM      3  C   UNL     1      -2.670   3.481  -2.458  0.00  0.00    +0.000 A 
ATOM      4  C   UNL     1      -2.600   2.605  -1.374  0.00  0.00    +0.000 A 
ATOM      5  C   UNL     1      -2.832   1.229  -1.542  0.00  0.00    +0.000 A 
ATOM      6  C   UNL     1      -3.128   0.757  -2.830  0.00  0.00    +0.000 A 
ATOM      7  C   UNL     1      -3.197   1.636  -3.914  0.00  0.00    +0.000 A 
ENDBRANCH   1   5
BRANCH   1   8
ATOM      8  C   UNL     1      -1.252  -0.111  -0.105  0.00  0.00    +0.000 C 
BRANCH   8   9
ATOM      9  C   UNL     1      -0.700  -0.948  -1.229  0.00  0.00    +0.000 C 
ATOM     10  O   UNL     1      -0.604  -2.171  -1.173  0.00  0.00    +0.000 OA
ENDBRANCH   8   9
ENDBRANCH   1   8
BRANCH   1  11
ATOM     11  C   UNL     1      -3.697  -0.893  -0.373  0.00  0.00    +0.000 C 
BRANCH  11  12
ATOM     12  C   UNL     1      -3.837  -1.604   0.956  0.00  0.00    +0.000 A 
ATOM     13  C   UNL     1      -4.615  -1.044   1.981  0.00  0.00    +0.000 A 
ATOM     14  C   UNL     1      -4.735  -1.695   3.210  0.00  0.00    +0.000 A 
ATOM     15  C   UNL     1      -4.079  -2.903   3.413  0.00  0.00    +0.000 A 
ATOM     16  C   UNL     1      -3.305  -3.474   2.410  0.00  0.00    +0.000 A 
ATOM     17  C   UNL     1      -3.184  -2.825   1.181  0.00  0.00    +0.000 A 
ATOM     18  F   UNL     1      -4.195  -3.526   4.593  0.00  0.00    +0.000 F 
ENDBRANCH  11  12
ENDBRANCH   1  11
TORSDOF 5
