REMARK  Name = *****
REMARK  3 active torsions:
REMARK  status: ('A' for Active; 'I' for Inactive)
REMARK    1  A    between atoms: N_9  and  O_10
REMARK    2  A    between atoms: O_10  and  C_11
REMARK    3  A    between atoms: C_11  and  C_12
REMARK                            x       y       z     vdW  Elec       q    Type
REMARK                         _______ _______ _______ _____ _____    ______ ____
ROOT
ATOM      1  C   UNL     1       1.106   0.119  -0.163  0.00  0.00    +0.000 C 
ATOM      2  C   UNL     1       2.432   0.013  -0.079  0.00  0.00    +0.000 C 
ATOM      3  C   UNL     1       3.371  -1.062  -0.577  0.00  0.00    +0.000 C 
ATOM      4  C   UNL     1       3.993  -1.775   0.640  0.00  0.00    +0.000 C 
ATOM      5  C   UNL     1       4.934  -0.705   1.249  0.00  0.00    +0.000 C 
ATOM      6  C   UNL     1       4.768   0.490   0.297  0.00  0.00    +0.000 C 
ATOM      7  C   UNL     1       4.551  -0.206  -1.053  0.00  0.00    +0.000 C 
ATOM      8  C   UNL     1       3.366   1.024   0.519  0.00  0.00    +0.000 C 
ATOM      9  N   UNL     1       3.014   2.108   1.126  0.00  0.00    +0.000 NA
ENDROOT
BRANCH   9  10
ATOM     10  O   UNL     1       4.145   2.799   1.588  0.00  0.00    +0.000 OA
BRANCH  10  11
ATOM     11  C   UNL     1       3.718   3.991   2.249  0.00  0.00    +0.000 C 
BRANCH  11  12
ATOM     12  C   UNL     1       4.930   4.764   2.703  0.00  0.00    +0.000 A 
ATOM     13  C   UNL     1       5.858   5.240   1.764  0.00  0.00    +0.000 A 
ATOM     14  C   UNL     1       6.977   5.965   2.177  0.00  0.00    +0.000 A 
ATOM     15  C   UNL     1       7.178   6.225   3.531  0.00  0.00    +0.000 A 
ATOM     16  C   UNL     1       6.263   5.759   4.473  0.00  0.00    +0.000 A 
ATOM     17  C   UNL     1       5.144   5.032   4.062  0.00  0.00    +0.000 A 
ENDBRANCH  11  12
ENDBRANCH  10  11
ENDBRANCH   9  10
TORSDOF 3
