REMARK  Name = *****
REMARK  2 active torsions:
REMARK  status: ('A' for Active; 'I' for Inactive)
REMARK    1  A    between atoms: C_9  and  C_10
REMARK    2  A    between atoms: C_10  and  C_11
REMARK                            x       y       z     vdW  Elec       q    Type
REMARK                         _______ _______ _______ _____ _____    ______ ____
ROOT
ATOM      1  C   UNL     1       2.420   0.123  -0.432  0.00  0.00    +0.000 C 
ATOM      2  C   UNL     1       1.573   1.324   0.013  0.00  0.00    +0.000 C 
ATOM      3  C   UNL     1       0.202   0.726   0.004  0.00  0.00    +0.000 A 
ATOM      4  C   UNL     1      -1.014   1.389   0.016  0.00  0.00    +0.000 A 
ATOM      5  C   UNL     1      -2.184   0.627   0.039  0.00  0.00    +0.000 A 
ATOM      6  C   UNL     1      -2.124  -0.776   0.062  0.00  0.00    +0.000 A 
ATOM      7  C   UNL     1      -0.893  -1.436   0.063  0.00  0.00    +0.000 A 
ATOM      8  C   UNL     1       0.263  -0.672   0.034  0.00  0.00    +0.000 A 
ATOM      9  C   UNL     1       1.692  -1.151   0.059  0.00  0.00    +0.000 C 
ENDROOT
BRANCH   9  10
ATOM     10  C   UNL     1       2.103  -1.596   1.472  0.00  0.00    +0.000 C 
BRANCH  10  11
ATOM     11  C   UNL     1       3.527  -2.094   1.559  0.00  0.00    +0.000 A 
ATOM     12  C   UNL     1       4.476  -1.394   2.316  0.00  0.00    +0.000 A 
ATOM     13  C   UNL     1       5.787  -1.857   2.389  0.00  0.00    +0.000 A 
ATOM     14  C   UNL     1       6.178  -3.012   1.723  0.00  0.00    +0.000 A 
ATOM     15  C   UNL     1       5.241  -3.719   0.972  0.00  0.00    +0.000 A 
ATOM     16  C   UNL     1       3.922  -3.264   0.893  0.00  0.00    +0.000 A 
ATOM     17  F   UNL     1       6.686  -1.177   3.113  0.00  0.00    +0.000 F 
ENDBRANCH  10  11
ENDBRANCH   9  10
TORSDOF 2
