REMARK  Name = *****
REMARK  5 active torsions:
REMARK  status: ('A' for Active; 'I' for Inactive)
REMARK    1  A    between atoms: C_4  and  C_7
REMARK    2  A    between atoms: C_7  and  C_8
REMARK    3  A    between atoms: C_8  and  C_9
REMARK    4  A    between atoms: C_8  and  N_16
REMARK    5  A    between atoms: C_9  and  C_10
REMARK                            x       y       z     vdW  Elec       q    Type
REMARK                         _______ _______ _______ _____ _____    ______ ____
ROOT
ATOM      1  C   UNL     1      -3.790  -0.917  -0.134  0.00  0.00    +0.000 C 
ATOM      2 CL   UNL     1      -5.487  -0.265  -0.317  0.00  0.00    +0.000 Cl
ENDROOT
BRANCH   1   3
ATOM      3  N   UNL     1      -3.951  -1.994   0.931  0.00  0.00    +0.000 NA
ATOM      4  O   UNL     1      -3.254  -1.830   1.938  0.00  0.00    +0.000 OA
ENDBRANCH   1   3
BRANCH   1   5
ATOM      5  C   UNL     1      -2.835   0.222   0.322  0.00  0.00    +0.000 C 
BRANCH   5   9
ATOM      6  C   UNL     1      -1.967   3.420  -2.463  0.00  0.00    +0.000 A 
ATOM      7  C   UNL     1      -3.192   3.388  -1.803  0.00  0.00    +0.000 A 
ATOM      8  C   UNL     1      -3.476   2.361  -0.900  0.00  0.00    +0.000 A 
ATOM      9  C   UNL     1      -2.545   1.343  -0.658  0.00  0.00    +0.000 A 
ATOM     10  C   UNL     1      -1.304   1.405  -1.310  0.00  0.00    +0.000 A 
ATOM     11  C   UNL     1      -1.020   2.432  -2.212  0.00  0.00    +0.000 A 
ENDBRANCH   5   9
ENDBRANCH   1   5
BRANCH   1  12
ATOM     12  C   UNL     1      -3.419  -1.592  -1.482  0.00  0.00    +0.000 C 
BRANCH  12  13
ATOM     13  C   UNL     1      -2.005  -2.109  -1.678  0.00  0.00    +0.000 A 
ATOM     14  C   UNL     1      -1.438  -3.073  -0.834  0.00  0.00    +0.000 A 
ATOM     15  C   UNL     1      -0.140  -3.542  -1.057  0.00  0.00    +0.000 A 
ATOM     16  C   UNL     1       0.601  -3.069  -2.136  0.00  0.00    +0.000 A 
ATOM     17  C   UNL     1       0.042  -2.134  -3.001  0.00  0.00    +0.000 A 
ATOM     18  C   UNL     1      -1.254  -1.665  -2.779  0.00  0.00    +0.000 A 
ENDBRANCH  12  13
ENDBRANCH   1  12
TORSDOF 5
