REMARK  Name = *****
REMARK  4 active torsions:
REMARK  status: ('A' for Active; 'I' for Inactive)
REMARK    1  A    between atoms: C_1  and  C_2
REMARK    2  A    between atoms: C_5  and  N_8
REMARK    3  A    between atoms: C_9  and  C_10
REMARK    4  A    between atoms: C_14  and  C_16
REMARK                            x       y       z     vdW  Elec       q    Type
REMARK                         _______ _______ _______ _____ _____    ______ ____
ROOT
ATOM      1  N   UNL     1      -3.186  -0.270   0.064  0.00  0.00    +0.000 NA
ATOM      2  C   UNL     1      -3.909   0.770  -0.245  0.00  0.00    +0.000 C 
ENDROOT
BRANCH   2   3
ATOM      3  C   UNL     1      -5.399   0.751  -0.224  0.00  0.00    +0.000 C 
ATOM      4  C   UNL     1      -6.125   1.936  -0.521  0.00  0.00    +0.000 C 
ATOM      5  C   UNL     1      -7.527   1.775  -0.476  0.00  0.00    +0.000 C 
ATOM      6  C   UNL     1      -8.167   0.565  -0.164  0.00  0.00    +0.000 C 
ATOM      7  C   UNL     1      -7.421  -0.570   0.138  0.00  0.00    +0.000 C 
ATOM      8  C   UNL     1      -6.030  -0.471   0.093  0.00  0.00    +0.000 C 
ATOM      9  C   UNL     1      -8.086  -1.875   0.436  0.00  0.00    +0.000 C 
ATOM     10  O   UNL     1      -5.607   3.069  -0.809  0.00  0.00    +0.000 OA
ENDBRANCH   2   3
BRANCH   1  15
ATOM     11  C   UNL     1       2.495   0.320  -0.148  0.00  0.00    +0.000 C 
ATOM     12  C   UNL     1       1.003   0.192  -0.107  0.00  0.00    +0.000 A 
ATOM     13  C   UNL     1       0.264   0.831   0.897  0.00  0.00    +0.000 A 
ATOM     14  C   UNL     1      -1.125   0.688   0.951  0.00  0.00    +0.000 A 
ATOM     15  C   UNL     1      -1.797  -0.092   0.007  0.00  0.00    +0.000 A 
ATOM     16  C   UNL     1      -1.058  -0.752  -0.976  0.00  0.00    +0.000 A 
ATOM     17  C   UNL     1       0.331  -0.614  -1.035  0.00  0.00    +0.000 A 
ENDBRANCH   1  15
TORSDOF 2
