REMARK  Name = *****
REMARK  2 active torsions:
REMARK  status: ('A' for Active; 'I' for Inactive)
REMARK    1  A    between atoms: C_3  and  C_8
REMARK    2  A    between atoms: C_9  and  C_10
REMARK                            x       y       z     vdW  Elec       q    Type
REMARK                         _______ _______ _______ _____ _____    ______ ____
ROOT
ATOM      1  C   UNL     1       1.614  -1.090   0.626  0.00  0.00    +0.000 A 
ATOM      2  C   UNL     1       2.275   0.139   0.567  0.00  0.00    +0.000 A 
ATOM      3  C   UNL     1       1.663   1.256  -0.019  0.00  0.00    +0.000 A 
ATOM      4  C   UNL     1       0.383   1.113  -0.572  0.00  0.00    +0.000 A 
ATOM      5  C   UNL     1      -0.273  -0.117  -0.511  0.00  0.00    +0.000 A 
ATOM      6  C   UNL     1       0.335  -1.218   0.088  0.00  0.00    +0.000 A 
ATOM      7 CL   UNL     1      -1.848  -0.278  -1.188  0.00  0.00    +0.000 Cl
ENDROOT
BRANCH   3   8
ATOM      8  C   UNL     1       2.410   2.521  -0.082  0.00  0.00    +0.000 C 
ATOM      9  C   UNL     1       1.849   3.733   0.050  0.00  0.00    +0.000 C 
BRANCH   9  10
ATOM     10  C   UNL     1       2.638   4.915  -0.011  0.00  0.00    +0.000 A 
ATOM     11  C   UNL     1       2.224   6.238   0.099  0.00  0.00    +0.000 A 
ATOM     12  C   UNL     1       3.364   7.067  -0.024  0.00  0.00    +0.000 A 
ATOM     13  C   UNL     1       4.424   6.218  -0.204  0.00  0.00    +0.000 A 
ATOM     14  O   UNL     1       4.005   4.930  -0.199  0.00  0.00    +0.000 OA
ENDBRANCH   9  10
ENDBRANCH   3   8
TORSDOF 2
