REMARK  Name = *****
REMARK  3 active torsions:
REMARK  status: ('A' for Active; 'I' for Inactive)
REMARK    1  A    between atoms: C_4  and  C_9
REMARK    2  A    between atoms: C_5  and  C_7
REMARK    3  A    between atoms: C_10  and  C_11
REMARK                            x       y       z     vdW  Elec       q    Type
REMARK                         _______ _______ _______ _____ _____    ______ ____
ROOT
ATOM      1  C   UNL     1       1.353   2.629  -0.254  0.00  0.00    +0.000 C 
ATOM      2  C   UNL     1       1.868   3.707  -0.376  0.00  0.00    +0.000 C 
ENDROOT
BRANCH   2   3
ATOM      3  C   UNL     1       2.487   4.986  -0.538  0.00  0.00    +0.000 A 
ATOM      4  C   UNL     1       1.819   6.145  -0.129  0.00  0.00    +0.000 A 
ATOM      5  C   UNL     1       2.423   7.393  -0.298  0.00  0.00    +0.000 A 
ATOM      6  C   UNL     1       3.686   7.472  -0.873  0.00  0.00    +0.000 A 
ATOM      7  C   UNL     1       4.360   6.326  -1.282  0.00  0.00    +0.000 A 
ATOM      8  C   UNL     1       3.759   5.077  -1.114  0.00  0.00    +0.000 A 
ATOM      9  F   UNL     1       4.263   8.669  -1.037  0.00  0.00    +0.000 F 
ENDBRANCH   2   3
BRANCH   1  13
ATOM     10  C   UNL     1      -0.581  -1.128   0.088  0.00  0.00    +0.000 A 
ATOM     11  C   UNL     1      -1.317   0.054   0.047  0.00  0.00    +0.000 A 
ATOM     12  C   UNL     1      -0.662   1.283  -0.061  0.00  0.00    +0.000 A 
ATOM     13  C   UNL     1       0.736   1.341  -0.128  0.00  0.00    +0.000 A 
ATOM     14  C   UNL     1       1.474   0.149  -0.083  0.00  0.00    +0.000 A 
ATOM     15  C   UNL     1       0.812  -1.083   0.023  0.00  0.00    +0.000 A 
BRANCH  14  16
ATOM     16  C   UNL     1       2.954   0.149  -0.147  0.00  0.00    +0.000 C 
ATOM     17  O   UNL     1       3.604  -0.890  -0.131  0.00  0.00    +0.000 OA
ENDBRANCH  14  16
ENDBRANCH   1  13
TORSDOF 3
