REMARK  Name = *****
REMARK  5 active torsions:
REMARK  status: ('A' for Active; 'I' for Inactive)
REMARK    1  A    between atoms: C_1  and  C_2
REMARK    2  A    between atoms: C_5  and  O_8
REMARK    3  A    between atoms: O_8  and  C_9
REMARK    4  A    between atoms: C_9  and  C_10
REMARK    5  A    between atoms: C_9  and  C_11
REMARK                            x       y       z     vdW  Elec       q    Type
REMARK                         _______ _______ _______ _____ _____    ______ ____
ROOT
ATOM      1  O   UNL     1      -4.017   0.670  -1.532  0.00  0.00    +0.000 OA
ENDROOT
BRANCH   1   6
ATOM      2  C   UNL     1      -8.286  -2.859  -2.777  0.00  0.00    +0.000 C 
ATOM      3  C   UNL     1      -7.150  -1.951  -2.410  0.00  0.00    +0.000 A 
ATOM      4  C   UNL     1      -6.836  -1.709  -1.069  0.00  0.00    +0.000 A 
ATOM      5  C   UNL     1      -5.793  -0.840  -0.723  0.00  0.00    +0.000 A 
ATOM      6  C   UNL     1      -5.059  -0.193  -1.716  0.00  0.00    +0.000 A 
ATOM      7  C   UNL     1      -5.387  -0.420  -3.056  0.00  0.00    +0.000 A 
ATOM      8  C   UNL     1      -6.425  -1.287  -3.403  0.00  0.00    +0.000 A 
ENDBRANCH   1   6
BRANCH   1   9
ATOM      9  C   UNL     1      -3.550   0.947  -0.206  0.00  0.00    +0.000 C 
ATOM     10  C   UNL     1      -2.597  -0.155   0.260  0.00  0.00    +0.000 C 
BRANCH   9  11
ATOM     11  C   UNL     1      -2.811   2.280  -0.217  0.00  0.00    +0.000 A 
ATOM     12  C   UNL     1      -2.022   2.673  -1.310  0.00  0.00    +0.000 A 
ATOM     13  C   UNL     1      -1.329   3.885  -1.290  0.00  0.00    +0.000 A 
ATOM     14  C   UNL     1      -1.408   4.716  -0.175  0.00  0.00    +0.000 A 
ATOM     15  C   UNL     1      -2.180   4.337   0.921  0.00  0.00    +0.000 A 
ATOM     16  C   UNL     1      -2.876   3.126   0.902  0.00  0.00    +0.000 A 
ENDBRANCH   9  11
ENDBRANCH   1   9
TORSDOF 3
