REMARK  Name = *****
REMARK  3 active torsions:
REMARK  status: ('A' for Active; 'I' for Inactive)
REMARK    1  A    between atoms: C_3  and  N_9
REMARK    2  A    between atoms: N_9  and  N_10
REMARK    3  A    between atoms: N_10  and  C_12
REMARK                            x       y       z     vdW  Elec       q    Type
REMARK                         _______ _______ _______ _____ _____    ______ ____
ROOT
ATOM      1  N   UNL     1      -2.266  -2.068  -0.016  0.00  0.00    +0.000 N 
ATOM      2  H   UNL     1      -3.090  -1.552   0.133  0.00  0.00    +0.000 HD
ENDROOT
BRANCH   1   5
ATOM      3  C   UNL     1       1.319  -0.991  -0.160  0.00  0.00    +0.000 A 
ATOM      4  C   UNL     1       0.194  -1.825  -0.185  0.00  0.00    +0.000 A 
ATOM      5  C   UNL     1      -1.088  -1.299  -0.002  0.00  0.00    +0.000 A 
ATOM      6  C   UNL     1      -1.198   0.090   0.205  0.00  0.00    +0.000 A 
ATOM      7  C   UNL     1      -0.090   0.929   0.232  0.00  0.00    +0.000 A 
ATOM      8  C   UNL     1       1.165   0.375   0.048  0.00  0.00    +0.000 A 
ATOM      9  F   UNL     1       2.247   1.164   0.070  0.00  0.00    +0.000 F 
ATOM     10  F   UNL     1      -2.416   0.627   0.382  0.00  0.00    +0.000 F 
ENDBRANCH   1   5
BRANCH   1  11
ATOM     11  N   UNL     1      -2.472  -3.455  -0.208  0.00  0.00    +0.000 N 
ATOM     12  O   UNL     1      -1.532  -4.200  -0.408  0.00  0.00    +0.000 OA
BRANCH  11  13
ATOM     13  C   UNL     1      -3.802  -4.043  -0.180  0.00  0.00    +0.000 A 
ATOM     14  C   UNL     1      -4.932  -3.266   0.082  0.00  0.00    +0.000 A 
ATOM     15  C   UNL     1      -6.202  -3.835   0.107  0.00  0.00    +0.000 A 
ATOM     16  C   UNL     1      -6.339  -5.195  -0.132  0.00  0.00    +0.000 A 
ATOM     17  C   UNL     1      -5.230  -5.993  -0.396  0.00  0.00    +0.000 A 
ATOM     18  C   UNL     1      -3.957  -5.419  -0.420  0.00  0.00    +0.000 A 
ATOM     19  F   UNL     1      -7.558  -5.749  -0.109  0.00  0.00    +0.000 F 
ATOM     20  F   UNL     1      -4.824  -1.950   0.315  0.00  0.00    +0.000 F 
ENDBRANCH  11  13
ENDBRANCH   1  11
TORSDOF 3
