REMARK  Name = *****
REMARK  5 active torsions:
REMARK  status: ('A' for Active; 'I' for Inactive)
REMARK    1  A    between atoms: C_1  and  C_2
REMARK    2  A    between atoms: C_2  and  C_3
REMARK    3  A    between atoms: C_2  and  O_8
REMARK    4  A    between atoms: O_8  and  C_9
REMARK    5  A    between atoms: C_9  and  C_11
REMARK                            x       y       z     vdW  Elec       q    Type
REMARK                         _______ _______ _______ _____ _____    ______ ____
ROOT
ATOM      1  O   UNL     1       2.595  -0.012   1.282  0.00  0.00    +0.000 OA
ENDROOT
BRANCH   1   3
ATOM      2  C   UNL     1       0.701  -0.402  -0.103  0.00  0.00    +0.000 C 
ATOM      3  C   UNL     1       2.222  -0.282  -0.086  0.00  0.00    +0.000 C 
BRANCH   3   4
ATOM      4  C   UNL     1       2.717   0.876  -0.963  0.00  0.00    +0.000 C 
ATOM      5  C   UNL     1       2.368   0.738  -2.445  0.00  0.00    +0.000 C 
ATOM      6  C   UNL     1       3.365   1.634  -3.177  0.00  0.00    +0.000 C 
ATOM      7  C   UNL     1       4.489   1.928  -2.185  0.00  0.00    +0.000 C 
ATOM      8  C   UNL     1       4.241   1.006  -1.000  0.00  0.00    +0.000 C 
ENDBRANCH   3   4
ENDBRANCH   1   3
BRANCH   1   9
ATOM      9  C   UNL     1       3.600  -0.756   1.807  0.00  0.00    +0.000 C 
ATOM     10  O   UNL     1       4.226  -1.631   1.230  0.00  0.00    +0.000 OA
BRANCH   9  11
ATOM     11  C   UNL     1       3.857  -0.360   3.218  0.00  0.00    +0.000 A 
ATOM     12  C   UNL     1       4.865  -1.034   3.921  0.00  0.00    +0.000 A 
ATOM     13  C   UNL     1       5.144  -0.700   5.248  0.00  0.00    +0.000 A 
ATOM     14  C   UNL     1       4.419   0.310   5.879  0.00  0.00    +0.000 A 
ATOM     15  C   UNL     1       3.416   0.987   5.187  0.00  0.00    +0.000 A 
ATOM     16  C   UNL     1       3.133   0.655   3.860  0.00  0.00    +0.000 A 
ENDBRANCH   9  11
ENDBRANCH   1   9
TORSDOF 4
