REMARK  Name = *****
REMARK  3 active torsions:
REMARK  status: ('A' for Active; 'I' for Inactive)
REMARK    1  A    between atoms: C_4  and  C_7
REMARK    2  A    between atoms: C_7  and  S_8
REMARK    3  A    between atoms: S_8  and  C_9
REMARK                            x       y       z     vdW  Elec       q    Type
REMARK                         _______ _______ _______ _____ _____    ______ ____
ROOT
ATOM      1  C   UNL     1      -5.429  -0.880  -0.403  0.00  0.00    +0.000 C 
ATOM      2  C   UNL     1      -6.565  -1.589  -0.527  0.00  0.00    +0.000 C 
ATOM      3  C   UNL     1      -7.468  -0.362  -0.553  0.00  0.00    +0.000 C 
ATOM      4  C   UNL     1      -6.143   0.467  -0.399  0.00  0.00    +0.000 C 
ATOM      5  F   UNL     1      -5.861   1.321  -1.417  0.00  0.00    +0.000 F 
ATOM      6  F   UNL     1      -6.046   1.215   0.732  0.00  0.00    +0.000 F 
ATOM      7  F   UNL     1      -8.363  -0.218   0.460  0.00  0.00    +0.000 F 
ATOM      8  F   UNL     1      -8.171  -0.123  -1.692  0.00  0.00    +0.000 F 
ATOM      9  F   UNL     1      -6.813  -2.874  -0.604  0.00  0.00    +0.000 F 
ENDROOT
BRANCH   1  10
ATOM     10  S   UNL     1      -3.766  -1.398  -0.287  0.00  0.00    +0.000 S 
BRANCH  10  11
ATOM     11  C   UNL     1      -2.971   0.237  -0.177  0.00  0.00    +0.000 C 
BRANCH  11  15
ATOM     12  C   UNL     1       1.311  -0.141   0.187  0.00  0.00    +0.000 A 
ATOM     13  C   UNL     1       0.724  -0.051  -1.074  0.00  0.00    +0.000 A 
ATOM     14  C   UNL     1      -0.661   0.073  -1.193  0.00  0.00    +0.000 A 
ATOM     15  C   UNL     1      -1.473   0.114  -0.050  0.00  0.00    +0.000 A 
ATOM     16  C   UNL     1      -0.871   0.013   1.213  0.00  0.00    +0.000 A 
ATOM     17  C   UNL     1       0.514  -0.111   1.330  0.00  0.00    +0.000 A 
ENDBRANCH  11  15
ENDBRANCH  10  11
ENDBRANCH   1  10
TORSDOF 3
