REMARK  Name = *****
REMARK  4 active torsions:
REMARK  status: ('A' for Active; 'I' for Inactive)
REMARK    1  A    between atoms: C_3  and  C_8
REMARK    2  A    between atoms: C_8  and  C_10
REMARK    3  A    between atoms: C_10  and  C_11
REMARK    4  A    between atoms: C_11  and  C_12
REMARK                            x       y       z     vdW  Elec       q    Type
REMARK                         _______ _______ _______ _____ _____    ______ ____
ROOT
ATOM      1  C   UNL     1      -1.995   2.493  -0.016  0.00  0.00    +0.000 C 
ATOM      2  O   UNL     1      -3.224   2.456  -0.036  0.00  0.00    +0.000 OA
ENDROOT
BRANCH   1   5
ATOM      3  C   UNL     1      -1.276  -1.224  -0.057  0.00  0.00    +0.000 A 
ATOM      4  C   UNL     1      -1.946   0.002  -0.045  0.00  0.00    +0.000 A 
ATOM      5  C   UNL     1      -1.229   1.210  -0.029  0.00  0.00    +0.000 A 
ATOM      6  C   UNL     1       0.169   1.175  -0.026  0.00  0.00    +0.000 A 
ATOM      7  C   UNL     1       0.823  -0.054  -0.038  0.00  0.00    +0.000 A 
ATOM      8  C   UNL     1       0.116  -1.251  -0.054  0.00  0.00    +0.000 A 
ATOM      9  F   UNL     1       2.162  -0.082  -0.036  0.00  0.00    +0.000 F 
ENDBRANCH   1   5
BRANCH   1  10
ATOM     10  C   UNL     1      -1.226   3.801   0.023  0.00  0.00    +0.000 C 
BRANCH  10  11
ATOM     11  C   UNL     1      -2.164   5.007   0.047  0.00  0.00    +0.000 C 
BRANCH  11  12
ATOM     12  C   UNL     1      -1.391   6.303   0.098  0.00  0.00    +0.000 A 
ATOM     13  C   UNL     1      -1.003   6.945  -1.086  0.00  0.00    +0.000 A 
ATOM     14  C   UNL     1      -0.268   8.131  -1.039  0.00  0.00    +0.000 A 
ATOM     15  C   UNL     1       0.086   8.677   0.193  0.00  0.00    +0.000 A 
ATOM     16  C   UNL     1      -0.288   8.048   1.378  0.00  0.00    +0.000 A 
ATOM     17  C   UNL     1      -1.024   6.862   1.330  0.00  0.00    +0.000 A 
ATOM     18 CL   UNL     1       0.995  10.138   0.251  0.00  0.00    +0.000 Cl
ENDBRANCH  11  12
ENDBRANCH  10  11
ENDBRANCH   1  10
TORSDOF 4
