REMARK  Name = *****
REMARK  1 active torsions:
REMARK  status: ('A' for Active; 'I' for Inactive)
REMARK    1  A    between atoms: C_4  and  P_7
REMARK                            x       y       z     vdW  Elec       q    Type
REMARK                         _______ _______ _______ _____ _____    ______ ____
ROOT
ATOM      1  P   UNL     1       3.235  -0.634  -0.523  0.00  0.00    +0.000 P 
ATOM      2  N   UNL     1       4.194   0.559   0.187  0.00  0.00    +0.000 N 
ATOM      3  C   UNL     1       4.989  -0.017   1.218  0.00  0.00    +0.000 A 
ATOM      4  C   UNL     1       5.888   0.650   2.030  0.00  0.00    +0.000 A 
ATOM      5  C   UNL     1       6.541  -0.082   3.026  0.00  0.00    +0.000 A 
ATOM      6  C   UNL     1       6.286  -1.455   3.195  0.00  0.00    +0.000 A 
ATOM      7  C   UNL     1       5.366  -2.120   2.379  0.00  0.00    +0.000 A 
ATOM      8  C   UNL     1       4.703  -1.386   1.414  0.00  0.00    +0.000 A 
ATOM      9  N   UNL     1       3.811  -1.883   0.433  0.00  0.00    +0.000 N 
ATOM     10  H   UNL     1       4.203   1.508  -0.073  0.00  0.00    +0.000 HD
ATOM     11  H   UNL     1       3.564  -2.830   0.328  0.00  0.00    +0.000 HD
ENDROOT
BRANCH   1  15
ATOM     12  C   UNL     1      -1.365   0.229  -0.097  0.00  0.00    +0.000 C 
ATOM     13  C   UNL     1      -0.843  -1.110   0.412  0.00  0.00    +0.000 C 
ATOM     14  C   UNL     1       0.559  -1.408  -0.117  0.00  0.00    +0.000 C 
ATOM     15  C   UNL     1       1.539  -0.271   0.211  0.00  0.00    +0.000 C 
ATOM     16  C   UNL     1       1.005   1.072  -0.312  0.00  0.00    +0.000 C 
ATOM     17  C   UNL     1      -0.397   1.364   0.220  0.00  0.00    +0.000 C 
ENDBRANCH   1  15
TORSDOF 1
