REMARK  Name = *****
REMARK  4 active torsions:
REMARK  status: ('A' for Active; 'I' for Inactive)
REMARK    1  A    between atoms: C_7  and  C_8
REMARK    2  A    between atoms: C_8  and  C_9
REMARK    3  A    between atoms: C_9  and  C_10
REMARK    4  A    between atoms: C_10  and  C_12
REMARK                            x       y       z     vdW  Elec       q    Type
REMARK                         _______ _______ _______ _____ _____    ______ ____
ROOT
ATOM      1  C   UNL     1      -0.830   2.328  -2.777  0.00  0.00    +0.000 C 
ENDROOT
BRANCH   1   2
ATOM      2  C   UNL     1      -0.456   2.471  -4.243  0.00  0.00    +0.000 C 
ATOM      3  O   UNL     1       0.442   1.808  -4.759  0.00  0.00    +0.000 OA
BRANCH   2   4
ATOM      4  C   UNL     1      -1.211   3.454  -5.080  0.00  0.00    +0.000 A 
ATOM      5  C   UNL     1      -2.229   4.261  -4.555  0.00  0.00    +0.000 A 
ATOM      6  C   UNL     1      -2.906   5.164  -5.381  0.00  0.00    +0.000 A 
ATOM      7  C   UNL     1      -2.572   5.267  -6.731  0.00  0.00    +0.000 A 
ATOM      8  C   UNL     1      -1.560   4.469  -7.260  0.00  0.00    +0.000 A 
ATOM      9  C   UNL     1      -0.882   3.566  -6.439  0.00  0.00    +0.000 A 
ENDBRANCH   2   4
ENDBRANCH   1   2
BRANCH   1  10
ATOM     10  C   UNL     1       0.001   1.250  -2.072  0.00  0.00    +0.000 C 
BRANCH  10  17
ATOM     11  C   UNL     1      -2.575   1.703   0.299  0.00  0.00    +0.000 C 
ATOM     12  C   UNL     1      -1.724   0.815  -0.240  0.00  0.00    +0.000 C 
ATOM     13  C   UNL     1      -2.129  -0.612  -0.519  0.00  0.00    +0.000 C 
ATOM     14  C   UNL     1      -1.181  -1.592   0.171  0.00  0.00    +0.000 C 
ATOM     15  C   UNL     1       0.282  -1.307  -0.164  0.00  0.00    +0.000 C 
ATOM     16  C   UNL     1       0.654   0.149   0.130  0.00  0.00    +0.000 C 
ATOM     17  C   UNL     1      -0.279   1.166  -0.556  0.00  0.00    +0.000 C 
ENDBRANCH  10  17
ENDBRANCH   1  10
TORSDOF 4
