REMARK  Name = *****
REMARK  6 active torsions:
REMARK  status: ('A' for Active; 'I' for Inactive)
REMARK    1  A    between atoms: C_1  and  C_2
REMARK    2  A    between atoms: C_5  and  C_8
REMARK    3  A    between atoms: C_8  and  C_9
REMARK    4  A    between atoms: C_8  and  O_10
REMARK    5  A    between atoms: O_10  and  C_11
REMARK    6  A    between atoms: C_11  and  C_13
REMARK                            x       y       z     vdW  Elec       q    Type
REMARK                         _______ _______ _______ _____ _____    ______ ____
ROOT
ATOM      1  C   UNL     1       5.010  -0.089  -3.353  0.00  0.00    +0.000 C 
ATOM      2  C   UNL     1       4.298  -0.861  -4.460  0.00  0.00    +0.000 C 
ENDROOT
BRANCH   1   7
ATOM      3  C   UNL     1       1.578  -1.323  -0.125  0.00  0.00    +0.000 C 
ATOM      4  C   UNL     1       2.412  -0.090   0.234  0.00  0.00    +0.000 C 
ATOM      5  C   UNL     1       2.241   1.032  -0.797  0.00  0.00    +0.000 C 
ATOM      6  C   UNL     1       2.837   0.677  -2.164  0.00  0.00    +0.000 C 
ATOM      7  C   UNL     1       4.186  -0.001  -2.080  0.00  0.00    +0.000 C 
ATOM      8  C   UNL     1       4.652  -0.491  -0.914  0.00  0.00    +0.000 C 
ATOM      9  C   UNL     1       3.901  -0.441   0.386  0.00  0.00    +0.000 C 
ENDBRANCH   1   7
BRANCH   1  10
ATOM     10  O   UNL     1       5.248   1.256  -3.804  0.00  0.00    +0.000 OA
BRANCH  10  11
ATOM     11  C   UNL     1       6.466   1.502  -4.341  0.00  0.00    +0.000 C 
ATOM     12  O   UNL     1       7.372   0.697  -4.485  0.00  0.00    +0.000 OA
BRANCH  11  13
ATOM     13  C   UNL     1       6.576   2.935  -4.720  0.00  0.00    +0.000 A 
ATOM     14  C   UNL     1       7.852   3.459  -4.969  0.00  0.00    +0.000 A 
ATOM     15  C   UNL     1       8.003   4.798  -5.334  0.00  0.00    +0.000 A 
ATOM     16  C   UNL     1       6.881   5.617  -5.460  0.00  0.00    +0.000 A 
ATOM     17  C   UNL     1       5.607   5.101  -5.219  0.00  0.00    +0.000 A 
ATOM     18  C   UNL     1       5.453   3.763  -4.848  0.00  0.00    +0.000 A 
ENDBRANCH  11  13
ENDBRANCH  10  11
ENDBRANCH   1  10
TORSDOF 4
