REMARK  Name = *****
REMARK  5 active torsions:
REMARK  status: ('A' for Active; 'I' for Inactive)
REMARK    1  A    between atoms: C_1  and  C_2
REMARK    2  A    between atoms: C_2  and  C_3
REMARK    3  A    between atoms: C_3  and  C_4
REMARK    4  A    between atoms: C_3  and  S_10
REMARK    5  A    between atoms: S_10  and  C_11
REMARK                            x       y       z     vdW  Elec       q    Type
REMARK                         _______ _______ _______ _____ _____    ______ ____
ROOT
ATOM      1  C   UNL     1       3.131   1.034  -1.010  0.00  0.00    +0.000 C 
ENDROOT
BRANCH   1   2
ATOM      2  C   UNL     1       2.546   2.429  -0.806  0.00  0.00    +0.000 A 
ATOM      3  C   UNL     1       3.003   3.305   0.192  0.00  0.00    +0.000 A 
ATOM      4  C   UNL     1       2.423   4.565   0.361  0.00  0.00    +0.000 A 
ATOM      5  C   UNL     1       1.373   4.968  -0.461  0.00  0.00    +0.000 A 
ATOM      6  C   UNL     1       0.901   4.110  -1.451  0.00  0.00    +0.000 A 
ATOM      7  C   UNL     1       1.480   2.851  -1.621  0.00  0.00    +0.000 A 
ENDBRANCH   1   2
BRANCH   1   9
ATOM      8  C   UNL     1       2.905   0.115   1.424  0.00  0.00    +0.000 C 
ATOM      9  C   UNL     1       2.516  -0.002  -0.045  0.00  0.00    +0.000 C 
ENDBRANCH   1   9
BRANCH   1  10
ATOM     10  S   UNL     1       4.979   1.049  -1.017  0.00  0.00    +0.000 S 
BRANCH  10  11
ATOM     11  C   UNL     1       5.317  -0.571  -1.680  0.00  0.00    +0.000 A 
ATOM     12  C   UNL     1       4.995  -0.894  -3.002  0.00  0.00    +0.000 A 
ATOM     13  C   UNL     1       5.274  -2.167  -3.503  0.00  0.00    +0.000 A 
ATOM     14  C   UNL     1       5.883  -3.120  -2.689  0.00  0.00    +0.000 A 
ATOM     15  C   UNL     1       6.220  -2.799  -1.375  0.00  0.00    +0.000 A 
ATOM     16  C   UNL     1       5.943  -1.526  -0.873  0.00  0.00    +0.000 A 
ENDBRANCH  10  11
ENDBRANCH   1  10
TORSDOF 4
