REMARK  Name = *****
REMARK  4 active torsions:
REMARK  status: ('A' for Active; 'I' for Inactive)
REMARK    1  A    between atoms: C_1  and  C_2
REMARK    2  A    between atoms: C_2  and  C_3
REMARK    3  A    between atoms: C_2  and  O_10
REMARK    4  A    between atoms: O_10  and  C_11
REMARK                            x       y       z     vdW  Elec       q    Type
REMARK                         _______ _______ _______ _____ _____    ______ ____
ROOT
ATOM      1  C   UNL     1       1.094  -0.106   0.298  0.00  0.00    +0.000 C 
ATOM      2  C   UNL     1       2.592   0.069   0.043  0.00  0.00    +0.000 C 
ENDROOT
BRANCH   2   3
ATOM      3  C   UNL     1       2.808   0.656  -1.344  0.00  0.00    +0.000 A 
ATOM      4  C   UNL     1       2.878   2.043  -1.554  0.00  0.00    +0.000 A 
ATOM      5  C   UNL     1       3.063   2.561  -2.838  0.00  0.00    +0.000 A 
ATOM      6  C   UNL     1       3.172   1.697  -3.924  0.00  0.00    +0.000 A 
ATOM      7  C   UNL     1       3.097   0.318  -3.738  0.00  0.00    +0.000 A 
ATOM      8  C   UNL     1       2.914  -0.200  -2.454  0.00  0.00    +0.000 A 
ATOM      9 CL   UNL     1       3.398   2.334  -5.506  0.00  0.00    +0.000 Cl
ENDBRANCH   2   3
BRANCH   2  10
ATOM     10  O   UNL     1       3.085   0.927   1.082  0.00  0.00    +0.000 OA
BRANCH  10  11
ATOM     11  C   UNL     1       4.370   0.742   1.511  0.00  0.00    +0.000 A 
ATOM     12  C   UNL     1       5.401   0.162   0.770  0.00  0.00    +0.000 A 
ATOM     13  C   UNL     1       6.682   0.049   1.320  0.00  0.00    +0.000 A 
ATOM     14  C   UNL     1       6.938   0.522   2.607  0.00  0.00    +0.000 A 
ATOM     15  C   UNL     1       5.916   1.116   3.343  0.00  0.00    +0.000 A 
ATOM     16  C   UNL     1       4.639   1.231   2.792  0.00  0.00    +0.000 A 
ENDBRANCH  10  11
ENDBRANCH   2  10
TORSDOF 3
