REMARK  Name = *****
REMARK  4 active torsions:
REMARK  status: ('A' for Active; 'I' for Inactive)
REMARK    1  A    between atoms: C_4  and  C_7
REMARK    2  A    between atoms: C_7  and  C_8
REMARK    3  A    between atoms: C_8  and  O_10
REMARK    4  A    between atoms: O_10  and  C_11
REMARK                            x       y       z     vdW  Elec       q    Type
REMARK                         _______ _______ _______ _____ _____    ______ ____
ROOT
ATOM      1  C   UNL     1      -3.975  -0.024  -0.129  0.00  0.00    +0.000 C 
ATOM      2  O   UNL     1      -4.696  -0.784   0.508  0.00  0.00    +0.000 OA
ENDROOT
BRANCH   1   3
ATOM      3  C   UNL     1      -2.841   0.769   0.475  0.00  0.00    +0.000 C 
BRANCH   3   7
ATOM      4  C   UNL     1       1.006  -0.867  -0.572  0.00  0.00    +0.000 A 
ATOM      5  C   UNL     1       0.539   0.277  -1.216  0.00  0.00    +0.000 A 
ATOM      6  C   UNL     1      -0.704   0.813  -0.874  0.00  0.00    +0.000 A 
ATOM      7  C   UNL     1      -1.488   0.210   0.118  0.00  0.00    +0.000 A 
ATOM      8  C   UNL     1      -1.010  -0.944   0.755  0.00  0.00    +0.000 A 
ATOM      9  C   UNL     1       0.232  -1.478   0.412  0.00  0.00    +0.000 A 
ENDBRANCH   3   7
ENDBRANCH   1   3
BRANCH   1  10
ATOM     10  O   UNL     1      -4.053   0.252  -1.491  0.00  0.00    +0.000 OA
BRANCH  10  11
ATOM     11  C   UNL     1      -5.033  -0.490  -2.151  0.00  0.00    +0.000 A 
ATOM     12  C   UNL     1      -6.365  -0.074  -2.116  0.00  0.00    +0.000 A 
ATOM     13  C   UNL     1      -7.320  -0.803  -2.824  0.00  0.00    +0.000 A 
ATOM     14  C   UNL     1      -6.926  -1.917  -3.561  0.00  0.00    +0.000 A 
ATOM     15  C   UNL     1      -5.593  -2.317  -3.609  0.00  0.00    +0.000 A 
ATOM     16  C   UNL     1      -4.633  -1.594  -2.903  0.00  0.00    +0.000 A 
ATOM     17  F   UNL     1      -7.846  -2.612  -4.243  0.00  0.00    +0.000 F 
ENDBRANCH  10  11
ENDBRANCH   1  10
TORSDOF 4
