REMARK  Name = *****
REMARK  2 active torsions:
REMARK  status: ('A' for Active; 'I' for Inactive)
REMARK    1  A    between atoms: C_4  and  C_7
REMARK    2  A    between atoms: C_8  and  C_9
REMARK                            x       y       z     vdW  Elec       q    Type
REMARK                         _______ _______ _______ _____ _____    ______ ____
ROOT
ATOM      1  C   UNL     1      -2.841   0.234  -0.347  0.00  0.00    +0.000 C 
ATOM      2  C   UNL     1      -3.761  -0.729  -0.158  0.00  0.00    +0.000 C 
ATOM      3 CL   UNL     1      -3.372  -2.326   0.382  0.00  0.00    +0.000 Cl
ENDROOT
BRANCH   1   7
ATOM      4  C   UNL     1       1.383  -0.075   0.179  0.00  0.00    +0.000 A 
ATOM      5  C   UNL     1       0.748  -0.862  -0.780  0.00  0.00    +0.000 A 
ATOM      6  C   UNL     1      -0.634  -0.773  -0.954  0.00  0.00    +0.000 A 
ATOM      7  C   UNL     1      -1.391   0.100  -0.164  0.00  0.00    +0.000 A 
ATOM      8  C   UNL     1      -0.745   0.895   0.789  0.00  0.00    +0.000 A 
ATOM      9  C   UNL     1       0.638   0.805   0.962  0.00  0.00    +0.000 A 
ENDBRANCH   1   7
BRANCH   2  10
ATOM     10  C   UNL     1      -5.190  -0.448  -0.373  0.00  0.00    +0.000 A 
ATOM     11  C   UNL     1      -5.661  -0.079  -1.641  0.00  0.00    +0.000 A 
ATOM     12  C   UNL     1      -7.016   0.195  -1.843  0.00  0.00    +0.000 A 
ATOM     13  C   UNL     1      -7.912   0.102  -0.779  0.00  0.00    +0.000 A 
ATOM     14  C   UNL     1      -7.456  -0.266   0.485  0.00  0.00    +0.000 A 
ATOM     15  C   UNL     1      -6.102  -0.540   0.688  0.00  0.00    +0.000 A 
ENDBRANCH   2  10
TORSDOF 2
