REMARK  Name = *****
REMARK  3 active torsions:
REMARK  status: ('A' for Active; 'I' for Inactive)
REMARK    1  A    between atoms: C_5  and  C_7
REMARK    2  A    between atoms: C_7  and  O_8
REMARK    3  A    between atoms: O_8  and  C_9
REMARK                            x       y       z     vdW  Elec       q    Type
REMARK                         _______ _______ _______ _____ _____    ______ ____
ROOT
ATOM      1  O   UNL     1       2.331  -2.266  -0.087  0.00  0.00    +0.000 OA
ENDROOT
BRANCH   1   2
ATOM      2  C   UNL     1       3.132  -3.375  -0.057  0.00  0.00    +0.000 A 
ATOM      3  C   UNL     1       4.508  -3.118  -0.113  0.00  0.00    +0.000 A 
ATOM      4  C   UNL     1       5.452  -4.146  -0.090  0.00  0.00    +0.000 A 
ATOM      5  C   UNL     1       5.025  -5.468  -0.014  0.00  0.00    +0.000 A 
ATOM      6  C   UNL     1       3.661  -5.737   0.037  0.00  0.00    +0.000 A 
ATOM      7  C   UNL     1       2.721  -4.706   0.016  0.00  0.00    +0.000 A 
ATOM      8  F   UNL     1       1.421  -5.035   0.060  0.00  0.00    +0.000 F 
ATOM      9  F   UNL     1       3.252  -7.012   0.106  0.00  0.00    +0.000 F 
ATOM     10  F   UNL     1       4.950  -1.853  -0.189  0.00  0.00    +0.000 F 
ENDBRANCH   1   2
BRANCH   1  11
ATOM     11  C   UNL     1       0.922  -2.456   0.067  0.00  0.00    +0.000 C 
BRANCH  11  16
ATOM     12  C   UNL     1      -0.040   1.145  -0.794  0.00  0.00    +0.000 A 
ATOM     13  C   UNL     1      -1.144   1.338   0.035  0.00  0.00    +0.000 A 
ATOM     14  C   UNL     1      -1.571   0.308   0.870  0.00  0.00    +0.000 A 
ATOM     15  C   UNL     1      -0.887  -0.905   0.874  0.00  0.00    +0.000 A 
ATOM     16  C   UNL     1       0.232  -1.115   0.064  0.00  0.00    +0.000 A 
ATOM     17  C   UNL     1       0.642  -0.075  -0.785  0.00  0.00    +0.000 A 
ATOM     18  F   UNL     1      -1.326  -1.887   1.675  0.00  0.00    +0.000 F 
ENDBRANCH  11  16
ENDBRANCH   1  11
TORSDOF 3
