REMARK  Name = *****
REMARK  3 active torsions:
REMARK  status: ('A' for Active; 'I' for Inactive)
REMARK    1  A    between atoms: C_4  and  N_7
REMARK    2  A    between atoms: N_7  and  C_8
REMARK    3  A    between atoms: C_8  and  C_9
REMARK                            x       y       z     vdW  Elec       q    Type
REMARK                         _______ _______ _______ _____ _____    ______ ____
ROOT
ATOM      1  C   UNL     1       3.558  -1.313   0.308  0.00  0.00    +0.000 C 
ENDROOT
BRANCH   1   2
ATOM      2  C   UNL     1       4.918  -1.643  -0.159  0.00  0.00    +0.000 A 
ATOM      3  C   UNL     1       5.405  -1.121  -1.359  0.00  0.00    +0.000 A 
ATOM      4  C   UNL     1       6.691  -1.452  -1.766  0.00  0.00    +0.000 A 
ATOM      5  C   UNL     1       7.496  -2.291  -1.000  0.00  0.00    +0.000 A 
ATOM      6  C   UNL     1       7.008  -2.811   0.199  0.00  0.00    +0.000 A 
ATOM      7  C   UNL     1       5.716  -2.487   0.622  0.00  0.00    +0.000 A 
ATOM      8  F   UNL     1       7.168  -0.957  -2.916  0.00  0.00    +0.000 F 
ENDBRANCH   1   2
BRANCH   1   9
ATOM      9  N   UNL     1       2.776  -0.548  -0.373  0.00  0.00    +0.000 NA
BRANCH   9  13
ATOM     10  C   UNL     1      -1.407   0.295  -0.190  0.00  0.00    +0.000 C 
ATOM     11  C   UNL     1      -0.946  -1.103   0.212  0.00  0.00    +0.000 C 
ATOM     12  C   UNL     1       0.478  -1.385  -0.261  0.00  0.00    +0.000 C 
ATOM     13  C   UNL     1       1.457  -0.315   0.233  0.00  0.00    +0.000 C 
ATOM     14  C   UNL     1       0.991   1.085  -0.184  0.00  0.00    +0.000 C 
ATOM     15  C   UNL     1      -0.433   1.367   0.289  0.00  0.00    +0.000 C 
ENDBRANCH   9  13
ENDBRANCH   1   9
TORSDOF 3
