REMARK  Name = *****
REMARK  6 active torsions:
REMARK  status: ('A' for Active; 'I' for Inactive)
REMARK    1  A    between atoms: C_1  and  C_2
REMARK    2  A    between atoms: C_2  and  O_3
REMARK    3  A    between atoms: O_3  and  C_4
REMARK    4  A    between atoms: C_4  and  C_5
REMARK    5  A    between atoms: C_4  and  C_12
REMARK    6  A    between atoms: C_5  and  C_6
REMARK                            x       y       z     vdW  Elec       q    Type
REMARK                         _______ _______ _______ _____ _____    ______ ____
ROOT
ATOM      1  C   UNL     1       4.327  -0.760  -1.123  0.00  0.00    +0.000 C 
ENDROOT
BRANCH   1   2
ATOM      2  C   UNL     1       4.855  -1.057  -2.517  0.00  0.00    +0.000 A 
ATOM      3  C   UNL     1       6.018  -0.419  -2.978  0.00  0.00    +0.000 A 
ATOM      4  C   UNL     1       6.530  -0.699  -4.247  0.00  0.00    +0.000 A 
ATOM      5  C   UNL     1       5.890  -1.624  -5.069  0.00  0.00    +0.000 A 
ATOM      6  C   UNL     1       4.739  -2.270  -4.624  0.00  0.00    +0.000 A 
ATOM      7  C   UNL     1       4.226  -1.990  -3.356  0.00  0.00    +0.000 A 
ENDBRANCH   1   2
BRANCH   1   8
ATOM      8  O   UNL     1       2.899  -0.910  -1.093  0.00  0.00    +0.000 OA
BRANCH   8  10
ATOM      9  C   UNL     1       0.768  -0.306  -0.216  0.00  0.00    +0.000 C 
ATOM     10  C   UNL     1       2.254  -0.008  -0.200  0.00  0.00    +0.000 C 
ENDBRANCH   8  10
ENDBRANCH   1   8
BRANCH   1  11
ATOM     11  C   UNL     1       5.014  -1.607  -0.026  0.00  0.00    +0.000 C 
BRANCH  11  12
ATOM     12  C   UNL     1       4.845  -3.106  -0.148  0.00  0.00    +0.000 A 
ATOM     13  C   UNL     1       5.876  -3.897  -0.675  0.00  0.00    +0.000 A 
ATOM     14  C   UNL     1       5.719  -5.279  -0.793  0.00  0.00    +0.000 A 
ATOM     15  C   UNL     1       4.531  -5.884  -0.387  0.00  0.00    +0.000 A 
ATOM     16  C   UNL     1       3.498  -5.108   0.134  0.00  0.00    +0.000 A 
ATOM     17  C   UNL     1       3.654  -3.726   0.253  0.00  0.00    +0.000 A 
ENDBRANCH  11  12
ENDBRANCH   1  11
TORSDOF 5
