REMARK  Name = *****
REMARK  2 active torsions:
REMARK  status: ('A' for Active; 'I' for Inactive)
REMARK    1  A    between atoms: C_3  and  N_9
REMARK    2  A    between atoms: C_10  and  C_11
REMARK                            x       y       z     vdW  Elec       q    Type
REMARK                         _______ _______ _______ _____ _____    ______ ____
ROOT
ATOM      1  N   UNL     1      -2.296  -2.048  -0.664  0.00  0.00    +0.000 NA
ATOM      2  C   UNL     1      -2.755  -2.865   0.229  0.00  0.00    +0.000 C 
ENDROOT
BRANCH   1   5
ATOM      3  C   UNL     1       1.096  -0.614  -0.980  0.00  0.00    +0.000 A 
ATOM      4  C   UNL     1      -0.065  -1.348  -1.236  0.00  0.00    +0.000 A 
ATOM      5  C   UNL     1      -1.140  -1.314  -0.340  0.00  0.00    +0.000 A 
ATOM      6  C   UNL     1      -1.030  -0.506   0.805  0.00  0.00    +0.000 A 
ATOM      7  C   UNL     1       0.121   0.228   1.069  0.00  0.00    +0.000 A 
ATOM      8  C   UNL     1       1.177   0.165   0.171  0.00  0.00    +0.000 A 
ATOM      9  F   UNL     1       2.291   0.867   0.412  0.00  0.00    +0.000 F 
ATOM     10  F   UNL     1      -2.046  -0.438   1.680  0.00  0.00    +0.000 F 
ENDBRANCH   1   5
BRANCH   2  11
ATOM     11  C   UNL     1      -3.972  -3.665  -0.010  0.00  0.00    +0.000 A 
ATOM     12  C   UNL     1      -4.684  -3.546  -1.206  0.00  0.00    +0.000 A 
ATOM     13  C   UNL     1      -5.826  -4.316  -1.396  0.00  0.00    +0.000 A 
ATOM     14  C   UNL     1      -6.269  -5.198  -0.420  0.00  0.00    +0.000 A 
ATOM     15  C   UNL     1      -5.550  -5.304   0.764  0.00  0.00    +0.000 A 
ATOM     16  C   UNL     1      -4.404  -4.546   0.983  0.00  0.00    +0.000 A 
ATOM     17  F   UNL     1      -5.967  -6.151   1.713  0.00  0.00    +0.000 F 
ATOM     18  F   UNL     1      -6.512  -4.206  -2.541  0.00  0.00    +0.000 F 
ENDBRANCH   2  11
TORSDOF 2
