REMARK  Name = *****
REMARK  1 active torsions:
REMARK  status: ('A' for Active; 'I' for Inactive)
REMARK    1  A    between atoms: C_3  and  C_11
REMARK                            x       y       z     vdW  Elec       q    Type
REMARK                         _______ _______ _______ _____ _____    ______ ____
ROOT
ATOM      1  C   UNL     1       1.250   1.475  -0.224  0.00  0.00    +0.000 C 
ATOM      2  C   UNL     1       2.493   0.648  -0.093  0.00  0.00    +0.000 C 
ATOM      3  C   UNL     1       2.489  -0.670   0.177  0.00  0.00    +0.000 C 
ATOM      4  C   UNL     1       1.215  -1.450   0.395  0.00  0.00    +0.000 C 
ATOM      5  C   UNL     1      -0.063  -0.668   0.178  0.00  0.00    +0.000 A 
ATOM      6  C   UNL     1      -1.295  -1.335   0.279  0.00  0.00    +0.000 A 
ATOM      7  C   UNL     1      -2.494  -0.647   0.097  0.00  0.00    +0.000 A 
ATOM      8  C   UNL     1      -2.476   0.716  -0.186  0.00  0.00    +0.000 A 
ATOM      9  C   UNL     1      -1.260   1.390  -0.287  0.00  0.00    +0.000 A 
ATOM     10  C   UNL     1      -0.045   0.708  -0.109  0.00  0.00    +0.000 A 
ENDROOT
BRANCH   3  11
ATOM     11  C   UNL     1       3.763  -1.409   0.283  0.00  0.00    +0.000 A 
ATOM     12  C   UNL     1       4.063  -2.163   1.425  0.00  0.00    +0.000 A 
ATOM     13  C   UNL     1       5.265  -2.870   1.517  0.00  0.00    +0.000 A 
ATOM     14  C   UNL     1       6.179  -2.833   0.466  0.00  0.00    +0.000 A 
ATOM     15  C   UNL     1       5.893  -2.089  -0.677  0.00  0.00    +0.000 A 
ATOM     16  C   UNL     1       4.692  -1.381  -0.768  0.00  0.00    +0.000 A 
ENDBRANCH   3  11
TORSDOF 1
