REMARK  Name = *****
REMARK  4 active torsions:
REMARK  status: ('A' for Active; 'I' for Inactive)
REMARK    1  A    between atoms: C_1  and  O_2
REMARK    2  A    between atoms: O_2  and  C_3
REMARK    3  A    between atoms: C_6  and  C_9
REMARK    4  A    between atoms: C_10  and  C_11
REMARK                            x       y       z     vdW  Elec       q    Type
REMARK                         _______ _______ _______ _____ _____    ______ ____
ROOT
ATOM      1  C   UNL     1       5.199  -0.002   4.832  0.00  0.00    +0.000 C 
ATOM      2  C   UNL     1       4.865  -0.734   5.908  0.00  0.00    +0.000 C 
ENDROOT
BRANCH   2   3
ATOM      3  C   UNL     1       5.605  -0.714   7.178  0.00  0.00    +0.000 A 
ATOM      4  C   UNL     1       6.185   0.455   7.690  0.00  0.00    +0.000 A 
ATOM      5  C   UNL     1       6.849   0.426   8.914  0.00  0.00    +0.000 A 
ATOM      6  C   UNL     1       6.935  -0.752   9.643  0.00  0.00    +0.000 A 
ATOM      7  C   UNL     1       6.353  -1.918   9.161  0.00  0.00    +0.000 A 
ATOM      8  C   UNL     1       5.684  -1.897   7.933  0.00  0.00    +0.000 A 
ATOM      9  F   UNL     1       7.574  -0.774  10.821  0.00  0.00    +0.000 F 
ATOM     10  F   UNL     1       7.402   1.552   9.386  0.00  0.00    +0.000 F 
ENDBRANCH   2   3
BRANCH   1  14
ATOM     11  C   UNL     1       3.125  -0.025   1.076  0.00  0.00    +0.000 A 
ATOM     12  C   UNL     1       2.405  -0.139   2.263  0.00  0.00    +0.000 A 
ATOM     13  C   UNL     1       3.072  -0.140   3.496  0.00  0.00    +0.000 A 
ATOM     14  C   UNL     1       4.467  -0.038   3.558  0.00  0.00    +0.000 A 
ATOM     15  C   UNL     1       5.181   0.093   2.362  0.00  0.00    +0.000 A 
ATOM     16  C   UNL     1       4.515   0.094   1.133  0.00  0.00    +0.000 A 
BRANCH  11  18
ATOM     17  C   UNL     1       1.190  -0.137  -0.299  0.00  0.00    +0.000 C 
ATOM     18  O   UNL     1       2.601  -0.009  -0.187  0.00  0.00    +0.000 OA
ENDBRANCH  11  18
ENDBRANCH   1  14
TORSDOF 3
