REMARK  Name = *****
REMARK  3 active torsions:
REMARK  status: ('A' for Active; 'I' for Inactive)
REMARK    1  A    between atoms: C_4  and  P_7
REMARK    2  A    between atoms: P_7  and  P_8
REMARK    3  A    between atoms: P_8  and  C_9
REMARK                            x       y       z     vdW  Elec       q    Type
REMARK                         _______ _______ _______ _____ _____    ______ ____
ROOT
ATOM      1  P   UNL     1      -3.172   0.419   0.446  0.00  0.00    +0.000 P 
ENDROOT
BRANCH   1   5
ATOM      2  C   UNL     1       1.310  -0.238  -0.102  0.00  0.00    +0.000 A 
ATOM      3  C   UNL     1       0.485  -1.341   0.112  0.00  0.00    +0.000 A 
ATOM      4  C   UNL     1      -0.893  -1.167   0.270  0.00  0.00    +0.000 A 
ATOM      5  C   UNL     1      -1.446   0.115   0.196  0.00  0.00    +0.000 A 
ATOM      6  C   UNL     1      -0.615   1.224   0.007  0.00  0.00    +0.000 A 
ATOM      7  C   UNL     1       0.762   1.044  -0.151  0.00  0.00    +0.000 A 
ENDBRANCH   1   5
BRANCH   1   8
ATOM      8  P   UNL     1      -3.985  -0.784  -0.890  0.00  0.00    +0.000 P 
BRANCH   8   9
ATOM      9  C   UNL     1      -5.743  -0.605  -0.771  0.00  0.00    +0.000 A 
ATOM     10  C   UNL     1      -6.479  -1.402  -1.663  0.00  0.00    +0.000 A 
ATOM     11  C   UNL     1      -7.877  -1.357  -1.674  0.00  0.00    +0.000 A 
ATOM     12  C   UNL     1      -8.553  -0.517  -0.795  0.00  0.00    +0.000 A 
ATOM     13  C   UNL     1      -7.833   0.278   0.093  0.00  0.00    +0.000 A 
ATOM     14  C   UNL     1      -6.433   0.235   0.106  0.00  0.00    +0.000 A 
ENDBRANCH   8   9
ENDBRANCH   1   8
TORSDOF 3
