REMARK  Name = *****
REMARK  3 active torsions:
REMARK  status: ('A' for Active; 'I' for Inactive)
REMARK    1  A    between atoms: C_4  and  S_7
REMARK    2  A    between atoms: S_7  and  C_8
REMARK    3  A    between atoms: C_8  and  C_9
REMARK                            x       y       z     vdW  Elec       q    Type
REMARK                         _______ _______ _______ _____ _____    ______ ____
ROOT
ATOM      1  C   UNL     1      -3.955  -0.987  -0.396  0.00  0.00    +0.000 C 
ENDROOT
BRANCH   1   2
ATOM      2  C   UNL     1      -5.448  -0.807  -0.562  0.00  0.00    +0.000 A 
ATOM      3  C   UNL     1      -6.055  -0.483  -1.790  0.00  0.00    +0.000 A 
ATOM      4  C   UNL     1      -7.440  -0.314  -1.878  0.00  0.00    +0.000 A 
ATOM      5  C   UNL     1      -8.222  -0.459  -0.741  0.00  0.00    +0.000 A 
ATOM      6  C   UNL     1      -7.651  -0.767   0.486  0.00  0.00    +0.000 A 
ATOM      7  C   UNL     1      -6.269  -0.937   0.577  0.00  0.00    +0.000 A 
ATOM      8  F   UNL     1      -9.548  -0.297  -0.828  0.00  0.00    +0.000 F 
ATOM      9 BR   UNL     1      -5.058  -0.254  -3.392  0.00  0.00    +0.000 Br
ENDBRANCH   1   2
BRANCH   1  10
ATOM     10  S   UNL     1      -3.138   0.598  -0.018  0.00  0.00    +0.000 S 
BRANCH  10  14
ATOM     11  C   UNL     1       1.354  -0.315   0.393  0.00  0.00    +0.000 A 
ATOM     12  C   UNL     1       0.487  -1.363   0.096  0.00  0.00    +0.000 A 
ATOM     13  C   UNL     1      -0.887  -1.128  -0.036  0.00  0.00    +0.000 A 
ATOM     14  C   UNL     1      -1.409   0.159   0.125  0.00  0.00    +0.000 A 
ATOM     15  C   UNL     1      -0.522   1.205   0.424  0.00  0.00    +0.000 A 
ATOM     16  C   UNL     1       0.849   0.971   0.557  0.00  0.00    +0.000 A 
ENDBRANCH  10  14
ENDBRANCH   1  10
TORSDOF 3
