REMARK  Name = *****
REMARK  2 active torsions:
REMARK  status: ('A' for Active; 'I' for Inactive)
REMARK    1  A    between atoms: C_3  and  C_6
REMARK    2  A    between atoms: C_7  and  C_8
REMARK                            x       y       z     vdW  Elec       q    Type
REMARK                         _______ _______ _______ _____ _____    ______ ____
ROOT
ATOM      1  C   UNL     1       0.198  -2.189   1.180  0.00  0.00    +0.000 C 
ATOM      2  C   UNL     1       1.188  -3.070   1.401  0.00  0.00    +0.000 C 
ENDROOT
BRANCH   2   3
ATOM      3  C   UNL     1       1.208  -3.941   2.531  0.00  0.00    +0.000 A 
ATOM      4  C   UNL     1       0.306  -4.114   3.572  0.00  0.00    +0.000 A 
ATOM      5  C   UNL     1       0.712  -5.107   4.515  0.00  0.00    +0.000 A 
ATOM      6  C   UNL     1       1.913  -5.659   4.160  0.00  0.00    +0.000 A 
ATOM      7  S   UNL     1       2.551  -5.014   2.734  0.00  0.00    +0.000 S 
ATOM      8 BR   UNL     1       2.770  -6.996   5.153  0.00  0.00    +0.000 Br
ENDBRANCH   2   3
BRANCH   1  11
ATOM      9  C   UNL     1      -1.054   0.728  -0.077  0.00  0.00    +0.000 C 
ATOM     10  C   UNL     1       0.071   0.179   0.411  0.00  0.00    +0.000 C 
ATOM     11  C   UNL     1       0.163  -1.266  -0.005  0.00  0.00    +0.000 C 
ATOM     12  C   UNL     1      -1.106  -1.424  -0.803  0.00  0.00    +0.000 C 
ATOM     13  C   UNL     1      -1.781  -0.266  -0.827  0.00  0.00    +0.000 C 
ENDBRANCH   1  11
TORSDOF 2
