REMARK  Name = *****
REMARK  3 active torsions:
REMARK  status: ('A' for Active; 'I' for Inactive)
REMARK    1  A    between atoms: C_3  and  N_16
REMARK    2  A    between atoms: C_6  and  C_7
REMARK    3  A    between atoms: C_8  and  C_9
REMARK                            x       y       z     vdW  Elec       q    Type
REMARK                         _______ _______ _______ _____ _____    ______ ____
ROOT
ATOM      1  C   UNL     1      -1.111   1.047  -0.645  0.00  0.00    +0.000 A 
ATOM      2  C   UNL     1       0.288   1.014  -0.631  0.00  0.00    +0.000 A 
ATOM      3  C   UNL     1       0.973   0.008   0.052  0.00  0.00    +0.000 A 
ATOM      4  C   UNL     1       0.234  -1.026   0.628  0.00  0.00    +0.000 A 
ATOM      5  C   UNL     1      -1.165  -0.999   0.617  0.00  0.00    +0.000 A 
ATOM      6  C   UNL     1      -1.853   0.051  -0.001  0.00  0.00    +0.000 A 
ENDROOT
BRANCH   3   7
ATOM      7  N   UNL     1       2.366  -0.089  -0.047  0.00  0.00    +0.000 N 
ATOM      8  H   UNL     1       2.883   0.643  -0.455  0.00  0.00    +0.000 HD
ATOM      9  H   UNL     1       2.828  -0.890   0.291  0.00  0.00    +0.000 HD
ENDBRANCH   3   7
BRANCH   6  10
ATOM     10  C   UNL     1      -3.322   0.026  -0.024  0.00  0.00    +0.000 C 
ATOM     11  C   UNL     1      -4.088   1.123   0.088  0.00  0.00    +0.000 C 
BRANCH  11  12
ATOM     12  C   UNL     1      -5.557   1.102   0.063  0.00  0.00    +0.000 A 
ATOM     13  C   UNL     1      -6.302   0.084   0.675  0.00  0.00    +0.000 A 
ATOM     14  C   UNL     1      -7.700   0.115   0.655  0.00  0.00    +0.000 A 
ATOM     15  C   UNL     1      -8.360   1.171   0.032  0.00  0.00    +0.000 A 
ATOM     16  C   UNL     1      -7.636   2.199  -0.566  0.00  0.00    +0.000 A 
ATOM     17  C   UNL     1      -6.238   2.166  -0.544  0.00  0.00    +0.000 A 
ATOM     18 CL   UNL     1     -10.080   1.209   0.007  0.00  0.00    +0.000 Cl
ENDBRANCH  11  12
ENDBRANCH   6  10
TORSDOF 3
