REMARK  Name = *****
REMARK  3 active torsions:
REMARK  status: ('A' for Active; 'I' for Inactive)
REMARK    1  A    between atoms: C_1  and  C_2
REMARK    2  A    between atoms: C_4  and  C_8
REMARK    3  A    between atoms: C_9  and  C_10
REMARK                            x       y       z     vdW  Elec       q    Type
REMARK                         _______ _______ _______ _____ _____    ______ ____
ROOT
ATOM      1  C   UNL     1       4.917   1.879   1.408  0.00  0.00    +0.000 C 
ATOM      2  C   UNL     1       5.258   2.319   2.473  0.00  0.00    +0.000 C 
ENDROOT
BRANCH   1   6
ATOM      3  C   UNL     1       0.861  -0.055  -0.034  0.00  0.00    +0.000 C 
ATOM      4  C   UNL     1       2.359   0.030   0.026  0.00  0.00    +0.000 C 
ATOM      5  C   UNL     1       3.006   1.210   0.074  0.00  0.00    +0.000 C 
ATOM      6  C   UNL     1       4.506   1.355   0.092  0.00  0.00    +0.000 C 
ATOM      7  C   UNL     1       5.231   0.039  -0.235  0.00  0.00    +0.000 C 
ATOM      8  C   UNL     1       4.567  -1.162   0.436  0.00  0.00    +0.000 C 
ATOM      9  C   UNL     1       3.097  -1.286   0.031  0.00  0.00    +0.000 C 
ENDBRANCH   1   6
BRANCH   2  10
ATOM     10  C   UNL     1       5.665   2.854   3.736  0.00  0.00    +0.000 A 
ATOM     11  C   UNL     1       5.627   4.233   3.955  0.00  0.00    +0.000 A 
ATOM     12  C   UNL     1       6.026   4.756   5.186  0.00  0.00    +0.000 A 
ATOM     13  C   UNL     1       6.463   3.902   6.199  0.00  0.00    +0.000 A 
ATOM     14  C   UNL     1       6.502   2.525   5.982  0.00  0.00    +0.000 A 
ATOM     15  C   UNL     1       6.103   2.000   4.751  0.00  0.00    +0.000 A 
ENDBRANCH   2  10
TORSDOF 2
