REMARK  Name = *****
REMARK  6 active torsions:
REMARK  status: ('A' for Active; 'I' for Inactive)
REMARK    1  A    between atoms: C_1  and  O_2
REMARK    2  A    between atoms: O_2  and  C_3
REMARK    3  A    between atoms: C_3  and  C_5
REMARK    4  A    between atoms: C_10  and  S_11
REMARK    5  A    between atoms: S_11  and  C_12
REMARK    6  A    between atoms: C_12  and  C_13
REMARK                            x       y       z     vdW  Elec       q    Type
REMARK                         _______ _______ _______ _____ _____    ______ ____
ROOT
ATOM      1  C   UNL     1       4.574  -1.094   0.875  0.00  0.00    +0.000 A 
ATOM      2  C   UNL     1       5.182   0.143   1.131  0.00  0.00    +0.000 A 
ATOM      3  C   UNL     1       6.559   0.287   0.976  0.00  0.00    +0.000 A 
ATOM      4  C   UNL     1       7.327  -0.799   0.561  0.00  0.00    +0.000 A 
ATOM      5  C   UNL     1       6.717  -2.027   0.287  0.00  0.00    +0.000 A 
ATOM      6  C   UNL     1       5.331  -2.187   0.426  0.00  0.00    +0.000 A 
ENDROOT
BRANCH   1   7
ATOM      7  C   UNL     1       3.118  -1.172   1.073  0.00  0.00    +0.000 C 
ATOM      8  O   UNL     1       2.314  -0.524   0.425  0.00  0.00    +0.000 OA
BRANCH   7  10
ATOM      9  C   UNL     1       1.472  -2.142   2.407  0.00  0.00    +0.000 C 
ATOM     10  O   UNL     1       2.861  -1.997   2.115  0.00  0.00    +0.000 OA
ENDBRANCH   7  10
ENDBRANCH   1   7
BRANCH   6  11
ATOM     11  S   UNL     1       4.642  -3.781  -0.004  0.00  0.00    +0.000 S 
BRANCH  11  12
ATOM     12  C   UNL     1       3.911  -3.352  -1.620  0.00  0.00    +0.000 C 
BRANCH  12  13
ATOM     13  C   UNL     1       3.217  -4.538  -2.240  0.00  0.00    +0.000 A 
ATOM     14  C   UNL     1       1.856  -4.774  -1.994  0.00  0.00    +0.000 A 
ATOM     15  C   UNL     1       1.216  -5.878  -2.558  0.00  0.00    +0.000 A 
ATOM     16  C   UNL     1       1.929  -6.760  -3.368  0.00  0.00    +0.000 A 
ATOM     17  C   UNL     1       3.283  -6.542  -3.612  0.00  0.00    +0.000 A 
ATOM     18  C   UNL     1       3.926  -5.438  -3.049  0.00  0.00    +0.000 A 
ENDBRANCH  12  13
ENDBRANCH  11  12
ENDBRANCH   6  11
TORSDOF 5
