REMARK  Name = *****
REMARK  2 active torsions:
REMARK  status: ('A' for Active; 'I' for Inactive)
REMARK    1  A    between atoms: C_4  and  C_7
REMARK    2  A    between atoms: N_8  and  C_9
REMARK                            x       y       z     vdW  Elec       q    Type
REMARK                         _______ _______ _______ _____ _____    ______ ____
ROOT
ATOM      1  C   UNL     1      -2.852   0.387  -0.272  0.00  0.00    +0.000 C 
ATOM      2  N   UNL     1      -3.697  -0.593  -0.211  0.00  0.00    +0.000 NA
ENDROOT
BRANCH   2   3
ATOM      3  C   UNL     1      -5.065  -0.280  -0.330  0.00  0.00    +0.000 A 
ATOM      4  C   UNL     1      -5.829  -1.010  -1.246  0.00  0.00    +0.000 A 
ATOM      5  C   UNL     1      -7.199  -0.769  -1.391  0.00  0.00    +0.000 A 
ATOM      6  C   UNL     1      -7.826   0.203  -0.611  0.00  0.00    +0.000 A 
ATOM      7  C   UNL     1      -7.083   0.929   0.318  0.00  0.00    +0.000 A 
ATOM      8  C   UNL     1      -5.718   0.682   0.456  0.00  0.00    +0.000 A 
ATOM      9  F   UNL     1      -5.030   1.396   1.362  0.00  0.00    +0.000 F 
ENDBRANCH   2   3
BRANCH   1  13
ATOM     10  C   UNL     1       1.358  -0.190   0.081  0.00  0.00    +0.000 A 
ATOM     11  C   UNL     1       0.504  -1.291   0.147  0.00  0.00    +0.000 A 
ATOM     12  C   UNL     1      -0.875  -1.113   0.033  0.00  0.00    +0.000 A 
ATOM     13  C   UNL     1      -1.397   0.171  -0.147  0.00  0.00    +0.000 A 
ATOM     14  C   UNL     1      -0.543   1.276  -0.212  0.00  0.00    +0.000 A 
ATOM     15  C   UNL     1       0.836   1.092  -0.098  0.00  0.00    +0.000 A 
ENDBRANCH   1  13
TORSDOF 2
