REMARK  Name = *****
REMARK  4 active torsions:
REMARK  status: ('A' for Active; 'I' for Inactive)
REMARK    1  A    between atoms: C_1  and  N_2
REMARK    2  A    between atoms: N_2  and  C_3
REMARK    3  A    between atoms: N_2  and  C_9
REMARK    4  A    between atoms: C_10  and  C_11
REMARK                            x       y       z     vdW  Elec       q    Type
REMARK                         _______ _______ _______ _____ _____    ______ ____
ROOT
ATOM      1  C   UNL     1       2.947   0.869  -1.001  0.00  0.00    +0.000 C 
ATOM      2  C   UNL     1       3.919   0.470  -1.845  0.00  0.00    +0.000 C 
ATOM      3 CL   UNL     1       2.244   2.454  -1.180  0.00  0.00    +0.000 Cl
ENDROOT
BRANCH   2   4
ATOM      4  C   UNL     1       4.495   1.254  -2.941  0.00  0.00    +0.000 A 
ATOM      5  C   UNL     1       5.718   1.910  -2.761  0.00  0.00    +0.000 A 
ATOM      6  C   UNL     1       6.274   2.655  -3.802  0.00  0.00    +0.000 A 
ATOM      7  C   UNL     1       5.612   2.747  -5.026  0.00  0.00    +0.000 A 
ATOM      8  C   UNL     1       4.394   2.094  -5.211  0.00  0.00    +0.000 A 
ATOM      9  C   UNL     1       3.836   1.348  -4.171  0.00  0.00    +0.000 A 
ENDBRANCH   2   4
BRANCH   1  11
ATOM     10  C   UNL     1       1.234   0.519   0.832  0.00  0.00    +0.000 C 
ATOM     11  N   UNL     1       2.399   0.105   0.038  0.00  0.00    +0.000 N 
BRANCH  11  12
ATOM     12  C   UNL     1       3.178  -0.856   0.745  0.00  0.00    +0.000 A 
ATOM     13  C   UNL     1       2.679  -2.150   0.959  0.00  0.00    +0.000 A 
ATOM     14  C   UNL     1       3.432  -3.103   1.650  0.00  0.00    +0.000 A 
ATOM     15  C   UNL     1       4.694  -2.773   2.139  0.00  0.00    +0.000 A 
ATOM     16  C   UNL     1       5.204  -1.493   1.936  0.00  0.00    +0.000 A 
ATOM     17  C   UNL     1       4.452  -0.541   1.243  0.00  0.00    +0.000 A 
ENDBRANCH  11  12
ENDBRANCH   1  11
TORSDOF 3
