REMARK  Name = *****
REMARK  5 active torsions:
REMARK  status: ('A' for Active; 'I' for Inactive)
REMARK    1  A    between atoms: C_1  and  C_2
REMARK    2  A    between atoms: C_7  and  C_8
REMARK    3  A    between atoms: C_8  and  C_9
REMARK    4  A    between atoms: C_8  and  C_15
REMARK    5  A    between atoms: C_9  and  C_10
REMARK                            x       y       z     vdW  Elec       q    Type
REMARK                         _______ _______ _______ _____ _____    ______ ____
ROOT
ATOM      1  C   UNL     1       1.001  -2.522   0.169  0.00  0.00    +0.000 C 
ENDROOT
BRANCH   1   8
ATOM      2  C   UNL     1      -1.851  -2.128   1.107  0.00  0.00    +0.000 C 
ATOM      3  C   UNL     1      -1.027  -0.987   0.572  0.00  0.00    +0.000 A 
ATOM      4  C   UNL     1      -1.614   0.289   0.513  0.00  0.00    +0.000 A 
ATOM      5  C   UNL     1      -0.907   1.384   0.020  0.00  0.00    +0.000 A 
ATOM      6  C   UNL     1       0.398   1.221  -0.424  0.00  0.00    +0.000 A 
ATOM      7  C   UNL     1       1.000  -0.035  -0.369  0.00  0.00    +0.000 A 
ATOM      8  C   UNL     1       0.311  -1.156   0.141  0.00  0.00    +0.000 A 
ENDBRANCH   1   8
BRANCH   1   9
ATOM      9  C   UNL     1       2.373  -2.453   0.722  0.00  0.00    +0.000 C 
ATOM     10  N   UNL     1       3.455  -2.417   1.145  0.00  0.00    +0.000 NA
ENDBRANCH   1   9
BRANCH   1  11
ATOM     11  C   UNL     1       0.999  -3.134  -1.249  0.00  0.00    +0.000 C 
BRANCH  11  12
ATOM     12  C   UNL     1       1.453  -4.599  -1.305  0.00  0.00    +0.000 C 
ATOM     13  C   UNL     1       1.400  -5.169  -2.722  0.00  0.00    +0.000 C 
ATOM     14  C   UNL     1       1.483  -6.675  -2.511  0.00  0.00    +0.000 C 
ATOM     15  C   UNL     1       0.862  -6.938  -1.139  0.00  0.00    +0.000 C 
ATOM     16  C   UNL     1       0.556  -5.569  -0.537  0.00  0.00    +0.000 C 
ENDBRANCH  11  12
ENDBRANCH   1  11
TORSDOF 4
