REMARK  Name = *****
REMARK  2 active torsions:
REMARK  status: ('A' for Active; 'I' for Inactive)
REMARK    1  A    between atoms: C_5  and  C_7
REMARK    2  A    between atoms: N_8  and  C_9
REMARK                            x       y       z     vdW  Elec       q    Type
REMARK                         _______ _______ _______ _____ _____    ______ ____
ROOT
ATOM      1  C   UNL     1      -0.660  -2.402  -0.203  0.00  0.00    +0.000 C 
ATOM      2  N   UNL     1      -1.860  -2.538   0.274  0.00  0.00    +0.000 NA
ENDROOT
BRANCH   1   7
ATOM      3  C   UNL     1       0.121   1.189   0.645  0.00  0.00    +0.000 A 
ATOM      4  C   UNL     1       1.414   1.328   0.149  0.00  0.00    +0.000 A 
ATOM      5  C   UNL     1       2.044   0.245  -0.468  0.00  0.00    +0.000 A 
ATOM      6  C   UNL     1       1.382  -0.982  -0.592  0.00  0.00    +0.000 A 
ATOM      7  C   UNL     1       0.080  -1.125  -0.094  0.00  0.00    +0.000 A 
ATOM      8  C   UNL     1      -0.545  -0.032   0.525  0.00  0.00    +0.000 A 
ATOM      9 CL   UNL     1       2.240  -2.266  -1.368  0.00  0.00    +0.000 Cl
ENDBRANCH   1   7
BRANCH   2  10
ATOM     10  C   UNL     1      -2.449  -3.797   0.106  0.00  0.00    +0.000 A 
ATOM     11  C   UNL     1      -2.238  -4.809   1.047  0.00  0.00    +0.000 A 
ATOM     12  C   UNL     1      -2.840  -6.060   0.887  0.00  0.00    +0.000 A 
ATOM     13  C   UNL     1      -3.664  -6.293  -0.213  0.00  0.00    +0.000 A 
ATOM     14  C   UNL     1      -3.894  -5.286  -1.149  0.00  0.00    +0.000 A 
ATOM     15  C   UNL     1      -3.289  -4.038  -0.985  0.00  0.00    +0.000 A 
ATOM     16 CL   UNL     1      -4.408  -7.831  -0.413  0.00  0.00    +0.000 Cl
ENDBRANCH   2  10
TORSDOF 2
