REMARK  Name = *****
REMARK  3 active torsions:
REMARK  status: ('A' for Active; 'I' for Inactive)
REMARK    1  A    between atoms: C_4  and  C_7
REMARK    2  A    between atoms: C_7  and  C_8
REMARK    3  A    between atoms: C_9  and  C_10
REMARK                            x       y       z     vdW  Elec       q    Type
REMARK                         _______ _______ _______ _____ _____    ______ ____
ROOT
ATOM      1  C   UNL     1      -0.666  -3.664   1.375  0.00  0.00    +0.000 C 
ATOM      2  C   UNL     1      -0.550  -4.907   0.881  0.00  0.00    +0.000 C 
ENDROOT
BRANCH   2   3
ATOM      3  C   UNL     1       0.698  -5.502   0.405  0.00  0.00    +0.000 A 
ATOM      4  C   UNL     1       1.430  -6.355   1.236  0.00  0.00    +0.000 A 
ATOM      5  C   UNL     1       2.625  -6.919   0.785  0.00  0.00    +0.000 A 
ATOM      6  C   UNL     1       3.092  -6.632  -0.497  0.00  0.00    +0.000 A 
ATOM      7  C   UNL     1       2.366  -5.781  -1.330  0.00  0.00    +0.000 A 
ATOM      8  C   UNL     1       1.171  -5.217  -0.881  0.00  0.00    +0.000 A 
ENDBRANCH   2   3
BRANCH   1   9
ATOM      9  C   UNL     1       0.433  -2.655   1.573  0.00  0.00    +0.000 C 
BRANCH   9  13
ATOM     10  C   UNL     1       0.229   1.051  -0.759  0.00  0.00    +0.000 C 
ATOM     11  C   UNL     1      -1.053   0.570  -0.090  0.00  0.00    +0.000 C 
ATOM     12  C   UNL     1      -0.754  -0.434   1.027  0.00  0.00    +0.000 C 
ATOM     13  C   UNL     1       0.286  -1.465   0.652  0.00  0.00    +0.000 C 
ATOM     14  C   UNL     1       1.075  -1.308  -0.429  0.00  0.00    +0.000 C 
ATOM     15  C   UNL     1       1.016  -0.121  -1.344  0.00  0.00    +0.000 C 
ENDBRANCH   9  13
ENDBRANCH   1   9
TORSDOF 3
