REMARK  Name = *****
REMARK  6 active torsions:
REMARK  status: ('A' for Active; 'I' for Inactive)
REMARK    1  A    between atoms: C_1  and  N_2
REMARK    2  A    between atoms: N_2  and  C_3
REMARK    3  A    between atoms: N_2  and  C_4
REMARK    4  A    between atoms: C_7  and  C_10
REMARK    5  A    between atoms: C_10  and  C_11
REMARK    6  A    between atoms: C_11  and  C_12
REMARK                            x       y       z     vdW  Elec       q    Type
REMARK                         _______ _______ _______ _____ _____    ______ ____
ROOT
ATOM      1  C   UNL     1       3.204  -0.007   1.144  0.00  0.00    +0.000 A 
ATOM      2  C   UNL     1       2.513  -0.411   2.300  0.00  0.00    +0.000 A 
ATOM      3  C   UNL     1       3.172  -0.721   3.499  0.00  0.00    +0.000 A 
ATOM      4  C   UNL     1       4.560  -0.629   3.590  0.00  0.00    +0.000 A 
ATOM      5  C   UNL     1       5.270  -0.218   2.463  0.00  0.00    +0.000 A 
ATOM      6  C   UNL     1       4.600   0.094   1.271  0.00  0.00    +0.000 A 
ENDROOT
BRANCH   1   8
ATOM      7  C   UNL     1       1.238  -0.321  -0.291  0.00  0.00    +0.000 C 
ATOM      8  N   UNL     1       2.530   0.317  -0.041  0.00  0.00    +0.000 N 
ATOM      9  C   UNL     1       3.300   0.666  -1.232  0.00  0.00    +0.000 C 
ENDBRANCH   1   8
BRANCH   4  10
ATOM     10  C   UNL     1       5.275  -0.976   4.871  0.00  0.00    +0.000 C 
BRANCH  10  11
ATOM     11  C   UNL     1       5.377  -2.491   5.074  0.00  0.00    +0.000 C 
BRANCH  11  12
ATOM     12  C   UNL     1       6.155  -2.840   6.321  0.00  0.00    +0.000 A 
ATOM     13  C   UNL     1       5.547  -2.759   7.583  0.00  0.00    +0.000 A 
ATOM     14  C   UNL     1       6.271  -3.066   8.735  0.00  0.00    +0.000 A 
ATOM     15  C   UNL     1       7.602  -3.452   8.626  0.00  0.00    +0.000 A 
ATOM     16  C   UNL     1       8.223  -3.535   7.386  0.00  0.00    +0.000 A 
ATOM     17  C   UNL     1       7.501  -3.227   6.232  0.00  0.00    +0.000 A 
ATOM     18  F   UNL     1       8.297  -3.747   9.732  0.00  0.00    +0.000 F 
ENDBRANCH  11  12
ENDBRANCH  10  11
ENDBRANCH   4  10
TORSDOF 4
