REMARK  Name = *****
REMARK  2 active torsions:
REMARK  status: ('A' for Active; 'I' for Inactive)
REMARK    1  A    between atoms: C_1  and  N_2
REMARK    2  A    between atoms: C_10  and  C_11
REMARK                            x       y       z     vdW  Elec       q    Type
REMARK                         _______ _______ _______ _____ _____    ______ ____
ROOT
ATOM      1  C   UNL     1       1.039  -3.215  -0.672  0.00  0.00    +0.000 C 
ATOM      2  N   UNL     1       0.920  -1.783  -0.484  0.00  0.00    +0.000 N 
ATOM      3  C   UNL     1      -0.242  -1.063  -0.698  0.00  0.00    +0.000 A 
ATOM      4  C   UNL     1      -1.529  -1.464  -1.100  0.00  0.00    +0.000 A 
ATOM      5  C   UNL     1      -2.516  -0.482  -1.239  0.00  0.00    +0.000 A 
ATOM      6  C   UNL     1      -2.234   0.856  -0.986  0.00  0.00    +0.000 A 
ATOM      7  C   UNL     1      -0.954   1.246  -0.582  0.00  0.00    +0.000 A 
ATOM      8  C   UNL     1       0.054   0.274  -0.434  0.00  0.00    +0.000 A 
ATOM      9  C   UNL     1       1.416   0.331  -0.040  0.00  0.00    +0.000 A 
ATOM     10  C   UNL     1       1.943  -0.948  -0.058  0.00  0.00    +0.000 A 
ENDROOT
BRANCH  10  11
ATOM     11  C   UNL     1       3.333  -1.453   0.286  0.00  0.00    +0.000 C 
ATOM     12  C   UNL     1       3.979  -0.720   1.489  0.00  0.00    +0.000 C 
ATOM     13  C   UNL     1       5.231   0.120   1.186  0.00  0.00    +0.000 C 
ATOM     14  C   UNL     1       4.923   1.361   0.346  0.00  0.00    +0.000 C 
ATOM     15  C   UNL     1       4.936   0.876  -1.105  0.00  0.00    +0.000 C 
ATOM     16  C   UNL     1       5.400  -0.585  -1.039  0.00  0.00    +0.000 C 
ATOM     17  C   UNL     1       6.172  -0.654   0.273  0.00  0.00    +0.000 C 
ATOM     18  C   UNL     1       4.218  -1.560  -0.979  0.00  0.00    +0.000 C 
ENDBRANCH  10  11
TORSDOF 1
