REMARK  Name = *****
REMARK  5 active torsions:
REMARK  status: ('A' for Active; 'I' for Inactive)
REMARK    1  A    between atoms: C_1  and  C_2
REMARK    2  A    between atoms: C_6  and  S_8
REMARK    3  A    between atoms: S_8  and  C_9
REMARK    4  A    between atoms: C_9  and  C_10
REMARK    5  A    between atoms: C_12  and  C_16
REMARK                            x       y       z     vdW  Elec       q    Type
REMARK                         _______ _______ _______ _____ _____    ______ ____
ROOT
ATOM      1  C   UNL     1       7.825   3.854   0.037  0.00  0.00    +0.000 A 
ATOM      2  C   UNL     1       8.398   4.304  -1.164  0.00  0.00    +0.000 A 
ATOM      3  C   UNL     1       9.190   5.464  -1.197  0.00  0.00    +0.000 A 
ATOM      4  C   UNL     1       9.400   6.176  -0.006  0.00  0.00    +0.000 A 
ATOM      5  C   UNL     1       8.828   5.742   1.189  0.00  0.00    +0.000 A 
ATOM      6  C   UNL     1       8.043   4.590   1.210  0.00  0.00    +0.000 A 
ENDROOT
BRANCH   3   7
ATOM      7  C   UNL     1       9.807   5.953  -2.483  0.00  0.00    +0.000 C 
ATOM      8  F   UNL     1       9.551   5.150  -3.554  0.00  0.00    +0.000 F 
ATOM      9  F   UNL     1       9.369   7.194  -2.835  0.00  0.00    +0.000 F 
ATOM     10  F   UNL     1      11.165   6.046  -2.407  0.00  0.00    +0.000 F 
ENDBRANCH   3   7
BRANCH   1  11
ATOM     11  C   UNL     1       6.961   2.615   0.059  0.00  0.00    +0.000 C 
BRANCH  11  12
ATOM     12  S   UNL     1       5.227   3.017  -0.305  0.00  0.00    +0.000 S 
BRANCH  12  18
ATOM     13  C   UNL     1       1.185  -0.069  -0.637  0.00  0.00    +0.000 C 
ATOM     14  C   UNL     1       2.650   0.075  -0.365  0.00  0.00    +0.000 A 
ATOM     15  C   UNL     1       3.413  -1.024  -0.031  0.00  0.00    +0.000 A 
ATOM     16  N   UNL     1       4.727  -0.898   0.217  0.00  0.00    +0.000 NA
ATOM     17  N   UNL     1       5.281   0.340   0.131  0.00  0.00    +0.000 NA
ATOM     18  C   UNL     1       4.507   1.399  -0.197  0.00  0.00    +0.000 A 
ATOM     19  N   UNL     1       3.188   1.310  -0.452  0.00  0.00    +0.000 NA
ENDBRANCH  12  18
ENDBRANCH  11  12
ENDBRANCH   1  11
TORSDOF 4
