REMARK  Name = *****
REMARK  3 active torsions:
REMARK  status: ('A' for Active; 'I' for Inactive)
REMARK    1  A    between atoms: C_4  and  O_7
REMARK    2  A    between atoms: O_7  and  C_8
REMARK    3  A    between atoms: C_8  and  C_10
REMARK                            x       y       z     vdW  Elec       q    Type
REMARK                         _______ _______ _______ _____ _____    ______ ____
ROOT
ATOM      1  C   UNL     1      -3.651  -0.644  -0.035  0.00  0.00    +0.000 C 
ATOM      2  O   UNL     1      -3.417  -1.781   0.341  0.00  0.00    +0.000 OA
ENDROOT
BRANCH   1   3
ATOM      3  C   UNL     1      -4.995  -0.202  -0.448  0.00  0.00    +0.000 A 
ATOM      4  C   UNL     1      -5.613   0.945   0.068  0.00  0.00    +0.000 A 
ATOM      5  C   UNL     1      -6.891   1.299  -0.371  0.00  0.00    +0.000 A 
ATOM      6  C   UNL     1      -7.542   0.502  -1.308  0.00  0.00    +0.000 A 
ATOM      7  C   UNL     1      -6.947  -0.649  -1.812  0.00  0.00    +0.000 A 
ATOM      8  C   UNL     1      -5.672  -1.008  -1.378  0.00  0.00    +0.000 A 
ATOM      9  F   UNL     1      -8.767   0.845  -1.724  0.00  0.00    +0.000 F 
ATOM     10 CL   UNL     1      -4.887   1.934   1.284  0.00  0.00    +0.000 Cl
ENDBRANCH   1   3
BRANCH   1  11
ATOM     11  O   UNL     1      -2.766   0.386  -0.282  0.00  0.00    +0.000 OA
BRANCH  11  15
ATOM     12  C   UNL     1       1.264  -0.228   0.620  0.00  0.00    +0.000 A 
ATOM     13  C   UNL     1       0.637  -1.069  -0.303  0.00  0.00    +0.000 A 
ATOM     14  C   UNL     1      -0.712  -0.889  -0.609  0.00  0.00    +0.000 A 
ATOM     15  C   UNL     1      -1.425   0.125   0.029  0.00  0.00    +0.000 A 
ATOM     16  C   UNL     1      -0.804   0.983   0.935  0.00  0.00    +0.000 A 
ATOM     17  C   UNL     1       0.545   0.799   1.235  0.00  0.00    +0.000 A 
ENDBRANCH  11  15
ENDBRANCH   1  11
TORSDOF 3
