REMARK  Name = *****
REMARK  4 active torsions:
REMARK  status: ('A' for Active; 'I' for Inactive)
REMARK    1  A    between atoms: C_1  and  C_2
REMARK    2  A    between atoms: C_5  and  C_8
REMARK    3  A    between atoms: C_8  and  C_10
REMARK    4  A    between atoms: C_12  and  C_13
REMARK                            x       y       z     vdW  Elec       q    Type
REMARK                         _______ _______ _______ _____ _____    ______ ____
ROOT
ATOM      1  C   UNL     1      -3.317  -0.079   0.259  0.00  0.00    +0.000 C 
ATOM      2  O   UNL     1      -3.668  -0.664   1.277  0.00  0.00    +0.000 OA
ENDROOT
BRANCH   1   7
ATOM      3  C   UNL     1       2.064  -0.888  -1.753  0.00  0.00    +0.000 C 
ATOM      4  C   UNL     1       0.663  -0.677  -1.257  0.00  0.00    +0.000 A 
ATOM      5  C   UNL     1      -0.299  -0.051  -2.058  0.00  0.00    +0.000 A 
ATOM      6  C   UNL     1      -1.600   0.145  -1.585  0.00  0.00    +0.000 A 
ATOM      7  C   UNL     1      -1.952  -0.281  -0.299  0.00  0.00    +0.000 A 
ATOM      8  C   UNL     1      -0.995  -0.922   0.497  0.00  0.00    +0.000 A 
ATOM      9  C   UNL     1       0.304  -1.116   0.022  0.00  0.00    +0.000 A 
ENDBRANCH   1   7
BRANCH   1  10
ATOM     10  C   UNL     1      -4.251   0.852  -0.436  0.00  0.00    +0.000 C 
ATOM     11  C   UNL     1      -5.384   0.298  -1.259  0.00  0.00    +0.000 C 
ATOM     12  C   UNL     1      -5.688   0.989   0.048  0.00  0.00    +0.000 C 
BRANCH  12  13
ATOM     13  C   UNL     1      -6.347   2.349   0.052  0.00  0.00    +0.000 A 
ATOM     14  C   UNL     1      -7.588   2.560  -0.572  0.00  0.00    +0.000 A 
ATOM     15  C   UNL     1      -8.205   3.814  -0.560  0.00  0.00    +0.000 A 
ATOM     16  C   UNL     1      -7.593   4.885   0.084  0.00  0.00    +0.000 A 
ATOM     17  C   UNL     1      -6.369   4.700   0.721  0.00  0.00    +0.000 A 
ATOM     18  C   UNL     1      -5.759   3.443   0.708  0.00  0.00    +0.000 A 
ENDBRANCH  12  13
ENDBRANCH   1  10
TORSDOF 3
