REMARK  Name = *****
REMARK  3 active torsions:
REMARK  status: ('A' for Active; 'I' for Inactive)
REMARK    1  A    between atoms: C_4  and  N_7
REMARK    2  A    between atoms: C_8  and  C_9
REMARK    3  A    between atoms: C_8  and  C_12
REMARK                            x       y       z     vdW  Elec       q    Type
REMARK                         _______ _______ _______ _____ _____    ______ ____
ROOT
ATOM      1  N   UNL     1       2.715  -0.701  -0.160  0.00  0.00    +0.000 NA
ATOM      2  C   UNL     1       3.282  -1.830   0.090  0.00  0.00    +0.000 C 
ENDROOT
BRANCH   1   6
ATOM      3  C   UNL     1      -1.086   1.220  -0.171  0.00  0.00    +0.000 C 
ATOM      4  C   UNL     1      -1.050  -0.286  -0.412  0.00  0.00    +0.000 C 
ATOM      5  C   UNL     1       0.355  -0.767  -0.764  0.00  0.00    +0.000 C 
ATOM      6  C   UNL     1       1.376  -0.355   0.303  0.00  0.00    +0.000 C 
ATOM      7  C   UNL     1       1.340   1.162   0.525  0.00  0.00    +0.000 C 
ATOM      8  C   UNL     1      -0.064   1.647   0.878  0.00  0.00    +0.000 C 
ENDBRANCH   1   6
BRANCH   2   9
ATOM      9  C   UNL     1       4.615  -2.114  -0.518  0.00  0.00    +0.000 A 
ATOM     10  C   UNL     1       5.479  -1.047  -0.791  0.00  0.00    +0.000 A 
ATOM     11  C   UNL     1       6.728  -1.283  -1.367  0.00  0.00    +0.000 A 
ATOM     12  C   UNL     1       7.115  -2.585  -1.681  0.00  0.00    +0.000 A 
ATOM     13  C   UNL     1       6.253  -3.651  -1.426  0.00  0.00    +0.000 A 
ATOM     14  C   UNL     1       5.002  -3.418  -0.850  0.00  0.00    +0.000 A 
ENDBRANCH   2   9
BRANCH   2  15
ATOM     15  C   UNL     1       2.636  -2.882   0.930  0.00  0.00    +0.000 C 
ATOM     16  C   UNL     1       2.431  -2.650   2.414  0.00  0.00    +0.000 C 
ATOM     17  C   UNL     1       3.424  -3.668   1.961  0.00  0.00    +0.000 C 
ENDBRANCH   2  15
TORSDOF 3
