REMARK  Name = *****
REMARK  1 active torsions:
REMARK  status: ('A' for Active; 'I' for Inactive)
REMARK    1  A    between atoms: C_8  and  C_10
REMARK                            x       y       z     vdW  Elec       q    Type
REMARK                         _______ _______ _______ _____ _____    ______ ____
ROOT
ATOM      1  C   UNL     1      -2.186  -0.769  -0.011  0.00  0.00    +0.000 A 
ATOM      2  C   UNL     1      -2.267   0.614   0.018  0.00  0.00    +0.000 A 
ATOM      3  C   UNL     1      -1.107   1.390   0.031  0.00  0.00    +0.000 A 
ATOM      4  C   UNL     1       0.147   0.748   0.015  0.00  0.00    +0.000 A 
ATOM      5  C   UNL     1       0.262  -0.643  -0.014  0.00  0.00    +0.000 A 
ATOM      6  C   UNL     1      -0.939  -1.402  -0.027  0.00  0.00    +0.000 A 
ATOM      7  C   UNL     1       1.647  -1.049  -0.026  0.00  0.00    +0.000 A 
ATOM      8  C   UNL     1       2.529   0.015  -0.007  0.00  0.00    +0.000 A 
ATOM      9  S   UNL     1       1.687   1.506   0.027  0.00  0.00    +0.000 S 
ATOM     10 CL   UNL     1       2.083  -2.716  -0.061  0.00  0.00    +0.000 Cl
ENDROOT
BRANCH   8  11
ATOM     11  C   UNL     1       3.966  -0.007  -0.013  0.00  0.00    +0.000 A 
ATOM     12  N   UNL     1       4.737   1.069   0.021  0.00  0.00    +0.000 NA
ATOM     13  N   UNL     1       6.048   0.638   0.001  0.00  0.00    +0.000 NA
ATOM     14  C   UNL     1       5.992  -0.669  -0.044  0.00  0.00    +0.000 A 
ATOM     15  O   UNL     1       4.725  -1.157  -0.056  0.00  0.00    +0.000 OA
ENDBRANCH   8  11
TORSDOF 1
