REMARK  Name = *****
REMARK  4 active torsions:
REMARK  status: ('A' for Active; 'I' for Inactive)
REMARK    1  A    between atoms: C_4  and  C_7
REMARK    2  A    between atoms: C_7  and  C_9
REMARK    3  A    between atoms: C_9  and  C_10
REMARK    4  A    between atoms: C_10  and  C_11
REMARK                            x       y       z     vdW  Elec       q    Type
REMARK                         _______ _______ _______ _____ _____    ______ ____
ROOT
ATOM      1  C   UNL     1      -3.769  -0.686  -0.356  0.00  0.00    +0.000 C 
ENDROOT
BRANCH   1   2
ATOM      2  C   UNL     1      -2.803   0.483  -0.328  0.00  0.00    +0.000 C 
ATOM      3  O   UNL     1      -3.175   1.644  -0.493  0.00  0.00    +0.000 OA
BRANCH   2   7
ATOM      4  C   UNL     1       1.386  -0.209   0.344  0.00  0.00    +0.000 A 
ATOM      5  C   UNL     1       0.503  -1.287   0.368  0.00  0.00    +0.000 A 
ATOM      6  C   UNL     1      -0.863  -1.083   0.152  0.00  0.00    +0.000 A 
ATOM      7  C   UNL     1      -1.352   0.208  -0.090  0.00  0.00    +0.000 A 
ATOM      8  C   UNL     1      -0.456   1.286  -0.111  0.00  0.00    +0.000 A 
ATOM      9  C   UNL     1       0.908   1.078   0.105  0.00  0.00    +0.000 A 
ENDBRANCH   2   7
ENDBRANCH   1   2
BRANCH   1  10
ATOM     10  C   UNL     1      -5.197  -0.230  -0.659  0.00  0.00    +0.000 C 
BRANCH  10  11
ATOM     11  C   UNL     1      -6.151  -1.399  -0.693  0.00  0.00    +0.000 A 
ATOM     12  C   UNL     1      -6.365  -2.106  -1.885  0.00  0.00    +0.000 A 
ATOM     13  C   UNL     1      -7.231  -3.200  -1.906  0.00  0.00    +0.000 A 
ATOM     14  C   UNL     1      -7.888  -3.604  -0.745  0.00  0.00    +0.000 A 
ATOM     15  C   UNL     1      -7.677  -2.909   0.445  0.00  0.00    +0.000 A 
ATOM     16  C   UNL     1      -6.811  -1.814   0.472  0.00  0.00    +0.000 A 
ATOM     17 CL   UNL     1      -7.485  -4.060  -3.374  0.00  0.00    +0.000 Cl
ENDBRANCH  10  11
ENDBRANCH   1  10
TORSDOF 4
