REMARK  Name = *****
REMARK  5 active torsions:
REMARK  status: ('A' for Active; 'I' for Inactive)
REMARK    1  A    between atoms: C_4  and  C_7
REMARK    2  A    between atoms: C_7  and  O_8
REMARK    3  A    between atoms: O_8  and  C_9
REMARK    4  A    between atoms: C_9  and  C_10
REMARK    5  A    between atoms: C_9  and  C_16
REMARK                            x       y       z     vdW  Elec       q    Type
REMARK                         _______ _______ _______ _____ _____    ______ ____
ROOT
ATOM      1  C   UNL     1      -5.014  -0.659  -0.447  0.00  0.00    +0.000 C 
ENDROOT
BRANCH   1   2
ATOM      2  C   UNL     1      -5.176   0.245  -1.659  0.00  0.00    +0.000 A 
ATOM      3  C   UNL     1      -4.764  -0.185  -2.931  0.00  0.00    +0.000 A 
ATOM      4  C   UNL     1      -4.935   0.634  -4.048  0.00  0.00    +0.000 A 
ATOM      5  C   UNL     1      -5.518   1.891  -3.908  0.00  0.00    +0.000 A 
ATOM      6  C   UNL     1      -5.927   2.333  -2.651  0.00  0.00    +0.000 A 
ATOM      7  C   UNL     1      -5.757   1.516  -1.532  0.00  0.00    +0.000 A 
ENDBRANCH   1   2
BRANCH   1   8
ATOM      8  C   UNL     1      -5.996  -1.859  -0.523  0.00  0.00    +0.000 C 
ATOM      9  O   UNL     1      -5.623  -3.022  -0.663  0.00  0.00    +0.000 OA
ATOM     10 CL   UNL     1      -7.661  -1.374  -0.286  0.00  0.00    +0.000 Cl
ENDBRANCH   1   8
BRANCH   1  11
ATOM     11  O   UNL     1      -3.629  -1.001  -0.380  0.00  0.00    +0.000 OA
BRANCH  11  12
ATOM     12  C   UNL     1      -3.245  -1.534   0.885  0.00  0.00    +0.000 C 
BRANCH  12  16
ATOM     13  C   UNL     1       1.021  -2.163   1.074  0.00  0.00    +0.000 A 
ATOM     14  C   UNL     1       0.513  -1.042   0.421  0.00  0.00    +0.000 A 
ATOM     15  C   UNL     1      -0.867  -0.841   0.347  0.00  0.00    +0.000 A 
ATOM     16  C   UNL     1      -1.755  -1.765   0.917  0.00  0.00    +0.000 A 
ATOM     17  C   UNL     1      -1.230  -2.884   1.580  0.00  0.00    +0.000 A 
ATOM     18  C   UNL     1       0.151  -3.083   1.654  0.00  0.00    +0.000 A 
ENDBRANCH  12  16
ENDBRANCH  11  12
ENDBRANCH   1  11
TORSDOF 5
