REMARK  Name = *****
REMARK  7 active torsions:
REMARK  status: ('A' for Active; 'I' for Inactive)
REMARK    1  A    between atoms: C_1  and  C_2
REMARK    2  A    between atoms: C_3  and  C_18
REMARK    3  A    between atoms: C_4  and  C_8
REMARK    4  A    between atoms: C_4  and  C_9
REMARK    5  A    between atoms: C_6  and  C_7
REMARK    6  A    between atoms: C_9  and  C_10
REMARK    7  A    between atoms: C_11  and  C_12
REMARK                            x       y       z     vdW  Elec       q    Type
REMARK                         _______ _______ _______ _____ _____    ______ ____
ROOT
ATOM      1  C   UNL     1       0.918   0.049  -0.092  0.00  0.00    +0.000 C 
ATOM      2  C   UNL     1       2.387  -0.062   0.035  0.00  0.00    +0.000 C 
ATOM      3  C   UNL     1       3.225  -1.104   0.014  0.00  0.00    +0.000 C 
ATOM      4  C   UNL     1       4.662  -0.659   0.181  0.00  0.00    +0.000 C 
ATOM      5  N   UNL     1       4.568   0.821   0.324  0.00  0.00    +0.000 NA
ATOM      6  C   UNL     1       3.295   1.077   0.230  0.00  0.00    +0.000 C 
ATOM      7  C   UNL     1       2.771   2.478   0.317  0.00  0.00    +0.000 C 
ATOM      8  C   UNL     1       5.277  -1.202   1.478  0.00  0.00    +0.000 C 
ATOM      9  C   UNL     1       2.879  -2.545  -0.155  0.00  0.00    +0.000 C 
ENDROOT
BRANCH   4  10
ATOM     10  C   UNL     1       5.584  -0.994  -1.024  0.00  0.00    +0.000 C 
BRANCH  10  11
ATOM     11  C   UNL     1       5.096  -0.482  -2.358  0.00  0.00    +0.000 C 
ATOM     12  C   UNL     1       4.811  -1.270  -3.407  0.00  0.00    +0.000 C 
BRANCH  12  13
ATOM     13  C   UNL     1       4.327  -0.771  -4.702  0.00  0.00    +0.000 A 
ATOM     14  C   UNL     1       4.739  -1.417  -5.875  0.00  0.00    +0.000 A 
ATOM     15  C   UNL     1       4.273  -0.992  -7.122  0.00  0.00    +0.000 A 
ATOM     16  C   UNL     1       3.382   0.076  -7.207  0.00  0.00    +0.000 A 
ATOM     17  C   UNL     1       2.952   0.715  -6.046  0.00  0.00    +0.000 A 
ATOM     18  C   UNL     1       3.419   0.291  -4.799  0.00  0.00    +0.000 A 
ENDBRANCH  12  13
ENDBRANCH  10  11
ENDBRANCH   4  10
TORSDOF 3
