REMARK  Name = *****
REMARK  5 active torsions:
REMARK  status: ('A' for Active; 'I' for Inactive)
REMARK    1  A    between atoms: C_1  and  O_2
REMARK    2  A    between atoms: O_2  and  C_3
REMARK    3  A    between atoms: C_3  and  C_4
REMARK    4  A    between atoms: C_3  and  C_10
REMARK    5  A    between atoms: C_10  and  C_11
REMARK                            x       y       z     vdW  Elec       q    Type
REMARK                         _______ _______ _______ _____ _____    ______ ____
ROOT
ATOM      1  C   UNL     1       3.160  -0.614  -1.138  0.00  0.00    +0.000 C 
ENDROOT
BRANCH   1   2
ATOM      2  C   UNL     1       2.580  -0.301  -2.515  0.00  0.00    +0.000 A 
ATOM      3  C   UNL     1       3.370  -0.017  -3.639  0.00  0.00    +0.000 A 
ATOM      4  C   UNL     1       2.780   0.282  -4.870  0.00  0.00    +0.000 A 
ATOM      5  C   UNL     1       1.393   0.308  -4.995  0.00  0.00    +0.000 A 
ATOM      6  C   UNL     1       0.592   0.037  -3.890  0.00  0.00    +0.000 A 
ATOM      7  C   UNL     1       1.180  -0.263  -2.660  0.00  0.00    +0.000 A 
ENDBRANCH   1   2
BRANCH   1   9
ATOM      8  C   UNL     1       3.305   1.738  -0.547  0.00  0.00    +0.000 C 
ATOM      9  O   UNL     1       2.828   0.442  -0.208  0.00  0.00    +0.000 OA
ENDBRANCH   1   9
BRANCH   1  10
ATOM     10  C   UNL     1       4.663  -1.027  -1.078  0.00  0.00    +0.000 C 
ATOM     11  F   UNL     1       4.913  -1.930  -2.079  0.00  0.00    +0.000 F 
BRANCH  10  12
ATOM     12  C   UNL     1       5.055  -1.605   0.272  0.00  0.00    +0.000 A 
ATOM     13  C   UNL     1       5.114  -2.996   0.451  0.00  0.00    +0.000 A 
ATOM     14  C   UNL     1       5.469  -3.540   1.687  0.00  0.00    +0.000 A 
ATOM     15  C   UNL     1       5.767  -2.701   2.758  0.00  0.00    +0.000 A 
ATOM     16  C   UNL     1       5.711  -1.318   2.594  0.00  0.00    +0.000 A 
ATOM     17  C   UNL     1       5.358  -0.772   1.359  0.00  0.00    +0.000 A 
ENDBRANCH  10  12
ENDBRANCH   1  10
TORSDOF 4
