REMARK  Name = *****
REMARK  4 active torsions:
REMARK  status: ('A' for Active; 'I' for Inactive)
REMARK    1  A    between atoms: C_1  and  C_2
REMARK    2  A    between atoms: C_5  and  N_8
REMARK    3  A    between atoms: N_8  and  C_9
REMARK    4  A    between atoms: C_9  and  C_11
REMARK                            x       y       z     vdW  Elec       q    Type
REMARK                         _______ _______ _______ _____ _____    ______ ____
ROOT
ATOM      1  N   UNL     1      -3.106   0.756   0.403  0.00  0.00    +0.000 N 
ATOM      2  H   UNL     1      -3.614  -0.073   0.555  0.00  0.00    +0.000 HD
ENDROOT
BRANCH   1   7
ATOM      3  C   UNL     1       2.464  -0.471  -0.263  0.00  0.00    +0.000 C 
ATOM      4  C   UNL     1       1.019  -0.126  -0.060  0.00  0.00    +0.000 A 
ATOM      5  C   UNL     1       0.614   1.206   0.048  0.00  0.00    +0.000 A 
ATOM      6  C   UNL     1      -0.740   1.537   0.204  0.00  0.00    +0.000 A 
ATOM      7  C   UNL     1      -1.717   0.545   0.236  0.00  0.00    +0.000 A 
ATOM      8  C   UNL     1      -1.304  -0.792   0.125  0.00  0.00    +0.000 A 
ATOM      9  C   UNL     1       0.046  -1.125  -0.032  0.00  0.00    +0.000 A 
ENDBRANCH   1   7
BRANCH   1  10
ATOM     10  C   UNL     1      -3.897   1.899   0.397  0.00  0.00    +0.000 C 
ATOM     11  S   UNL     1      -3.489   3.479   0.014  0.00  0.00    +0.000 S 
BRANCH  10  12
ATOM     12  C   UNL     1      -5.310   1.581   0.761  0.00  0.00    +0.000 A 
ATOM     13  C   UNL     1      -5.588   1.095   2.046  0.00  0.00    +0.000 A 
ATOM     14  C   UNL     1      -6.901   0.769   2.393  0.00  0.00    +0.000 A 
ATOM     15  C   UNL     1      -7.925   0.926   1.459  0.00  0.00    +0.000 A 
ATOM     16  C   UNL     1      -7.650   1.406   0.177  0.00  0.00    +0.000 A 
ATOM     17  C   UNL     1      -6.339   1.734  -0.176  0.00  0.00    +0.000 A 
ATOM     18 CL   UNL     1      -9.541   0.521   1.889  0.00  0.00    +0.000 Cl
ENDBRANCH  10  12
ENDBRANCH   1  10
TORSDOF 3
