REMARK  Name = *****
REMARK  4 active torsions:
REMARK  status: ('A' for Active; 'I' for Inactive)
REMARK    1  A    between atoms: C_1  and  S_2
REMARK    2  A    between atoms: S_2  and  C_3
REMARK    3  A    between atoms: C_6  and  C_9
REMARK    4  A    between atoms: C_10  and  C_11
REMARK                            x       y       z     vdW  Elec       q    Type
REMARK                         _______ _______ _______ _____ _____    ______ ____
ROOT
ATOM      1  C   UNL     1       3.167  -1.596   0.676  0.00  0.00    +0.000 A 
ATOM      2  C   UNL     1       4.410  -1.643   1.312  0.00  0.00    +0.000 A 
ATOM      3  C   UNL     1       4.833  -2.813   1.952  0.00  0.00    +0.000 A 
ATOM      4  C   UNL     1       4.012  -3.947   1.981  0.00  0.00    +0.000 A 
ATOM      5  C   UNL     1       2.769  -3.895   1.340  0.00  0.00    +0.000 A 
ATOM      6  C   UNL     1       2.345  -2.724   0.702  0.00  0.00    +0.000 A 
ENDROOT
BRANCH   1   8
ATOM      7  C   UNL     1       3.885   0.055  -1.398  0.00  0.00    +0.000 C 
ATOM      8  S   UNL     1       2.594  -0.118  -0.139  0.00  0.00    +0.000 S 
ENDBRANCH   1   8
BRANCH   4   9
ATOM      9  C   UNL     1       4.435  -5.205   2.612  0.00  0.00    +0.000 C 
ATOM     10  C   UNL     1       5.106  -5.267   3.774  0.00  0.00    +0.000 C 
BRANCH  10  11
ATOM     11  C   UNL     1       5.512  -6.527   4.412  0.00  0.00    +0.000 A 
ATOM     12  C   UNL     1       6.023  -7.604   3.676  0.00  0.00    +0.000 A 
ATOM     13  C   UNL     1       6.428  -8.776   4.321  0.00  0.00    +0.000 A 
ATOM     14  C   UNL     1       6.337  -8.878   5.707  0.00  0.00    +0.000 A 
ATOM     15  C   UNL     1       5.846  -7.807   6.451  0.00  0.00    +0.000 A 
ATOM     16  C   UNL     1       5.441  -6.635   5.807  0.00  0.00    +0.000 A 
ENDBRANCH  10  11
ENDBRANCH   4   9
TORSDOF 3
