REMARK  Name = *****
REMARK  5 active torsions:
REMARK  status: ('A' for Active; 'I' for Inactive)
REMARK    1  A    between atoms: C_1  and  C_2
REMARK    2  A    between atoms: C_2  and  P_3
REMARK    3  A    between atoms: P_3  and  C_4
REMARK    4  A    between atoms: P_3  and  O_10
REMARK    5  A    between atoms: O_10  and  C_11
REMARK                            x       y       z     vdW  Elec       q    Type
REMARK                         _______ _______ _______ _____ _____    ______ ____
ROOT
ATOM      1  P   UNL     1       3.215  -1.885   0.905  0.00  0.00    +0.000 P 
ENDROOT
BRANCH   1   2
ATOM      2  C   UNL     1       2.452  -3.193  -0.123  0.00  0.00    +0.000 A 
ATOM      3  C   UNL     1       3.181  -4.296  -0.590  0.00  0.00    +0.000 A 
ATOM      4  C   UNL     1       2.569  -5.289  -1.361  0.00  0.00    +0.000 A 
ATOM      5  C   UNL     1       1.214  -5.198  -1.670  0.00  0.00    +0.000 A 
ATOM      6  C   UNL     1       0.470  -4.118  -1.202  0.00  0.00    +0.000 A 
ATOM      7  C   UNL     1       1.083  -3.127  -0.430  0.00  0.00    +0.000 A 
ENDBRANCH   1   2
BRANCH   1   9
ATOM      8  C   UNL     1       3.615   0.838   0.390  0.00  0.00    +0.000 C 
ATOM      9  C   UNL     1       2.930  -0.401  -0.166  0.00  0.00    +0.000 C 
ENDBRANCH   1   9
BRANCH   1  10
ATOM     10  O   UNL     1       4.780  -2.120   0.581  0.00  0.00    +0.000 OA
BRANCH  10  11
ATOM     11  C   UNL     1       5.775  -2.383   1.488  0.00  0.00    +0.000 A 
ATOM     12  C   UNL     1       7.056  -2.511   0.943  0.00  0.00    +0.000 A 
ATOM     13  C   UNL     1       8.152  -2.783   1.765  0.00  0.00    +0.000 A 
ATOM     14  C   UNL     1       7.969  -2.930   3.138  0.00  0.00    +0.000 A 
ATOM     15  C   UNL     1       6.694  -2.805   3.687  0.00  0.00    +0.000 A 
ATOM     16  C   UNL     1       5.597  -2.532   2.865  0.00  0.00    +0.000 A 
ENDBRANCH  10  11
ENDBRANCH   1  10
TORSDOF 4
