REMARK  Name = *****
REMARK  2 active torsions:
REMARK  status: ('A' for Active; 'I' for Inactive)
REMARK    1  A    between atoms: C_1  and  C_2
REMARK    2  A    between atoms: C_6  and  C_12
REMARK                            x       y       z     vdW  Elec       q    Type
REMARK                         _______ _______ _______ _____ _____    ______ ____
ROOT
ATOM      1  C   UNL     1       0.931   0.223   0.072  0.00  0.00    +0.000 C 
ATOM      2  C   UNL     1       2.432   0.123   0.116  0.00  0.00    +0.000 A 
ATOM      3  C   UNL     1       3.097  -1.125   0.066  0.00  0.00    +0.000 A 
ATOM      4  C   UNL     1       2.299  -2.411   0.005  0.00  0.00    +0.000 C 
ATOM      5  C   UNL     1       3.120  -3.635  -0.398  0.00  0.00    +0.000 C 
ATOM      6  C   UNL     1       4.419  -3.691   0.414  0.00  0.00    +0.000 C 
ATOM      7  C   UNL     1       5.279  -2.461   0.085  0.00  0.00    +0.000 C 
ATOM      8  C   UNL     1       4.506  -1.161   0.138  0.00  0.00    +0.000 A 
ATOM      9  C   UNL     1       5.232   0.038   0.204  0.00  0.00    +0.000 A 
ATOM     10  C   UNL     1       4.575   1.264   0.228  0.00  0.00    +0.000 A 
ATOM     11  C   UNL     1       3.185   1.306   0.186  0.00  0.00    +0.000 A 
ENDROOT
BRANCH   6  12
ATOM     12  C   UNL     1       5.184  -4.985   0.196  0.00  0.00    +0.000 A 
ATOM     13  C   UNL     1       5.583  -5.403  -1.082  0.00  0.00    +0.000 A 
ATOM     14  C   UNL     1       6.290  -6.595  -1.255  0.00  0.00    +0.000 A 
ATOM     15  C   UNL     1       6.609  -7.384  -0.153  0.00  0.00    +0.000 A 
ATOM     16  C   UNL     1       6.222  -6.982   1.123  0.00  0.00    +0.000 A 
ATOM     17  C   UNL     1       5.515  -5.790   1.297  0.00  0.00    +0.000 A 
ENDBRANCH   6  12
TORSDOF 1
