REMARK  Name = *****
REMARK  3 active torsions:
REMARK  status: ('A' for Active; 'I' for Inactive)
REMARK    1  A    between atoms: C_4  and  S_7
REMARK    2  A    between atoms: S_7  and  C_8
REMARK    3  A    between atoms: C_9  and  C_10
REMARK                            x       y       z     vdW  Elec       q    Type
REMARK                         _______ _______ _______ _____ _____    ______ ____
ROOT
ATOM      1  C   UNL     1       3.612  -2.500  -0.196  0.00  0.00    +0.000 C 
ATOM      2  C   UNL     1       3.913  -3.557   0.286  0.00  0.00    +0.000 C 
ENDROOT
BRANCH   2   3
ATOM      3  C   UNL     1       4.257  -4.820   0.853  0.00  0.00    +0.000 C 
ATOM      4  C   UNL     1       5.229  -4.880   1.781  0.00  0.00    +0.000 C 
ATOM      5  C   UNL     1       5.664  -6.152   2.450  0.00  0.00    +0.000 C 
ATOM      6  C   UNL     1       4.706  -7.320   2.212  0.00  0.00    +0.000 C 
ATOM      7  C   UNL     1       4.235  -7.359   0.762  0.00  0.00    +0.000 C 
ATOM      8  C   UNL     1       3.531  -6.055   0.377  0.00  0.00    +0.000 C 
ENDBRANCH   2   3
BRANCH   1   9
ATOM      9  S   UNL     1       3.178  -1.014  -0.879  0.00  0.00    +0.000 S 
BRANCH   9  13
ATOM     10  C   UNL     1      -1.226   0.135   0.012  0.00  0.00    +0.000 C 
ATOM     11  C   UNL     1      -0.849  -1.338   0.127  0.00  0.00    +0.000 C 
ATOM     12  C   UNL     1       0.492  -1.632  -0.546  0.00  0.00    +0.000 C 
ATOM     13  C   UNL     1       1.602  -0.730   0.009  0.00  0.00    +0.000 C 
ATOM     14  C   UNL     1       1.220   0.750  -0.125  0.00  0.00    +0.000 C 
ATOM     15  C   UNL     1      -0.121   1.040   0.548  0.00  0.00    +0.000 C 
ENDBRANCH   9  13
ENDBRANCH   1   9
TORSDOF 3
