REMARK  Name = *****
REMARK  3 active torsions:
REMARK  status: ('A' for Active; 'I' for Inactive)
REMARK    1  A    between atoms: C_4  and  C_7
REMARK    2  A    between atoms: C_8  and  C_9
REMARK    3  A    between atoms: C_11  and  C_15
REMARK                            x       y       z     vdW  Elec       q    Type
REMARK                         _______ _______ _______ _____ _____    ______ ____
ROOT
ATOM      1  C   UNL     1       2.028   0.015  -0.022  0.00  0.00    +0.000 A 
ATOM      2  C   UNL     1       2.718   1.232  -0.002  0.00  0.00    +0.000 A 
ATOM      3  C   UNL     1       4.119   1.247  -0.010  0.00  0.00    +0.000 A 
ATOM      4  C   UNL     1       4.816   0.028  -0.037  0.00  0.00    +0.000 A 
ATOM      5  C   UNL     1       4.125  -1.185  -0.056  0.00  0.00    +0.000 A 
ATOM      6  C   UNL     1       2.731  -1.191  -0.048  0.00  0.00    +0.000 A 
ENDROOT
BRANCH   3   7
ATOM      7  C   UNL     1       4.901   2.527   0.010  0.00  0.00    +0.000 C 
ATOM      8  O   UNL     1       6.128   2.438  -0.002  0.00  0.00    +0.000 OA
ATOM      9 CL   UNL     1       4.062   4.064   0.049  0.00  0.00    +0.000 Cl
ENDBRANCH   3   7
BRANCH   1  11
ATOM     10  C   UNL     1      -0.604   0.006  -0.011  0.00  0.00    +0.000 C 
ATOM     11  C   UNL     1       0.598   0.007  -0.015  0.00  0.00    +0.000 C 
BRANCH  10  15
ATOM     12  C   UNL     1      -4.827   0.021  -0.001  0.00  0.00    +0.000 A 
ATOM     13  C   UNL     1      -4.134  -1.189   0.029  0.00  0.00    +0.000 A 
ATOM     14  C   UNL     1      -2.738  -1.195   0.026  0.00  0.00    +0.000 A 
ATOM     15  C   UNL     1      -2.034   0.011  -0.007  0.00  0.00    +0.000 A 
ATOM     16  C   UNL     1      -2.730   1.222  -0.037  0.00  0.00    +0.000 A 
ATOM     17  C   UNL     1      -4.126   1.226  -0.035  0.00  0.00    +0.000 A 
ENDBRANCH  10  15
ENDBRANCH   1  11
TORSDOF 3
