REMARK  Name = *****
REMARK  1 active torsions:
REMARK  status: ('A' for Active; 'I' for Inactive)
REMARK    1  A    between atoms: C_4  and  C_7
REMARK                            x       y       z     vdW  Elec       q    Type
REMARK                         _______ _______ _______ _____ _____    ______ ____
ROOT
ATOM      1  C   UNL     1      -3.340  -0.520   0.192  0.00  0.00    +0.000 C 
ATOM      2  C   UNL     1      -3.977  -1.882   0.320  0.00  0.00    +0.000 C 
ATOM      3  C   UNL     1      -5.230  -2.202  -0.036  0.00  0.00    +0.000 C 
ATOM      4  C   UNL     1      -6.156  -1.224  -0.615  0.00  0.00    +0.000 A 
ATOM      5  C   UNL     1      -7.526  -1.528  -0.644  0.00  0.00    +0.000 A 
ATOM      6  C   UNL     1      -8.442  -0.639  -1.209  0.00  0.00    +0.000 A 
ATOM      7  C   UNL     1      -7.998   0.559  -1.762  0.00  0.00    +0.000 A 
ATOM      8  C   UNL     1      -6.637   0.867  -1.749  0.00  0.00    +0.000 A 
ATOM      9  C   UNL     1      -5.712  -0.014  -1.173  0.00  0.00    +0.000 A 
ATOM     10  S   UNL     1      -3.984   0.434  -1.234  0.00  0.00    +0.000 S 
ENDROOT
BRANCH   1  14
ATOM     11  C   UNL     1       0.989  -0.723   0.037  0.00  0.00    +0.000 A 
ATOM     12  C   UNL     1       0.231  -1.403  -0.914  0.00  0.00    +0.000 A 
ATOM     13  C   UNL     1      -1.163  -1.340  -0.871  0.00  0.00    +0.000 A 
ATOM     14  C   UNL     1      -1.820  -0.597   0.126  0.00  0.00    +0.000 A 
ATOM     15  C   UNL     1      -1.039   0.086   1.074  0.00  0.00    +0.000 A 
ATOM     16  C   UNL     1       0.355   0.021   1.029  0.00  0.00    +0.000 A 
ENDBRANCH   1  14
TORSDOF 1
