REMARK  Name = *****
REMARK  2 active torsions:
REMARK  status: ('A' for Active; 'I' for Inactive)
REMARK    1  A    between atoms: C_1  and  C_2
REMARK    2  A    between atoms: C_9  and  C_11
REMARK                            x       y       z     vdW  Elec       q    Type
REMARK                         _______ _______ _______ _____ _____    ______ ____
ROOT
ATOM      1  C   UNL     1       0.951  -0.192  -0.029  0.00  0.00    +0.000 C 
ATOM      2  C   UNL     1       2.452  -0.123   0.013  0.00  0.00    +0.000 A 
ATOM      3  C   UNL     1       3.209  -1.301  -0.102  0.00  0.00    +0.000 A 
ATOM      4  C   UNL     1       4.590  -1.144  -0.086  0.00  0.00    +0.000 A 
ATOM      5  C   UNL     1       5.247   0.068   0.023  0.00  0.00    +0.000 A 
ATOM      6  C   UNL     1       4.490   1.241   0.124  0.00  0.00    +0.000 A 
ATOM      7  C   UNL     1       3.090   1.128   0.111  0.00  0.00    +0.000 A 
ATOM      8  N   UNL     1       6.603  -0.135   0.012  0.00  0.00    +0.000 NA
ATOM      9  C   UNL     1       6.725  -1.445  -0.131  0.00  0.00    +0.000 A 
ATOM     10  O   UNL     1       5.534  -2.123  -0.169  0.00  0.00    +0.000 OA
ENDROOT
BRANCH   9  11
ATOM     11  C   UNL     1       7.948  -2.243  -0.144  0.00  0.00    +0.000 A 
ATOM     12  C   UNL     1       9.046  -1.760   0.596  0.00  0.00    +0.000 A 
ATOM     13  C   UNL     1      10.253  -2.460   0.652  0.00  0.00    +0.000 A 
ATOM     14  C   UNL     1      10.390  -3.658  -0.040  0.00  0.00    +0.000 A 
ATOM     15  C   UNL     1       9.323  -4.147  -0.793  0.00  0.00    +0.000 A 
ATOM     16  C   UNL     1       8.109  -3.446  -0.852  0.00  0.00    +0.000 A 
ATOM     17 CL   UNL     1       6.886  -4.119  -1.877  0.00  0.00    +0.000 Cl
ENDBRANCH   9  11
TORSDOF 1
