REMARK  Name = *****
REMARK  3 active torsions:
REMARK  status: ('A' for Active; 'I' for Inactive)
REMARK    1  A    between atoms: C_1  and  C_2
REMARK    2  A    between atoms: C_3  and  C_12
REMARK    3  A    between atoms: N_4  and  C_5
REMARK                            x       y       z     vdW  Elec       q    Type
REMARK                         _______ _______ _______ _____ _____    ______ ____
ROOT
ATOM      1  C   UNL     1       0.759   0.201  -0.657  0.00  0.00    +0.000 C 
ATOM      2  C   UNL     1       2.146  -0.339  -0.675  0.00  0.00    +0.000 C 
ATOM      3  C   UNL     1       3.291   0.334  -1.431  0.00  0.00    +0.000 C 
ATOM      4  N   UNL     1       2.660  -0.901  -1.912  0.00  0.00    +0.000 N 
ENDROOT
BRANCH   4   5
ATOM      5  C   UNL     1       3.383  -2.117  -1.874  0.00  0.00    +0.000 A 
ATOM      6  C   UNL     1       2.789  -3.276  -1.350  0.00  0.00    +0.000 A 
ATOM      7  C   UNL     1       3.480  -4.490  -1.343  0.00  0.00    +0.000 A 
ATOM      8  C   UNL     1       4.760  -4.551  -1.878  0.00  0.00    +0.000 A 
ATOM      9  C   UNL     1       5.359  -3.424  -2.428  0.00  0.00    +0.000 A 
ATOM     10  C   UNL     1       4.666  -2.211  -2.434  0.00  0.00    +0.000 A 
ATOM     11  F   UNL     1       5.423  -5.714  -1.874  0.00  0.00    +0.000 F 
ENDBRANCH   4   5
BRANCH   3  12
ATOM     12  C   UNL     1       3.075   1.602  -2.217  0.00  0.00    +0.000 A 
ATOM     13  C   UNL     1       2.973   2.843  -1.563  0.00  0.00    +0.000 A 
ATOM     14  C   UNL     1       2.788   4.031  -2.275  0.00  0.00    +0.000 A 
ATOM     15  C   UNL     1       2.705   4.003  -3.664  0.00  0.00    +0.000 A 
ATOM     16  C   UNL     1       2.809   2.790  -4.338  0.00  0.00    +0.000 A 
ATOM     17  C   UNL     1       2.995   1.606  -3.620  0.00  0.00    +0.000 A 
ENDBRANCH   3  12
TORSDOF 2
