REMARK  Name = *****
REMARK  3 active torsions:
REMARK  status: ('A' for Active; 'I' for Inactive)
REMARK    1  A    between atoms: C_3  and  C_7
REMARK    2  A    between atoms: C_8  and  C_9
REMARK    3  A    between atoms: C_12  and  C_15
REMARK                            x       y       z     vdW  Elec       q    Type
REMARK                         _______ _______ _______ _____ _____    ______ ____
ROOT
ATOM      1  C   UNL     1       3.619  -3.765  -0.152  0.00  0.00    +0.000 A 
ATOM      2  C   UNL     1       3.188  -4.835  -0.945  0.00  0.00    +0.000 A 
ATOM      3  C   UNL     1       3.925  -6.022  -1.001  0.00  0.00    +0.000 A 
ATOM      4  C   UNL     1       5.111  -6.161  -0.266  0.00  0.00    +0.000 A 
ATOM      5  C   UNL     1       5.554  -5.080   0.509  0.00  0.00    +0.000 A 
ATOM      6  C   UNL     1       4.816  -3.893   0.562  0.00  0.00    +0.000 A 
ENDROOT
BRANCH   4   7
ATOM      7  C   UNL     1       5.924  -7.431  -0.336  0.00  0.00    +0.000 C 
ATOM      8  F   UNL     1       5.210  -8.507  -0.770  0.00  0.00    +0.000 F 
ATOM      9  F   UNL     1       6.985  -7.321  -1.182  0.00  0.00    +0.000 F 
ATOM     10  F   UNL     1       6.443  -7.793   0.870  0.00  0.00    +0.000 F 
ENDBRANCH   4   7
BRANCH   1  12
ATOM     11  C   UNL     1       1.550  -2.404  -0.042  0.00  0.00    +0.000 C 
ATOM     12  C   UNL     1       2.889  -2.491  -0.093  0.00  0.00    +0.000 C 
BRANCH  11  15
ATOM     13  C   UNL     1       0.446   1.182  -0.546  0.00  0.00    +0.000 A 
ATOM     14  C   UNL     1       1.216   0.023  -0.635  0.00  0.00    +0.000 A 
ATOM     15  C   UNL     1       0.813  -1.135   0.035  0.00  0.00    +0.000 A 
ATOM     16  C   UNL     1      -0.381  -1.064   0.751  0.00  0.00    +0.000 A 
ATOM     17  N   UNL     1      -1.151   0.046   0.856  0.00  0.00    +0.000 NA
ATOM     18  C   UNL     1      -0.716   1.145   0.206  0.00  0.00    +0.000 A 
ENDBRANCH  11  15
ENDBRANCH   1  12
TORSDOF 3
