REMARK  Name = *****
REMARK  2 active torsions:
REMARK  status: ('A' for Active; 'I' for Inactive)
REMARK    1  A    between atoms: C_4  and  C_7
REMARK    2  A    between atoms: C_8  and  C_9
REMARK                            x       y       z     vdW  Elec       q    Type
REMARK                         _______ _______ _______ _____ _____    ______ ____
ROOT
ATOM      1  C   UNL     1      -2.798   0.436  -0.312  0.00  0.00    +0.000 C 
ATOM      2  C   UNL     1      -3.711  -0.541  -0.440  0.00  0.00    +0.000 C 
ENDROOT
BRANCH   2   3
ATOM      3  C   UNL     1      -5.150  -0.295  -0.616  0.00  0.00    +0.000 A 
ATOM      4  C   UNL     1      -5.638   0.742  -1.421  0.00  0.00    +0.000 A 
ATOM      5  C   UNL     1      -7.014   0.917  -1.581  0.00  0.00    +0.000 A 
ATOM      6  C   UNL     1      -7.917   0.061  -0.955  0.00  0.00    +0.000 A 
ATOM      7  C   UNL     1      -7.440  -0.984  -0.166  0.00  0.00    +0.000 A 
ATOM      8  C   UNL     1      -6.064  -1.164  -0.002  0.00  0.00    +0.000 A 
ATOM      9 BR   UNL     1      -7.659   2.326  -2.665  0.00  0.00    +0.000 Br
ENDBRANCH   2   3
BRANCH   1  13
ATOM     10  C   UNL     1       1.399  -0.175   0.247  0.00  0.00    +0.000 A 
ATOM     11  C   UNL     1       0.693  -1.012  -0.614  0.00  0.00    +0.000 A 
ATOM     12  C   UNL     1      -0.680  -0.828  -0.800  0.00  0.00    +0.000 A 
ATOM     13  C   UNL     1      -1.362   0.189  -0.119  0.00  0.00    +0.000 A 
ATOM     14  C   UNL     1      -0.637   1.035   0.731  0.00  0.00    +0.000 A 
ATOM     15  C   UNL     1       0.735   0.850   0.917  0.00  0.00    +0.000 A 
ENDBRANCH   1  13
TORSDOF 2
