REMARK  Name = *****
REMARK  1 active torsions:
REMARK  status: ('A' for Active; 'I' for Inactive)
REMARK    1  A    between atoms: C_4  and  C_7
REMARK                            x       y       z     vdW  Elec       q    Type
REMARK                         _______ _______ _______ _____ _____    ______ ____
ROOT
ATOM      1  C   UNL     1      -2.896   0.304  -0.798  0.00  0.00    +0.000 C 
ATOM      2  C   UNL     1      -3.919  -0.568  -0.784  0.00  0.00    +0.000 C 
ATOM      3  S   UNL     1      -3.782  -2.215  -0.211  0.00  0.00    +0.000 S 
ATOM      4  C   UNL     1      -5.484  -2.625  -0.520  0.00  0.00    +0.000 A 
ATOM      5  C   UNL     1      -6.022  -3.883  -0.258  0.00  0.00    +0.000 A 
ATOM      6  C   UNL     1      -7.371  -4.122  -0.530  0.00  0.00    +0.000 A 
ATOM      7  C   UNL     1      -8.173  -3.108  -1.062  0.00  0.00    +0.000 A 
ATOM      8  C   UNL     1      -7.630  -1.847  -1.324  0.00  0.00    +0.000 A 
ATOM      9  C   UNL     1      -6.285  -1.611  -1.051  0.00  0.00    +0.000 A 
ATOM     10  S   UNL     1      -5.495  -0.047  -1.348  0.00  0.00    +0.000 S 
ENDROOT
BRANCH   1  14
ATOM     11  C   UNL     1       1.119  -0.397   0.463  0.00  0.00    +0.000 A 
ATOM     12  C   UNL     1       0.650  -0.985  -0.710  0.00  0.00    +0.000 A 
ATOM     13  C   UNL     1      -0.664  -0.763  -1.127  0.00  0.00    +0.000 A 
ATOM     14  C   UNL     1      -1.517   0.045  -0.367  0.00  0.00    +0.000 A 
ATOM     15  C   UNL     1      -1.038   0.638   0.806  0.00  0.00    +0.000 A 
ATOM     16  C   UNL     1       0.276   0.415   1.221  0.00  0.00    +0.000 A 
ENDBRANCH   1  14
TORSDOF 1
