REMARK  Name = *****
REMARK  3 active torsions:
REMARK  status: ('A' for Active; 'I' for Inactive)
REMARK    1  A    between atoms: C_1  and  C_2
REMARK    2  A    between atoms: C_5  and  C_8
REMARK    3  A    between atoms: C_9  and  C_10
REMARK                            x       y       z     vdW  Elec       q    Type
REMARK                         _______ _______ _______ _____ _____    ______ ____
ROOT
ATOM      1  C   UNL     1       6.816   0.109  -0.750  0.00  0.00    +0.000 C 
ATOM      2  C   UNL     1       7.994   0.119  -0.982  0.00  0.00    +0.000 C 
ENDROOT
BRANCH   2   3
ATOM      3  C   UNL     1       9.441   0.130  -1.276  0.00  0.00    +0.000 C 
ATOM      4  C   UNL     1       9.780   1.219  -2.304  0.00  0.00    +0.000 C 
ATOM      5  C   UNL     1       9.295   0.878  -3.714  0.00  0.00    +0.000 C 
ATOM      6  C   UNL     1       9.779  -0.493  -4.151  0.00  0.00    +0.000 C 
ATOM      7  C   UNL     1       9.424  -1.591  -3.164  0.00  0.00    +0.000 C 
ATOM      8  C   UNL     1       9.910  -1.253  -1.753  0.00  0.00    +0.000 C 
ATOM      9  F   UNL     1       9.263  -0.792  -5.368  0.00  0.00    +0.000 F 
ATOM     10  F   UNL     1      11.129  -0.457  -4.304  0.00  0.00    +0.000 F 
ENDBRANCH   2   3
BRANCH   1  15
ATOM     11  C   UNL     1       1.175   0.048   0.291  0.00  0.00    +0.000 C 
ATOM     12  C   UNL     1       2.655   0.067   0.048  0.00  0.00    +0.000 A 
ATOM     13  C   UNL     1       3.328   1.280  -0.148  0.00  0.00    +0.000 A 
ATOM     14  C   UNL     1       4.701   1.294  -0.407  0.00  0.00    +0.000 A 
ATOM     15  C   UNL     1       5.411   0.095  -0.481  0.00  0.00    +0.000 A 
ATOM     16  C   UNL     1       4.746  -1.118  -0.301  0.00  0.00    +0.000 A 
ATOM     17  C   UNL     1       3.373  -1.132  -0.043  0.00  0.00    +0.000 A 
ENDBRANCH   1  15
TORSDOF 2
