REMARK  Name = *****
REMARK  3 active torsions:
REMARK  status: ('A' for Active; 'I' for Inactive)
REMARK    1  A    between atoms: C_5  and  O_7
REMARK    2  A    between atoms: O_7  and  C_8
REMARK    3  A    between atoms: C_8  and  C_10
REMARK                            x       y       z     vdW  Elec       q    Type
REMARK                         _______ _______ _______ _____ _____    ______ ____
ROOT
ATOM      1  C   UNL     1      -1.553  -2.612   0.078  0.00  0.00    +0.000 C 
ATOM      2  O   UNL     1      -2.135  -1.583  -0.231  0.00  0.00    +0.000 OA
ENDROOT
BRANCH   1   3
ATOM      3  C   UNL     1      -2.201  -3.938   0.004  0.00  0.00    +0.000 A 
ATOM      4  C   UNL     1      -1.478  -5.109  -0.228  0.00  0.00    +0.000 A 
ATOM      5  C   UNL     1      -2.136  -6.332  -0.294  0.00  0.00    +0.000 A 
ATOM      6  C   UNL     1      -3.515  -6.392  -0.138  0.00  0.00    +0.000 A 
ATOM      7  C   UNL     1      -4.254  -5.232   0.079  0.00  0.00    +0.000 A 
ATOM      8  C   UNL     1      -3.598  -4.001   0.146  0.00  0.00    +0.000 A 
ATOM      9  F   UNL     1      -4.150  -7.569  -0.203  0.00  0.00    +0.000 F 
ATOM     10  F   UNL     1      -1.438  -7.455  -0.518  0.00  0.00    +0.000 F 
ATOM     11  F   UNL     1      -0.151  -5.078  -0.421  0.00  0.00    +0.000 F 
ENDBRANCH   1   3
BRANCH   1  12
ATOM     12  O   UNL     1      -0.287  -2.742   0.606  0.00  0.00    +0.000 OA
BRANCH  12  17
ATOM     13  C   UNL     1       1.855   0.183   0.025  0.00  0.00    +0.000 A 
ATOM     14  C   UNL     1       1.657   0.905   1.205  0.00  0.00    +0.000 A 
ATOM     15  C   UNL     1       0.803   0.413   2.197  0.00  0.00    +0.000 A 
ATOM     16  C   UNL     1       0.141  -0.800   2.006  0.00  0.00    +0.000 A 
ATOM     17  C   UNL     1       0.329  -1.505   0.815  0.00  0.00    +0.000 A 
ATOM     18  C   UNL     1       1.196  -1.030  -0.171  0.00  0.00    +0.000 A 
ATOM     19 CL   UNL     1      -0.880  -1.402   3.259  0.00  0.00    +0.000 Cl
ENDBRANCH  12  17
ENDBRANCH   1  12
TORSDOF 3
