REMARK  Name = *****
REMARK  4 active torsions:
REMARK  status: ('A' for Active; 'I' for Inactive)
REMARK    1  A    between atoms: C_4  and  C_6
REMARK    2  A    between atoms: C_6  and  C_7
REMARK    3  A    between atoms: C_7  and  C_8
REMARK    4  A    between atoms: C_7  and  C_10
REMARK                            x       y       z     vdW  Elec       q    Type
REMARK                         _______ _______ _______ _____ _____    ______ ____
ROOT
ATOM      1  C   UNL     1      -2.608   0.934   1.948  0.00  0.00    +0.000 C 
ENDROOT
BRANCH   1   2
ATOM      2  C   UNL     1      -2.940   1.439   3.347  0.00  0.00    +0.000 A 
ATOM      3  C   UNL     1      -3.888   2.462   3.514  0.00  0.00    +0.000 A 
ATOM      4  C   UNL     1      -4.193   2.949   4.786  0.00  0.00    +0.000 A 
ATOM      5  C   UNL     1      -3.557   2.422   5.907  0.00  0.00    +0.000 A 
ATOM      6  C   UNL     1      -2.615   1.406   5.758  0.00  0.00    +0.000 A 
ATOM      7  C   UNL     1      -2.306   0.917   4.487  0.00  0.00    +0.000 A 
ENDBRANCH   1   2
BRANCH   1   8
ATOM      8  C   UNL     1      -2.874  -0.515   1.811  0.00  0.00    +0.000 C 
ATOM      9  N   UNL     1      -3.067  -1.653   1.683  0.00  0.00    +0.000 NA
ENDBRANCH   1   8
BRANCH   1  10
ATOM     10  C   UNL     1      -1.143   1.269   1.587  0.00  0.00    +0.000 C 
BRANCH  10  14
ATOM     11  C   UNL     1      -0.595   2.522  -1.903  0.00  0.00    +0.000 C 
ATOM     12  C   UNL     1       0.643   1.660  -1.707  0.00  0.00    +0.000 C 
ATOM     13  C   UNL     1       0.653   1.389  -0.213  0.00  0.00    +0.000 C 
ATOM     14  C   UNL     1      -0.820   1.113   0.094  0.00  0.00    +0.000 C 
ATOM     15  C   UNL     1      -1.582   2.087  -0.818  0.00  0.00    +0.000 C 
ENDBRANCH  10  14
ENDBRANCH   1  10
TORSDOF 4
