REMARK  Name = *****
REMARK  4 active torsions:
REMARK  status: ('A' for Active; 'I' for Inactive)
REMARK    1  A    between atoms: C_4  and  O_7
REMARK    2  A    between atoms: O_7  and  C_8
REMARK    3  A    between atoms: C_8  and  C_9
REMARK    4  A    between atoms: C_12  and  C_15
REMARK                            x       y       z     vdW  Elec       q    Type
REMARK                         _______ _______ _______ _____ _____    ______ ____
ROOT
ATOM      1  C   UNL     1      -3.849  -0.719  -0.195  0.00  0.00    +0.000 C 
ATOM      2  F   UNL     1      -3.870  -1.535   0.897  0.00  0.00    +0.000 F 
ATOM      3  F   UNL     1      -5.056  -0.088  -0.236  0.00  0.00    +0.000 F 
ENDROOT
BRANCH   1   4
ATOM      4  C   UNL     1      -3.555  -1.477  -1.473  0.00  0.00    +0.000 A 
ATOM      5  C   UNL     1      -2.767  -2.638  -1.450  0.00  0.00    +0.000 A 
ATOM      6  C   UNL     1      -2.483  -3.328  -2.631  0.00  0.00    +0.000 A 
ATOM      7  C   UNL     1      -2.970  -2.865  -3.863  0.00  0.00    +0.000 A 
ATOM      8  C   UNL     1      -3.760  -1.705  -3.886  0.00  0.00    +0.000 A 
ATOM      9  C   UNL     1      -4.044  -1.016  -2.704  0.00  0.00    +0.000 A 
BRANCH   7  10
ATOM     10  C   UNL     1      -2.684  -3.619  -5.139  0.00  0.00    +0.000 C 
ATOM     11  F   UNL     1      -1.550  -4.372  -5.076  0.00  0.00    +0.000 F 
ATOM     12  F   UNL     1      -3.686  -4.479  -5.467  0.00  0.00    +0.000 F 
ATOM     13  F   UNL     1      -2.525  -2.799  -6.216  0.00  0.00    +0.000 F 
ENDBRANCH   7  10
ENDBRANCH   1   4
BRANCH   1  14
ATOM     14  O   UNL     1      -2.821   0.258  -0.023  0.00  0.00    +0.000 OA
BRANCH  14  18
ATOM     15  C   UNL     1      -2.703   2.895   3.197  0.00  0.00    +0.000 A 
ATOM     16  C   UNL     1      -3.750   1.978   3.135  0.00  0.00    +0.000 A 
ATOM     17  C   UNL     1      -3.833   1.072   2.073  0.00  0.00    +0.000 A 
ATOM     18  C   UNL     1      -2.867   1.079   1.067  0.00  0.00    +0.000 A 
ATOM     19  C   UNL     1      -1.819   2.003   1.138  0.00  0.00    +0.000 A 
ATOM     20  C   UNL     1      -1.735   2.908   2.197  0.00  0.00    +0.000 A 
ENDBRANCH  14  18
ENDBRANCH   1  14
TORSDOF 4
