REMARK  Name = *****
REMARK  2 active torsions:
REMARK  status: ('A' for Active; 'I' for Inactive)
REMARK    1  A    between atoms: C_1  and  C_2
REMARK    2  A    between atoms: C_3  and  C_7
REMARK                            x       y       z     vdW  Elec       q    Type
REMARK                         _______ _______ _______ _____ _____    ______ ____
ROOT
ATOM      1  C   UNL     1       0.667  -2.428   0.138  0.00  0.00    +0.000 C 
ATOM      2  C   UNL     1       1.899  -2.964   0.007  0.00  0.00    +0.000 C 
ATOM      3  C   UNL     1       3.164  -2.151  -0.182  0.00  0.00    +0.000 C 
ATOM      4  C   UNL     1       3.919  -2.647  -1.408  0.00  0.00    +0.000 C 
ATOM      5  C   UNL     1       4.351  -4.095  -1.213  0.00  0.00    +0.000 C 
ATOM      6  C   UNL     1       3.260  -4.976  -0.651  0.00  0.00    +0.000 A 
ATOM      7  C   UNL     1       3.458  -6.369  -0.692  0.00  0.00    +0.000 A 
ATOM      8  C   UNL     1       2.523  -7.237  -0.135  0.00  0.00    +0.000 A 
ATOM      9  C   UNL     1       1.391  -6.724   0.484  0.00  0.00    +0.000 A 
ATOM     10  C   UNL     1       1.188  -5.342   0.537  0.00  0.00    +0.000 A 
ATOM     11  C   UNL     1       2.104  -4.443  -0.040  0.00  0.00    +0.000 A 
ENDROOT
BRANCH   1  14
ATOM     12  C   UNL     1       0.163  -0.569  -2.350  0.00  0.00    +0.000 C 
ATOM     13  C   UNL     1       0.191  -0.162  -0.912  0.00  0.00    +0.000 A 
ATOM     14  C   UNL     1       0.428  -1.025   0.151  0.00  0.00    +0.000 A 
ATOM     15  S   UNL     1       0.353  -0.206   1.662  0.00  0.00    +0.000 S 
ATOM     16  C   UNL     1       0.048   1.294   0.912  0.00  0.00    +0.000 A 
ATOM     17  C   UNL     1      -0.018   1.182  -0.457  0.00  0.00    +0.000 A 
ENDBRANCH   1  14
TORSDOF 1
