REMARK  Name = *****
REMARK  6 active torsions:
REMARK  status: ('A' for Active; 'I' for Inactive)
REMARK    1  A    between atoms: C_1  and  C_2
REMARK    2  A    between atoms: C_4  and  C_17
REMARK    3  A    between atoms: C_6  and  O_8
REMARK    4  A    between atoms: O_8  and  C_9
REMARK    5  A    between atoms: C_9  and  C_11
REMARK    6  A    between atoms: C_12  and  C_16
REMARK                            x       y       z     vdW  Elec       q    Type
REMARK                         _______ _______ _______ _____ _____    ______ ____
ROOT
ATOM      1  O   UNL     1       0.130  -3.215  -0.121  0.00  0.00    +0.000 OA
ENDROOT
BRANCH   1   7
ATOM      2  C   UNL     1       2.460   1.130   0.358  0.00  0.00    +0.000 C 
ATOM      3  C   UNL     1       1.220   0.321   0.114  0.00  0.00    +0.000 A 
ATOM      4  C   UNL     1      -0.026   0.953  -0.016  0.00  0.00    +0.000 A 
ATOM      5  C   UNL     1      -1.199   0.209  -0.217  0.00  0.00    +0.000 A 
ATOM      6  C   UNL     1      -1.120  -1.187  -0.258  0.00  0.00    +0.000 A 
ATOM      7  C   UNL     1       0.119  -1.812  -0.135  0.00  0.00    +0.000 A 
ATOM      8  C   UNL     1       1.284  -1.076   0.074  0.00  0.00    +0.000 A 
ATOM      9  C   UNL     1      -2.527   0.899  -0.316  0.00  0.00    +0.000 C 
ENDBRANCH   1   7
BRANCH   1  10
ATOM     10  C   UNL     1       0.919  -3.853  -1.076  0.00  0.00    +0.000 C 
ATOM     11  O   UNL     1       1.585  -3.282  -1.932  0.00  0.00    +0.000 OA
BRANCH  10  12
ATOM     12  C   UNL     1       0.826  -5.279  -0.899  0.00  0.00    +0.000 A 
ATOM     13  C   UNL     1       0.115  -6.092  -0.024  0.00  0.00    +0.000 A 
ATOM     14  N   UNL     1       0.327  -7.456  -0.204  0.00  0.00    +0.000 NA
ATOM     15  N   UNL     1       1.173  -7.703  -1.187  0.00  0.00    +0.000 NA
ATOM     16  S   UNL     1       1.736  -6.315  -1.922  0.00  0.00    +0.000 S 
ATOM     17  C   UNL     1      -0.824  -5.688   1.054  0.00  0.00    +0.000 C 
ENDBRANCH  10  12
ENDBRANCH   1  10
TORSDOF 3
