REMARK  Name = *****
REMARK  4 active torsions:
REMARK  status: ('A' for Active; 'I' for Inactive)
REMARK    1  A    between atoms: C_1  and  C_2
REMARK    2  A    between atoms: C_5  and  C_7
REMARK    3  A    between atoms: C_7  and  S_8
REMARK    4  A    between atoms: S_8  and  C_9
REMARK                            x       y       z     vdW  Elec       q    Type
REMARK                         _______ _______ _______ _____ _____    ______ ____
ROOT
ATOM      1  C   UNL     1      -2.604   1.511  -0.008  0.00  0.00    +0.000 C 
ENDROOT
BRANCH   1   6
ATOM      2  C   UNL     1       1.284  -0.632  -1.901  0.00  0.00    +0.000 C 
ATOM      3  C   UNL     1       0.307  -0.410  -0.818  0.00  0.00    +0.000 A 
ATOM      4  C   UNL     1       0.155  -0.935   0.447  0.00  0.00    +0.000 A 
ATOM      5  C   UNL     1      -0.985  -0.308   1.003  0.00  0.00    +0.000 A 
ATOM      6  C   UNL     1      -1.467   0.556   0.041  0.00  0.00    +0.000 A 
ATOM      7  O   UNL     1      -0.673   0.502  -1.068  0.00  0.00    +0.000 OA
ENDBRANCH   1   6
BRANCH   1   8
ATOM      8  S   UNL     1      -4.195   0.651   0.235  0.00  0.00    +0.000 S 
BRANCH   8   9
ATOM      9  C   UNL     1      -5.318   2.002  -0.070  0.00  0.00    +0.000 A 
ATOM     10  C   UNL     1      -6.265   1.882  -1.092  0.00  0.00    +0.000 A 
ATOM     11  C   UNL     1      -7.162   2.921  -1.349  0.00  0.00    +0.000 A 
ATOM     12  C   UNL     1      -7.124   4.082  -0.579  0.00  0.00    +0.000 A 
ATOM     13  C   UNL     1      -6.193   4.203   0.451  0.00  0.00    +0.000 A 
ATOM     14  C   UNL     1      -5.295   3.164   0.709  0.00  0.00    +0.000 A 
ENDBRANCH   8   9
ENDBRANCH   1   8
TORSDOF 3
