REMARK  Name = *****
REMARK  3 active torsions:
REMARK  status: ('A' for Active; 'I' for Inactive)
REMARK    1  A    between atoms: C_4  and  C_7
REMARK    2  A    between atoms: C_7  and  O_8
REMARK    3  A    between atoms: O_8  and  C_9
REMARK                            x       y       z     vdW  Elec       q    Type
REMARK                         _______ _______ _______ _____ _____    ______ ____
ROOT
ATOM      1  O   UNL     1      -3.580  -0.754  -0.117  0.00  0.00    +0.000 OA
ENDROOT
BRANCH   1   2
ATOM      2  C   UNL     1      -4.935  -0.704  -0.299  0.00  0.00    +0.000 A 
ATOM      3  C   UNL     1      -5.723   0.440  -0.442  0.00  0.00    +0.000 A 
ATOM      4  C   UNL     1      -7.106   0.351  -0.619  0.00  0.00    +0.000 A 
ATOM      5  C   UNL     1      -7.729  -0.895  -0.656  0.00  0.00    +0.000 A 
ATOM      6  C   UNL     1      -6.961  -2.048  -0.514  0.00  0.00    +0.000 A 
ATOM      7  C   UNL     1      -5.581  -1.943  -0.337  0.00  0.00    +0.000 A 
ATOM      8  F   UNL     1      -4.871  -3.075  -0.206  0.00  0.00    +0.000 F 
ATOM      9  F   UNL     1      -5.186   1.669  -0.411  0.00  0.00    +0.000 F 
ENDBRANCH   1   2
BRANCH   1  10
ATOM     10  C   UNL     1      -2.859   0.477  -0.173  0.00  0.00    +0.000 C 
BRANCH  10  14
ATOM     11  C   UNL     1       1.404  -0.171   0.132  0.00  0.00    +0.000 A 
ATOM     12  C   UNL     1       0.596  -1.153  -0.436  0.00  0.00    +0.000 A 
ATOM     13  C   UNL     1      -0.784  -0.956  -0.530  0.00  0.00    +0.000 A 
ATOM     14  C   UNL     1      -1.373   0.220  -0.043  0.00  0.00    +0.000 A 
ATOM     15  C   UNL     1      -0.544   1.207   0.513  0.00  0.00    +0.000 A 
ATOM     16  C   UNL     1       0.835   1.009   0.605  0.00  0.00    +0.000 A 
ENDBRANCH  10  14
ENDBRANCH   1  10
TORSDOF 3
