REMARK  Name = *****
REMARK  5 active torsions:
REMARK  status: ('A' for Active; 'I' for Inactive)
REMARK    1  A    between atoms: C_4  and  C_7
REMARK    2  A    between atoms: C_7  and  C_8
REMARK    3  A    between atoms: C_8  and  C_9
REMARK    4  A    between atoms: C_9  and  S_10
REMARK    5  A    between atoms: S_10  and  C_12
REMARK                            x       y       z     vdW  Elec       q    Type
REMARK                         _______ _______ _______ _____ _____    ______ ____
ROOT
ATOM      1  C   UNL     1      -4.975  -0.504  -0.907  0.00  0.00    +0.000 C 
ATOM      2 CL   UNL     1      -5.732  -1.910  -1.721  0.00  0.00    +0.000 Cl
ENDROOT
BRANCH   1   3
ATOM      3  S   UNL     1      -4.960   1.005  -1.951  0.00  0.00    +0.000 S 
ATOM      4  O   UNL     1      -4.306   0.680  -3.262  0.00  0.00    +0.000 OA
BRANCH   3   5
ATOM      5  C   UNL     1      -6.730   1.154  -2.271  0.00  0.00    +0.000 A 
ATOM      6  C   UNL     1      -7.592   1.568  -1.248  0.00  0.00    +0.000 A 
ATOM      7  C   UNL     1      -8.961   1.695  -1.492  0.00  0.00    +0.000 A 
ATOM      8  C   UNL     1      -9.474   1.419  -2.758  0.00  0.00    +0.000 A 
ATOM      9  C   UNL     1      -8.620   1.019  -3.784  0.00  0.00    +0.000 A 
ATOM     10  C   UNL     1      -7.251   0.891  -3.543  0.00  0.00    +0.000 A 
ENDBRANCH   3   5
ENDBRANCH   1   3
BRANCH   1  11
ATOM     11  C   UNL     1      -3.551  -0.888  -0.489  0.00  0.00    +0.000 C 
BRANCH  11  12
ATOM     12  C   UNL     1      -2.903   0.142   0.445  0.00  0.00    +0.000 C 
BRANCH  12  16
ATOM     13  C   UNL     1       1.013  -1.163   1.692  0.00  0.00    +0.000 A 
ATOM     14  C   UNL     1       0.840  -0.564   0.446  0.00  0.00    +0.000 A 
ATOM     15  C   UNL     1      -0.426  -0.137   0.046  0.00  0.00    +0.000 A 
ATOM     16  C   UNL     1      -1.532  -0.304   0.891  0.00  0.00    +0.000 A 
ATOM     17  C   UNL     1      -1.349  -0.912   2.140  0.00  0.00    +0.000 A 
ATOM     18  C   UNL     1      -0.081  -1.338   2.538  0.00  0.00    +0.000 A 
ENDBRANCH  12  16
ENDBRANCH  11  12
ENDBRANCH   1  11
TORSDOF 5
