REMARK  Name = *****
REMARK  3 active torsions:
REMARK  status: ('A' for Active; 'I' for Inactive)
REMARK    1  A    between atoms: C_4  and  C_7
REMARK    2  A    between atoms: C_8  and  C_9
REMARK    3  A    between atoms: C_12  and  C_15
REMARK                            x       y       z     vdW  Elec       q    Type
REMARK                         _______ _______ _______ _____ _____    ______ ____
ROOT
ATOM      1  C   UNL     1      -5.179  -0.148  -0.466  0.00  0.00    +0.000 A 
ATOM      2  N   UNL     1      -5.534   1.138  -0.697  0.00  0.00    +0.000 NA
ATOM      3  C   UNL     1      -6.850   1.410  -0.859  0.00  0.00    +0.000 A 
ATOM      4  C   UNL     1      -7.853   0.455  -0.795  0.00  0.00    +0.000 A 
ATOM      5  C   UNL     1      -7.466  -0.867  -0.565  0.00  0.00    +0.000 A 
ATOM      6  C   UNL     1      -6.116  -1.174  -0.395  0.00  0.00    +0.000 A 
ENDROOT
BRANCH   4   7
ATOM      7  C   UNL     1      -9.281   0.845  -1.010  0.00  0.00    +0.000 C 
ATOM      8  F   UNL     1      -9.555   2.122  -0.624  0.00  0.00    +0.000 F 
ATOM      9  F   UNL     1      -9.649   0.763  -2.318  0.00  0.00    +0.000 F 
ATOM     10  F   UNL     1     -10.157   0.056  -0.327  0.00  0.00    +0.000 F 
ENDBRANCH   4   7
BRANCH   1  12
ATOM     11  C   UNL     1      -2.784   0.492  -0.321  0.00  0.00    +0.000 C 
ATOM     12  C   UNL     1      -3.749  -0.442  -0.292  0.00  0.00    +0.000 C 
BRANCH  11  16
ATOM     13  C   UNL     1       1.391  -0.258   0.220  0.00  0.00    +0.000 A 
ATOM     14  C   UNL     1       0.628  -1.142  -0.541  0.00  0.00    +0.000 A 
ATOM     15  C   UNL     1      -0.739  -0.912  -0.720  0.00  0.00    +0.000 A 
ATOM     16  C   UNL     1      -1.357   0.199  -0.132  0.00  0.00    +0.000 A 
ATOM     17  C   UNL     1      -0.577   1.090   0.616  0.00  0.00    +0.000 A 
ATOM     18  C   UNL     1       0.789   0.859   0.797  0.00  0.00    +0.000 A 
ENDBRANCH  11  16
ENDBRANCH   1  12
TORSDOF 3
