REMARK  Name = *****
REMARK  5 active torsions:
REMARK  status: ('A' for Active; 'I' for Inactive)
REMARK    1  A    between atoms: C_1  and  O_2
REMARK    2  A    between atoms: O_2  and  N_3
REMARK    3  A    between atoms: N_3  and  C_4
REMARK    4  A    between atoms: N_3  and  C_12
REMARK    5  A    between atoms: C_4  and  C_5
REMARK                            x       y       z     vdW  Elec       q    Type
REMARK                         _______ _______ _______ _____ _____    ______ ____
ROOT
ATOM      1  N   UNL     1       2.770  -1.018  -0.966  0.00  0.00    +0.000 N 
ENDROOT
BRANCH   1   2
ATOM      2  C   UNL     1       4.176  -1.214  -1.042  0.00  0.00    +0.000 A 
ATOM      3  C   UNL     1       4.878  -1.871  -0.021  0.00  0.00    +0.000 A 
ATOM      4  C   UNL     1       6.264  -2.041  -0.090  0.00  0.00    +0.000 A 
ATOM      5  C   UNL     1       6.974  -1.541  -1.178  0.00  0.00    +0.000 A 
ATOM      6  C   UNL     1       6.301  -0.865  -2.191  0.00  0.00    +0.000 A 
ATOM      7  C   UNL     1       4.914  -0.698  -2.119  0.00  0.00    +0.000 A 
ENDBRANCH   1   2
BRANCH   1   9
ATOM      8  C   UNL     1       1.860  -0.114   0.918  0.00  0.00    +0.000 C 
ATOM      9  O   UNL     1       2.131  -1.346   0.250  0.00  0.00    +0.000 OA
ENDBRANCH   1   9
BRANCH   1  10
ATOM     10  C   UNL     1       2.049  -1.634  -2.099  0.00  0.00    +0.000 C 
BRANCH  10  11
ATOM     11  C   UNL     1       0.709  -0.957  -2.315  0.00  0.00    +0.000 A 
ATOM     12  C   UNL     1       0.649   0.326  -2.884  0.00  0.00    +0.000 A 
ATOM     13  C   UNL     1      -0.582   0.958  -3.076  0.00  0.00    +0.000 A 
ATOM     14  C   UNL     1      -1.757   0.313  -2.697  0.00  0.00    +0.000 A 
ATOM     15  C   UNL     1      -1.713  -0.957  -2.125  0.00  0.00    +0.000 A 
ATOM     16  C   UNL     1      -0.483  -1.589  -1.932  0.00  0.00    +0.000 A 
ATOM     17 CL   UNL     1      -3.273   1.093  -2.932  0.00  0.00    +0.000 Cl
ENDBRANCH  10  11
ENDBRANCH   1  10
TORSDOF 4
