REMARK  Name = *****
REMARK  3 active torsions:
REMARK  status: ('A' for Active; 'I' for Inactive)
REMARK    1  A    between atoms: C_1  and  C_2
REMARK    2  A    between atoms: C_4  and  N_8
REMARK    3  A    between atoms: C_9  and  C_11
REMARK                            x       y       z     vdW  Elec       q    Type
REMARK                         _______ _______ _______ _____ _____    ______ ____
ROOT
ATOM      1  N   UNL     1      -1.676   2.551   0.044  0.00  0.00    +0.000 N 
ATOM      2  C   UNL     1      -1.094   3.793  -0.108  0.00  0.00    +0.000 C 
ATOM      3  O   UNL     1       0.092   4.020  -0.324  0.00  0.00    +0.000 OA
ATOM      4  H   UNL     1      -2.648   2.543   0.198  0.00  0.00    +0.000 HD
ENDROOT
BRANCH   2   5
ATOM      5  C   UNL     1      -2.020   4.966  -0.062  0.00  0.00    +0.000 A 
ATOM      6  C   UNL     1      -3.164   5.067   0.746  0.00  0.00    +0.000 A 
ATOM      7  C   UNL     1      -3.960   6.220   0.700  0.00  0.00    +0.000 A 
ATOM      8  C   UNL     1      -3.615   7.276  -0.140  0.00  0.00    +0.000 A 
ATOM      9  C   UNL     1      -2.477   7.199  -0.936  0.00  0.00    +0.000 A 
ATOM     10  C   UNL     1      -1.683   6.051  -0.893  0.00  0.00    +0.000 A 
ATOM     11 CL   UNL     1      -4.598   8.686  -0.187  0.00  0.00    +0.000 Cl
ATOM     12 CL   UNL     1      -3.660   3.838   1.857  0.00  0.00    +0.000 Cl
ENDBRANCH   2   5
BRANCH   1  16
ATOM     13  C   UNL     1       2.344  -0.372  -0.510  0.00  0.00    +0.000 C 
ATOM     14  C   UNL     1       0.873  -0.190  -0.278  0.00  0.00    +0.000 A 
ATOM     15  C   UNL     1       0.318   1.100  -0.243  0.00  0.00    +0.000 A 
ATOM     16  C   UNL     1      -1.044   1.289   0.004  0.00  0.00    +0.000 A 
ATOM     17  C   UNL     1      -1.852   0.167   0.229  0.00  0.00    +0.000 A 
ATOM     18  C   UNL     1      -1.307  -1.118   0.212  0.00  0.00    +0.000 A 
ATOM     19  C   UNL     1       0.052  -1.296  -0.036  0.00  0.00    +0.000 A 
ENDBRANCH   1  16
TORSDOF 2
