REMARK  Name = *****
REMARK  4 active torsions:
REMARK  status: ('A' for Active; 'I' for Inactive)
REMARK    1  A    between atoms: C_1  and  C_2
REMARK    2  A    between atoms: C_4  and  C_16
REMARK    3  A    between atoms: C_6  and  C_8
REMARK    4  A    between atoms: C_9  and  C_10
REMARK                            x       y       z     vdW  Elec       q    Type
REMARK                         _______ _______ _______ _____ _____    ______ ____
ROOT
ATOM      1  C   UNL     1       0.927   0.044   0.038  0.00  0.00    +0.000 C 
ATOM      2  C   UNL     1       2.427   0.067   0.030  0.00  0.00    +0.000 A 
ATOM      3  C   UNL     1       3.166  -1.123   0.046  0.00  0.00    +0.000 A 
ATOM      4  C   UNL     1       4.568  -1.098   0.040  0.00  0.00    +0.000 A 
ATOM      5  C   UNL     1       5.229   0.137   0.018  0.00  0.00    +0.000 A 
ATOM      6  C   UNL     1       4.501   1.329   0.002  0.00  0.00    +0.000 A 
ATOM      7  C   UNL     1       3.105   1.293   0.008  0.00  0.00    +0.000 A 
ATOM      8  C   UNL     1       5.363  -2.370   0.057  0.00  0.00    +0.000 C 
ENDROOT
BRANCH   6   9
ATOM      9  C   UNL     1       5.184   2.586  -0.022  0.00  0.00    +0.000 C 
ATOM     10  C   UNL     1       5.757   3.641  -0.044  0.00  0.00    +0.000 C 
BRANCH  10  11
ATOM     11  C   UNL     1       6.438   4.899  -0.073  0.00  0.00    +0.000 A 
ATOM     12  C   UNL     1       5.734   6.082   0.164  0.00  0.00    +0.000 A 
ATOM     13  C   UNL     1       6.398   7.309   0.134  0.00  0.00    +0.000 A 
ATOM     14  C   UNL     1       7.767   7.355  -0.133  0.00  0.00    +0.000 A 
ATOM     15  C   UNL     1       8.472   6.175  -0.369  0.00  0.00    +0.000 A 
ATOM     16  C   UNL     1       7.808   4.947  -0.339  0.00  0.00    +0.000 A 
ENDBRANCH  10  11
ENDBRANCH   6   9
TORSDOF 2
