REMARK  Name = *****
REMARK  4 active torsions:
REMARK  status: ('A' for Active; 'I' for Inactive)
REMARK    1  A    between atoms: C_1  and  C_2
REMARK    2  A    between atoms: C_5  and  S_8
REMARK    3  A    between atoms: S_8  and  O_10
REMARK    4  A    between atoms: O_10  and  C_11
REMARK                            x       y       z     vdW  Elec       q    Type
REMARK                         _______ _______ _______ _____ _____    ______ ____
ROOT
ATOM      1  S   UNL     1      -3.381   2.821  -0.692  0.00  0.00    +0.000 S 
ATOM      2  O   UNL     1      -3.854   2.342  -2.032  0.00  0.00    +0.000 OA
ENDROOT
BRANCH   1   7
ATOM      3  C   UNL     1       1.806  -0.203   0.520  0.00  0.00    +0.000 C 
ATOM      4  C   UNL     1       0.545   0.550   0.214  0.00  0.00    +0.000 A 
ATOM      5  C   UNL     1      -0.071   1.329   1.201  0.00  0.00    +0.000 A 
ATOM      6  C   UNL     1      -1.261   2.008   0.926  0.00  0.00    +0.000 A 
ATOM      7  C   UNL     1      -1.860   1.906  -0.335  0.00  0.00    +0.000 A 
ATOM      8  C   UNL     1      -1.252   1.118  -1.317  0.00  0.00    +0.000 A 
ATOM      9  C   UNL     1      -0.062   0.439  -1.042  0.00  0.00    +0.000 A 
ENDBRANCH   1   7
BRANCH   1  10
ATOM     10  O   UNL     1      -4.222   2.045   0.445  0.00  0.00    +0.000 OA
BRANCH  10  11
ATOM     11  C   UNL     1      -5.614   1.908   0.203  0.00  0.00    +0.000 C 
ATOM     12  C   UNL     1      -6.371   1.821   1.546  0.00  0.00    +0.000 C 
ATOM     13  C   UNL     1      -7.117   0.478   1.439  0.00  0.00    +0.000 C 
ATOM     14  C   UNL     1      -6.098  -0.664   1.591  0.00  0.00    +0.000 C 
ATOM     15  C   UNL     1      -5.322  -0.612   0.267  0.00  0.00    +0.000 C 
ATOM     16  C   UNL     1      -5.983   0.566  -0.471  0.00  0.00    +0.000 C 
ATOM     17  C   UNL     1      -7.445   0.412  -0.053  0.00  0.00    +0.000 C 
ENDBRANCH  10  11
ENDBRANCH   1  10
TORSDOF 3
