REMARK  Name = *****
REMARK  2 active torsions:
REMARK  status: ('A' for Active; 'I' for Inactive)
REMARK    1  A    between atoms: N_4  and  C_5
REMARK    2  A    between atoms: C_5  and  C_6
REMARK                            x       y       z     vdW  Elec       q    Type
REMARK                         _______ _______ _______ _____ _____    ______ ____
ROOT
ATOM      1  C   UNL     1      -2.178  -3.757  -1.336  0.00  0.00    +0.000 A 
ATOM      2  C   UNL     1      -2.623  -4.132  -2.613  0.00  0.00    +0.000 A 
ATOM      3  C   UNL     1      -2.798  -5.479  -2.930  0.00  0.00    +0.000 A 
ATOM      4  C   UNL     1      -2.546  -6.468  -1.982  0.00  0.00    +0.000 A 
ATOM      5  C   UNL     1      -2.116  -6.107  -0.706  0.00  0.00    +0.000 A 
ATOM      6  C   UNL     1      -1.939  -4.759  -0.383  0.00  0.00    +0.000 A 
ATOM      7 CL   UNL     1      -3.339  -5.924  -4.503  0.00  0.00    +0.000 Cl
ENDROOT
BRANCH   1   8
ATOM      8  C   UNL     1      -2.024  -2.298  -0.963  0.00  0.00    +0.000 C 
BRANCH   8  12
ATOM      9  C   UNL     1      -1.819   1.979  -1.942  0.00  0.00    +0.000 C 
ATOM     10  S   UNL     1      -1.695   0.800  -0.564  0.00  0.00    +0.000 S 
ATOM     11  C   UNL     1      -1.364  -0.253  -1.866  0.00  0.00    +0.000 C 
ATOM     12  N   UNL     1      -1.473  -1.506  -2.062  0.00  0.00    +0.000 NA
ATOM     13  S   UNL     1      -0.733   0.921  -2.939  0.00  0.00    +0.000 S 
ENDBRANCH   8  12
ENDBRANCH   1   8
TORSDOF 2
