REMARK  Name = *****
REMARK  7 active torsions:
REMARK  status: ('A' for Active; 'I' for Inactive)
REMARK    1  A    between atoms: C_1  and  C_2
REMARK    2  A    between atoms: C_4  and  C_18
REMARK    3  A    between atoms: C_5  and  C_9
REMARK    4  A    between atoms: C_6  and  C_8
REMARK    5  A    between atoms: C_9  and  C_10
REMARK    6  A    between atoms: C_10  and  C_11
REMARK    7  A    between atoms: C_10  and  O_17
REMARK                            x       y       z     vdW  Elec       q    Type
REMARK                         _______ _______ _______ _____ _____    ______ ____
ROOT
ATOM      1  C   UNL     1      -1.857  -2.036  -0.187  0.00  0.00    +0.000 C 
ENDROOT
BRANCH   1   6
ATOM      2  C   UNL     1       2.739   1.586  -0.469  0.00  0.00    +0.000 C 
ATOM      3  C   UNL     1       1.564   0.657  -0.392  0.00  0.00    +0.000 A 
ATOM      4  C   UNL     1       1.521  -0.497  -1.174  0.00  0.00    +0.000 A 
ATOM      5  C   UNL     1       0.412  -1.361  -1.144  0.00  0.00    +0.000 A 
ATOM      6  C   UNL     1      -0.683  -1.072  -0.289  0.00  0.00    +0.000 A 
ATOM      7  C   UNL     1      -0.658   0.123   0.472  0.00  0.00    +0.000 A 
ATOM      8  C   UNL     1       0.465   0.968   0.408  0.00  0.00    +0.000 A 
ATOM      9  C   UNL     1      -1.805   0.549   1.352  0.00  0.00    +0.000 C 
ATOM     10  C   UNL     1       0.459  -2.584  -2.025  0.00  0.00    +0.000 C 
ENDBRANCH   1   6
BRANCH   1  11
ATOM     11  C   UNL     1      -1.569  -3.295   0.653  0.00  0.00    +0.000 C 
BRANCH  11  12
ATOM     12  C   UNL     1      -1.591  -3.057   2.150  0.00  0.00    +0.000 A 
ATOM     13  C   UNL     1      -2.801  -2.981   2.859  0.00  0.00    +0.000 A 
ATOM     14  C   UNL     1      -2.805  -2.751   4.235  0.00  0.00    +0.000 A 
ATOM     15  C   UNL     1      -1.602  -2.587   4.919  0.00  0.00    +0.000 A 
ATOM     16  C   UNL     1      -0.395  -2.649   4.226  0.00  0.00    +0.000 A 
ATOM     17  C   UNL     1      -0.388  -2.881   2.850  0.00  0.00    +0.000 A 
ENDBRANCH  11  12
BRANCH  11  18
ATOM     18  O   UNL     1      -2.533  -4.303   0.316  0.00  0.00    +0.000 OA
ATOM     19  H   UNL     1      -3.422  -3.990   0.542  0.00  0.00    +0.000 HD
ENDBRANCH  11  18
ENDBRANCH   1  11
TORSDOF 4
