REMARK  Name = *****
REMARK  3 active torsions:
REMARK  status: ('A' for Active; 'I' for Inactive)
REMARK    1  A    between atoms: C_8  and  C_9
REMARK    2  A    between atoms: C_9  and  C_10
REMARK    3  A    between atoms: C_10  and  C_11
REMARK                            x       y       z     vdW  Elec       q    Type
REMARK                         _______ _______ _______ _____ _____    ______ ____
ROOT
ATOM      1  C   UNL     1      -1.553   0.741  -0.427  0.00  0.00    +0.000 C 
ATOM      2  C   UNL     1      -0.325   1.483   0.112  0.00  0.00    +0.000 C 
ATOM      3  C   UNL     1       0.522   0.661   1.107  0.00  0.00    +0.000 C 
ATOM      4  C   UNL     1      -0.340  -0.404   1.762  0.00  0.00    +0.000 C 
ATOM      5  C   UNL     1      -0.482  -1.350   0.585  0.00  0.00    +0.000 C 
ATOM      6  C   UNL     1      -1.391  -0.780  -0.512  0.00  0.00    +0.000 C 
ATOM      7  O   UNL     1       0.850  -1.435   0.038  0.00  0.00    +0.000 OA
ATOM      8  C   UNL     1       1.544  -0.207   0.351  0.00  0.00    +0.000 C 
ENDROOT
BRANCH   8   9
ATOM      9  C   UNL     1       2.793  -0.577   1.160  0.00  0.00    +0.000 C 
BRANCH   9  10
ATOM     10  C   UNL     1       3.724   0.616   1.385  0.00  0.00    +0.000 C 
BRANCH  10  11
ATOM     11  C   UNL     1       4.972   0.215   2.132  0.00  0.00    +0.000 A 
ATOM     12  C   UNL     1       6.118  -0.188   1.436  0.00  0.00    +0.000 A 
ATOM     13  C   UNL     1       7.267  -0.575   2.128  0.00  0.00    +0.000 A 
ATOM     14  C   UNL     1       7.278  -0.567   3.522  0.00  0.00    +0.000 A 
ATOM     15  C   UNL     1       6.140  -0.175   4.224  0.00  0.00    +0.000 A 
ATOM     16  C   UNL     1       4.991   0.212   3.534  0.00  0.00    +0.000 A 
ENDBRANCH  10  11
ENDBRANCH   9  10
ENDBRANCH   8   9
TORSDOF 3
