REMARK  Name = *****
REMARK  1 active torsions:
REMARK  status: ('A' for Active; 'I' for Inactive)
REMARK    1  A    between atoms: C_2  and  C_12
REMARK                            x       y       z     vdW  Elec       q    Type
REMARK                         _______ _______ _______ _____ _____    ______ ____
ROOT
ATOM      1  C   UNL     1      -1.216   1.487  -0.006  0.00  0.00    +0.000 C 
ATOM      2  C   UNL     1      -2.461   0.625  -0.334  0.00  0.00    +0.000 C 
ATOM      3  N   UNL     1      -2.423  -0.650   0.422  0.00  0.00    +0.000 NA
ATOM      4  C   UNL     1      -1.248  -1.444   0.017  0.00  0.00    +0.000 C 
ATOM      5  C   UNL     1       0.058  -0.686   0.019  0.00  0.00    +0.000 A 
ATOM      6  C   UNL     1       1.272  -1.389   0.012  0.00  0.00    +0.000 A 
ATOM      7  C   UNL     1       2.488  -0.706  -0.031  0.00  0.00    +0.000 A 
ATOM      8  C   UNL     1       2.502   0.686  -0.074  0.00  0.00    +0.000 A 
ATOM      9  C   UNL     1       1.302   1.395  -0.079  0.00  0.00    +0.000 A 
ATOM     10  C   UNL     1       0.077   0.715  -0.047  0.00  0.00    +0.000 A 
ATOM     11 CL   UNL     1      -3.899  -1.627   0.227  0.00  0.00    +0.000 Cl
ENDROOT
BRANCH   2  12
ATOM     12  C   UNL     1      -3.709   1.466  -0.062  0.00  0.00    +0.000 A 
ATOM     13  C   UNL     1      -4.483   1.939  -1.134  0.00  0.00    +0.000 A 
ATOM     14  C   UNL     1      -5.618   2.718  -0.901  0.00  0.00    +0.000 A 
ATOM     15  C   UNL     1      -5.992   3.039   0.402  0.00  0.00    +0.000 A 
ATOM     16  C   UNL     1      -5.233   2.578   1.476  0.00  0.00    +0.000 A 
ATOM     17  C   UNL     1      -4.100   1.797   1.247  0.00  0.00    +0.000 A 
ENDBRANCH   2  12
TORSDOF 1
