REMARK  Name = *****
REMARK  5 active torsions:
REMARK  status: ('A' for Active; 'I' for Inactive)
REMARK    1  A    between atoms: C_1  and  O_2
REMARK    2  A    between atoms: O_2  and  C_3
REMARK    3  A    between atoms: C_3  and  C_5
REMARK    4  A    between atoms: C_8  and  C_10
REMARK    5  A    between atoms: C_11  and  C_12
REMARK                            x       y       z     vdW  Elec       q    Type
REMARK                         _______ _______ _______ _____ _____    ______ ____
ROOT
ATOM      1  C   UNL     1       4.532  -1.221  -0.505  0.00  0.00    +0.000 A 
ATOM      2  C   UNL     1       5.345  -1.602  -1.542  0.00  0.00    +0.000 A 
ATOM      3  O   UNL     1       6.636  -1.459  -1.148  0.00  0.00    +0.000 OA
ATOM      4  C   UNL     1       6.579  -0.983   0.151  0.00  0.00    +0.000 A 
ATOM      5  N   UNL     1       5.326  -0.831   0.560  0.00  0.00    +0.000 NA
ENDROOT
BRANCH   1   6
ATOM      6  C   UNL     1       3.078  -1.226  -0.520  0.00  0.00    +0.000 C 
ATOM      7  O   UNL     1       2.420  -1.580  -1.492  0.00  0.00    +0.000 OA
BRANCH   6   9
ATOM      8  C   UNL     1       1.114  -0.793   0.684  0.00  0.00    +0.000 C 
ATOM      9  O   UNL     1       2.540  -0.799   0.660  0.00  0.00    +0.000 OA
ENDBRANCH   6   9
ENDBRANCH   1   6
BRANCH   4  10
ATOM     10  C   UNL     1       7.763  -0.715   0.893  0.00  0.00    +0.000 C 
ATOM     11  C   UNL     1       7.706  -0.241   2.148  0.00  0.00    +0.000 C 
BRANCH  11  12
ATOM     12  C   UNL     1       8.885   0.044   2.976  0.00  0.00    +0.000 A 
ATOM     13  C   UNL     1      10.066   0.583   2.443  0.00  0.00    +0.000 A 
ATOM     14  C   UNL     1      11.154   0.865   3.273  0.00  0.00    +0.000 A 
ATOM     15  C   UNL     1      11.058   0.621   4.637  0.00  0.00    +0.000 A 
ATOM     16  C   UNL     1       9.893   0.104   5.189  0.00  0.00    +0.000 A 
ATOM     17  C   UNL     1       8.805  -0.179   4.359  0.00  0.00    +0.000 A 
ATOM     18  F   UNL     1      12.101   0.893   5.432  0.00  0.00    +0.000 F 
ENDBRANCH  11  12
ENDBRANCH   4  10
TORSDOF 4
