REMARK  Name = *****
REMARK  3 active torsions:
REMARK  status: ('A' for Active; 'I' for Inactive)
REMARK    1  A    between atoms: C_3  and  O_8
REMARK    2  A    between atoms: O_8  and  C_9
REMARK    3  A    between atoms: C_9  and  C_11
REMARK                            x       y       z     vdW  Elec       q    Type
REMARK                         _______ _______ _______ _____ _____    ______ ____
ROOT
ATOM      1  O   UNL     1      -1.749   2.584   0.378  0.00  0.00    +0.000 OA
ENDROOT
BRANCH   1   4
ATOM      2  C   UNL     1      -1.281  -0.973  -0.419  0.00  0.00    +0.000 A 
ATOM      3  C   UNL     1      -1.882   0.278  -0.272  0.00  0.00    +0.000 A 
ATOM      4  C   UNL     1      -1.119   1.352   0.189  0.00  0.00    +0.000 A 
ATOM      5  C   UNL     1       0.220   1.196   0.537  0.00  0.00    +0.000 A 
ATOM      6  C   UNL     1       0.801  -0.056   0.383  0.00  0.00    +0.000 A 
ATOM      7  C   UNL     1       0.066  -1.140  -0.092  0.00  0.00    +0.000 A 
ATOM      8  F   UNL     1       2.090  -0.228   0.707  0.00  0.00    +0.000 F 
ENDBRANCH   1   4
BRANCH   1   9
ATOM      9  C   UNL     1      -1.506   3.509  -0.638  0.00  0.00    +0.000 C 
ATOM     10  O   UNL     1      -0.817   3.295  -1.631  0.00  0.00    +0.000 OA
BRANCH   9  11
ATOM     11  C   UNL     1      -2.199   4.748  -0.325  0.00  0.00    +0.000 A 
ATOM     12  C   UNL     1      -2.999   5.065   0.760  0.00  0.00    +0.000 A 
ATOM     13  C   UNL     1      -3.500   6.399   0.702  0.00  0.00    +0.000 A 
ATOM     14  C   UNL     1      -3.068   7.061  -0.424  0.00  0.00    +0.000 A 
ATOM     15  S   UNL     1      -2.067   6.079  -1.401  0.00  0.00    +0.000 S 
ENDBRANCH   9  11
ENDBRANCH   1   9
TORSDOF 3
