REMARK  Name = *****
REMARK  3 active torsions:
REMARK  status: ('A' for Active; 'I' for Inactive)
REMARK    1  A    between atoms: C_4  and  C_7
REMARK    2  A    between atoms: C_7  and  O_8
REMARK    3  A    between atoms: O_8  and  C_9
REMARK                            x       y       z     vdW  Elec       q    Type
REMARK                         _______ _______ _______ _____ _____    ______ ____
ROOT
ATOM      1  C   UNL     1      -2.872   0.558  -0.411  0.00  0.00    +0.000 C 
ENDROOT
BRANCH   1   5
ATOM      2  C   UNL     1       1.327  -0.227   0.204  0.00  0.00    +0.000 A 
ATOM      3  C   UNL     1       0.418  -1.283   0.175  0.00  0.00    +0.000 A 
ATOM      4  C   UNL     1      -0.940  -1.033  -0.027  0.00  0.00    +0.000 A 
ATOM      5  C   UNL     1      -1.401   0.279  -0.209  0.00  0.00    +0.000 A 
ATOM      6  C   UNL     1      -0.480   1.335  -0.165  0.00  0.00    +0.000 A 
ATOM      7  C   UNL     1       0.878   1.082   0.037  0.00  0.00    +0.000 A 
ENDBRANCH   1   5
BRANCH   1   8
ATOM      8  O   UNL     1      -3.418   0.944   0.848  0.00  0.00    +0.000 OA
BRANCH   8   9
ATOM      9  C   UNL     1      -4.739   1.244   0.826  0.00  0.00    +0.000 A 
ATOM     10  N   UNL     1      -5.427   1.158  -0.311  0.00  0.00    +0.000 NA
ATOM     11  S   UNL     1      -7.002   1.591   0.009  0.00  0.00    +0.000 S 
ATOM     12  C   UNL     1      -6.759   1.891   1.661  0.00  0.00    +0.000 A 
ATOM     13  C   UNL     1      -5.447   1.659   1.989  0.00  0.00    +0.000 A 
ATOM     14  I   UNL     1      -8.208   2.506   2.955  0.00  0.00    +0.000 I 
ENDBRANCH   8   9
ENDBRANCH   1   8
TORSDOF 3
