REMARK  Name = *****
REMARK  6 active torsions:
REMARK  status: ('A' for Active; 'I' for Inactive)
REMARK    1  A    between atoms: C_1  and  O_2
REMARK    2  A    between atoms: O_2  and  C_3
REMARK    3  A    between atoms: C_6  and  C_9
REMARK    4  A    between atoms: C_9  and  P_10
REMARK    5  A    between atoms: P_10  and  C_11
REMARK    6  A    between atoms: P_10  and  C_12
REMARK                            x       y       z     vdW  Elec       q    Type
REMARK                         _______ _______ _______ _____ _____    ______ ____
ROOT
ATOM      1  C   UNL     1       5.219   2.352   4.311  0.00  0.00    +0.000 C 
ENDROOT
BRANCH   1   5
ATOM      2  C   UNL     1       2.835   0.693   1.096  0.00  0.00    +0.000 A 
ATOM      3  C   UNL     1       2.539   1.956   1.606  0.00  0.00    +0.000 A 
ATOM      4  C   UNL     1       3.306   2.492   2.647  0.00  0.00    +0.000 A 
ATOM      5  C   UNL     1       4.374   1.771   3.205  0.00  0.00    +0.000 A 
ATOM      6  C   UNL     1       4.672   0.508   2.674  0.00  0.00    +0.000 A 
ATOM      7  C   UNL     1       3.906  -0.024   1.633  0.00  0.00    +0.000 A 
BRANCH   2   9
ATOM      8  C   UNL     1       1.047   0.730  -0.469  0.00  0.00    +0.000 C 
ATOM      9  O   UNL     1       2.169   0.055   0.085  0.00  0.00    +0.000 OA
ENDBRANCH   2   9
ENDBRANCH   1   5
BRANCH   1  10
ATOM     10  P   UNL     1       4.208   2.191   5.835  0.00  0.00    +0.000 P 
ATOM     11  C   UNL     1       4.337   0.394   6.160  0.00  0.00    +0.000 C 
BRANCH  10  12
ATOM     12  C   UNL     1       5.319   2.961   7.060  0.00  0.00    +0.000 A 
ATOM     13  C   UNL     1       5.645   4.321   6.914  0.00  0.00    +0.000 A 
ATOM     14  C   UNL     1       6.486   4.966   7.825  0.00  0.00    +0.000 A 
ATOM     15  C   UNL     1       7.007   4.266   8.908  0.00  0.00    +0.000 A 
ATOM     16  C   UNL     1       6.682   2.924   9.081  0.00  0.00    +0.000 A 
ATOM     17  C   UNL     1       5.841   2.279   8.167  0.00  0.00    +0.000 A 
ENDBRANCH  10  12
ENDBRANCH   1  10
TORSDOF 4
