REMARK  Name = *****
REMARK  5 active torsions:
REMARK  status: ('A' for Active; 'I' for Inactive)
REMARK    1  A    between atoms: C_1  and  C_2
REMARK    2  A    between atoms: C_5  and  S_8
REMARK    3  A    between atoms: S_8  and  C_9
REMARK    4  A    between atoms: C_9  and  C_10
REMARK    5  A    between atoms: C_10  and  C_12
REMARK                            x       y       z     vdW  Elec       q    Type
REMARK                         _______ _______ _______ _____ _____    ______ ____
ROOT
ATOM      1  S   UNL     1      -3.702   0.033   0.446  0.00  0.00    +0.000 S 
ENDROOT
BRANCH   1   6
ATOM      2  C   UNL     1       2.351   0.070  -0.275  0.00  0.00    +0.000 C 
ATOM      3  C   UNL     1       0.858   0.081  -0.124  0.00  0.00    +0.000 A 
ATOM      4  C   UNL     1       0.207   1.199   0.409  0.00  0.00    +0.000 A 
ATOM      5  C   UNL     1      -1.179   1.195   0.584  0.00  0.00    +0.000 A 
ATOM      6  C   UNL     1      -1.933   0.073   0.230  0.00  0.00    +0.000 A 
ATOM      7  C   UNL     1      -1.282  -1.055  -0.274  0.00  0.00    +0.000 A 
ATOM      8  C   UNL     1       0.105  -1.052  -0.450  0.00  0.00    +0.000 A 
ENDBRANCH   1   6
BRANCH   1   9
ATOM      9  C   UNL     1      -4.173   1.413  -0.652  0.00  0.00    +0.000 C 
BRANCH   9  10
ATOM     10  C   UNL     1      -5.688   1.534  -0.832  0.00  0.00    +0.000 C 
ATOM     11  O   UNL     1      -6.476   0.745  -0.309  0.00  0.00    +0.000 OA
BRANCH  10  12
ATOM     12  C   UNL     1      -6.185   2.634  -1.663  0.00  0.00    +0.000 A 
ATOM     13  C   UNL     1      -7.512   2.914  -1.940  0.00  0.00    +0.000 A 
ATOM     14  C   UNL     1      -7.675   4.052  -2.780  0.00  0.00    +0.000 A 
ATOM     15  C   UNL     1      -6.465   4.610  -3.123  0.00  0.00    +0.000 A 
ATOM     16  S   UNL     1      -5.152   3.763  -2.434  0.00  0.00    +0.000 S 
ENDBRANCH  10  12
ENDBRANCH   9  10
ENDBRANCH   1   9
TORSDOF 4
