REMARK  Name = *****
REMARK  5 active torsions:
REMARK  status: ('A' for Active; 'I' for Inactive)
REMARK    1  A    between atoms: C_3  and  C_8
REMARK    2  A    between atoms: C_8  and  N_9
REMARK    3  A    between atoms: N_9  and  C_10
REMARK    4  A    between atoms: N_9  and  O_18
REMARK    5  A    between atoms: C_10  and  C_11
REMARK                            x       y       z     vdW  Elec       q    Type
REMARK                         _______ _______ _______ _____ _____    ______ ____
ROOT
ATOM      1  N   UNL     1       1.461   3.635   0.141  0.00  0.00    +0.000 NA
ENDROOT
BRANCH   1   2
ATOM      2  O   UNL     1       2.383   4.755   0.323  0.00  0.00    +0.000 OA
ATOM      3  H   UNL     1       2.845   4.933  -0.511  0.00  0.00    +0.000 HD
ENDBRANCH   1   2
BRANCH   1   4
ATOM      4  C   UNL     1       2.308   2.478  -0.189  0.00  0.00    +0.000 C 
BRANCH   4   7
ATOM      5  C   UNL     1       2.590   2.544  -3.998  0.00  0.00    +0.000 A 
ATOM      6  C   UNL     1       2.062   2.438  -2.710  0.00  0.00    +0.000 A 
ATOM      7  C   UNL     1       2.888   2.586  -1.584  0.00  0.00    +0.000 A 
ATOM      8  C   UNL     1       4.251   2.853  -1.773  0.00  0.00    +0.000 A 
ATOM      9  C   UNL     1       4.773   2.957  -3.063  0.00  0.00    +0.000 A 
ATOM     10  C   UNL     1       3.949   2.802  -4.175  0.00  0.00    +0.000 A 
ATOM     11 CL   UNL     1       6.449   3.283  -3.281  0.00  0.00    +0.000 Cl
ENDBRANCH   4   7
ENDBRANCH   1   4
BRANCH   1  12
ATOM     12  C   UNL     1       0.813   3.442   1.448  0.00  0.00    +0.000 C 
BRANCH  12  13
ATOM     13  C   UNL     1      -0.167   4.554   1.759  0.00  0.00    +0.000 A 
ATOM     14  C   UNL     1      -1.349   4.686   1.012  0.00  0.00    +0.000 A 
ATOM     15  C   UNL     1      -2.248   5.713   1.297  0.00  0.00    +0.000 A 
ATOM     16  C   UNL     1      -1.985   6.619   2.322  0.00  0.00    +0.000 A 
ATOM     17  C   UNL     1      -0.811   6.500   3.066  0.00  0.00    +0.000 A 
ATOM     18  C   UNL     1       0.094   5.475   2.784  0.00  0.00    +0.000 A 
ATOM     19 CL   UNL     1      -3.692   5.864   0.373  0.00  0.00    +0.000 Cl
ENDBRANCH  12  13
ENDBRANCH   1  12
TORSDOF 5
