REMARK  Name = *****
REMARK  3 active torsions:
REMARK  status: ('A' for Active; 'I' for Inactive)
REMARK    1  A    between atoms: C_4  and  C_6
REMARK    2  A    between atoms: C_6  and  N_8
REMARK    3  A    between atoms: N_8  and  C_9
REMARK                            x       y       z     vdW  Elec       q    Type
REMARK                         _______ _______ _______ _____ _____    ______ ____
ROOT
ATOM      1  N   UNL     1      -1.749   2.997   0.512  0.00  0.00    +0.000 N 
ATOM      2  H   UNL     1      -0.934   3.146  -0.020  0.00  0.00    +0.000 HD
ENDROOT
BRANCH   1   3
ATOM      3  C   UNL     1      -2.411   4.190   0.884  0.00  0.00    +0.000 A 
ATOM      4  C   UNL     1      -3.408   4.294   1.853  0.00  0.00    +0.000 A 
ATOM      5  C   UNL     1      -3.980   5.534   2.162  0.00  0.00    +0.000 A 
ATOM      6  C   UNL     1      -3.554   6.688   1.511  0.00  0.00    +0.000 A 
ATOM      7  C   UNL     1      -2.547   6.605   0.556  0.00  0.00    +0.000 A 
ATOM      8  C   UNL     1      -1.977   5.366   0.251  0.00  0.00    +0.000 A 
ENDBRANCH   1   3
BRANCH   1   9
ATOM      9  C   UNL     1      -2.023   1.653   0.749  0.00  0.00    +0.000 C 
ATOM     10  S   UNL     1      -3.440   0.976   1.339  0.00  0.00    +0.000 S 
BRANCH   9  14
ATOM     11  C   UNL     1       0.340  -1.088  -0.429  0.00  0.00    +0.000 C 
ATOM     12  C   UNL     1       1.308   0.030  -0.048  0.00  0.00    +0.000 C 
ATOM     13  C   UNL     1       0.409   1.058   0.553  0.00  0.00    +0.000 C 
ATOM     14  C   UNL     1      -0.881   0.803   0.289  0.00  0.00    +0.000 C 
ATOM     15  C   UNL     1      -1.044  -0.444  -0.523  0.00  0.00    +0.000 C 
ENDBRANCH   9  14
ENDBRANCH   1   9
TORSDOF 3
