REMARK  Name = *****
REMARK  2 active torsions:
REMARK  status: ('A' for Active; 'I' for Inactive)
REMARK    1  A    between atoms: C_2  and  C_11
REMARK    2  A    between atoms: C_4  and  C_5
REMARK                            x       y       z     vdW  Elec       q    Type
REMARK                         _______ _______ _______ _____ _____    ______ ____
ROOT
ATOM      1  C   UNL     1       0.402   0.940  -0.218  0.00  0.00    +0.000 C 
ATOM      2  C   UNL     1      -1.006   0.347   0.064  0.00  0.00    +0.000 C 
ATOM      3  C   UNL     1      -0.356  -1.041  -0.193  0.00  0.00    +0.000 C 
ATOM      4  C   UNL     1       1.012  -0.423   0.226  0.00  0.00    +0.000 C 
ENDROOT
BRANCH   4   5
ATOM      5  C   UNL     1       1.509  -0.589   1.737  0.00  0.00    +0.000 A 
ATOM      6  C   UNL     1       1.305  -1.777   2.469  0.00  0.00    +0.000 A 
ATOM      7  C   UNL     1       1.749  -1.927   3.786  0.00  0.00    +0.000 A 
ATOM      8  C   UNL     1       2.426  -0.889   4.415  0.00  0.00    +0.000 A 
ATOM      9  C   UNL     1       2.663   0.292   3.722  0.00  0.00    +0.000 A 
ATOM     10  C   UNL     1       2.214   0.433   2.405  0.00  0.00    +0.000 A 
ENDBRANCH   4   5
BRANCH   2  11
ATOM     11  C   UNL     1      -2.226   0.800  -0.842  0.00  0.00    +0.000 A 
ATOM     12  C   UNL     1      -3.242  -0.099  -1.226  0.00  0.00    +0.000 A 
ATOM     13  C   UNL     1      -4.325   0.297  -2.017  0.00  0.00    +0.000 A 
ATOM     14  C   UNL     1      -4.427   1.615  -2.446  0.00  0.00    +0.000 A 
ATOM     15  C   UNL     1      -3.451   2.534  -2.080  0.00  0.00    +0.000 A 
ATOM     16  C   UNL     1      -2.371   2.129  -1.288  0.00  0.00    +0.000 A 
ENDBRANCH   2  11
TORSDOF 2
