REMARK  Name = *****
REMARK  4 active torsions:
REMARK  status: ('A' for Active; 'I' for Inactive)
REMARK    1  A    between atoms: C_1  and  N_2
REMARK    2  A    between atoms: N_2  and  C_3
REMARK    3  A    between atoms: N_2  and  C_9
REMARK    4  A    between atoms: C_9  and  C_11
REMARK                            x       y       z     vdW  Elec       q    Type
REMARK                         _______ _______ _______ _____ _____    ______ ____
ROOT
ATOM      1  C   UNL     1       3.239   0.202   1.184  0.00  0.00    +0.000 C 
ATOM      2  C   UNL     1       3.577  -1.033   1.593  0.00  0.00    +0.000 C 
ENDROOT
BRANCH   1   3
ATOM      3  C   UNL     1       3.466   1.331   2.121  0.00  0.00    +0.000 A 
ATOM      4  C   UNL     1       4.227   2.436   1.703  0.00  0.00    +0.000 A 
ATOM      5  C   UNL     1       4.446   3.514   2.563  0.00  0.00    +0.000 A 
ATOM      6  C   UNL     1       3.903   3.490   3.841  0.00  0.00    +0.000 A 
ATOM      7  C   UNL     1       3.143   2.410   4.276  0.00  0.00    +0.000 A 
ATOM      8  C   UNL     1       2.923   1.330   3.417  0.00  0.00    +0.000 A 
ATOM      9  F   UNL     1       4.111   4.524   4.666  0.00  0.00    +0.000 F 
ENDBRANCH   1   3
BRANCH   1  11
ATOM     10  C   UNL     1       1.548   1.389  -0.211  0.00  0.00    +0.000 C 
ATOM     11  N   UNL     1       2.713   0.502  -0.078  0.00  0.00    +0.000 N 
BRANCH  11  12
ATOM     12  C   UNL     1       3.304   0.070  -1.301  0.00  0.00    +0.000 A 
ATOM     13  C   UNL     1       2.585   0.013  -2.509  0.00  0.00    +0.000 A 
ATOM     14  C   UNL     1       3.188  -0.395  -3.707  0.00  0.00    +0.000 A 
ATOM     15  C   UNL     1       4.529  -0.757  -3.728  0.00  0.00    +0.000 A 
ATOM     16  C   UNL     1       5.267  -0.714  -2.552  0.00  0.00    +0.000 A 
ATOM     17  C   UNL     1       4.660  -0.306  -1.359  0.00  0.00    +0.000 A 
ENDBRANCH  11  12
ENDBRANCH   1  11
TORSDOF 3
