REMARK  Name = *****
REMARK  5 active torsions:
REMARK  status: ('A' for Active; 'I' for Inactive)
REMARK    1  A    between atoms: C_1  and  O_2
REMARK    2  A    between atoms: O_2  and  C_3
REMARK    3  A    between atoms: C_3  and  C_11
REMARK    4  A    between atoms: N_4  and  C_5
REMARK    5  A    between atoms: C_12  and  C_17
REMARK                            x       y       z     vdW  Elec       q    Type
REMARK                         _______ _______ _______ _____ _____    ______ ____
ROOT
ATOM      1  C   UNL     1       3.014   0.813  -1.111  0.00  0.00    +0.000 C 
ATOM      2  N   UNL     1       2.331   1.126  -2.163  0.00  0.00    +0.000 NA
ENDROOT
BRANCH   2   3
ATOM      3  C   UNL     1       0.945   1.307  -2.117  0.00  0.00    +0.000 A 
ATOM      4  C   UNL     1       0.369   2.338  -1.368  0.00  0.00    +0.000 A 
ATOM      5  C   UNL     1      -1.015   2.523  -1.363  0.00  0.00    +0.000 A 
ATOM      6  C   UNL     1      -1.832   1.689  -2.125  0.00  0.00    +0.000 A 
ATOM      7  C   UNL     1      -1.264   0.677  -2.898  0.00  0.00    +0.000 A 
ATOM      8  C   UNL     1       0.121   0.494  -2.899  0.00  0.00    +0.000 A 
ENDBRANCH   2   3
BRANCH   1   9
ATOM      9  C   UNL     1       4.499   0.779  -1.070  0.00  0.00    +0.000 C 
ATOM     10  C   UNL     1       5.231   1.897  -1.266  0.00  0.00    +0.000 C 
ATOM     11  C   UNL     1       6.744   1.859  -1.228  0.00  0.00    +0.000 C 
ATOM     12  C   UNL     1       7.320   0.576  -0.627  0.00  0.00    +0.000 C 
ATOM     13  C   UNL     1       6.587  -0.650  -1.156  0.00  0.00    +0.000 C 
ATOM     14  C   UNL     1       5.099  -0.577  -0.816  0.00  0.00    +0.000 C 
BRANCH  10  15
ATOM     15  C   UNL     1       4.617   3.168  -1.493  0.00  0.00    +0.000 C 
ATOM     16  C   UNL     1       4.108   4.238  -1.688  0.00  0.00    +0.000 C 
ENDBRANCH  10  15
ENDBRANCH   1   9
BRANCH   1  18
ATOM     17  C   UNL     1       1.512  -0.500   0.210  0.00  0.00    +0.000 C 
ATOM     18  O   UNL     1       2.561   0.471   0.125  0.00  0.00    +0.000 OA
ENDBRANCH   1  18
TORSDOF 4
