REMARK  Name = *****
REMARK  3 active torsions:
REMARK  status: ('A' for Active; 'I' for Inactive)
REMARK    1  A    between atoms: C_1  and  C_2
REMARK    2  A    between atoms: C_5  and  C_7
REMARK    3  A    between atoms: C_8  and  C_9
REMARK                            x       y       z     vdW  Elec       q    Type
REMARK                         _______ _______ _______ _____ _____    ______ ____
ROOT
ATOM      1  C   UNL     1      -2.957   0.649   0.087  0.00  0.00    +0.000 C 
ATOM      2  C   UNL     1      -4.103  -0.047   0.005  0.00  0.00    +0.000 C 
ENDROOT
BRANCH   2   3
ATOM      3  C   UNL     1      -5.433   0.576   0.057  0.00  0.00    +0.000 A 
ATOM      4  C   UNL     1      -5.726   1.766  -0.624  0.00  0.00    +0.000 A 
ATOM      5  C   UNL     1      -7.012   2.313  -0.577  0.00  0.00    +0.000 A 
ATOM      6  C   UNL     1      -8.014   1.668   0.143  0.00  0.00    +0.000 A 
ATOM      7  C   UNL     1      -7.743   0.477   0.812  0.00  0.00    +0.000 A 
ATOM      8  C   UNL     1      -6.457  -0.070   0.764  0.00  0.00    +0.000 A 
ATOM      9 CL   UNL     1      -9.596   2.340   0.200  0.00  0.00    +0.000 Cl
ENDBRANCH   2   3
BRANCH   1  14
ATOM     10  C   UNL     1       2.269  -0.083   0.059  0.00  0.00    +0.000 C 
ATOM     11  C   UNL     1       0.797  -0.306   0.026  0.00  0.00    +0.000 A 
ATOM     12  C   UNL     1       0.112  -1.494  -0.097  0.00  0.00    +0.000 A 
ATOM     13  C   UNL     1      -1.301  -1.304  -0.091  0.00  0.00    +0.000 A 
ATOM     14  C   UNL     1      -1.674   0.025   0.038  0.00  0.00    +0.000 A 
ATOM     15  S   UNL     1      -0.268   1.022   0.149  0.00  0.00    +0.000 S 
ENDBRANCH   1  14
TORSDOF 2
