REMARK  Name = *****
REMARK  3 active torsions:
REMARK  status: ('A' for Active; 'I' for Inactive)
REMARK    1  A    between atoms: C_7  and  O_18
REMARK    2  A    between atoms: N_8  and  C_11
REMARK    3  A    between atoms: O_18  and  O_19
REMARK                            x       y       z     vdW  Elec       q    Type
REMARK                         _______ _______ _______ _____ _____    ______ ____
ROOT
ATOM      1  C   UNL     1      -2.289  -0.748   0.260  0.00  0.00    +0.000 C 
ATOM      2  C   UNL     1      -2.344   0.683  -0.280  0.00  0.00    +0.000 C 
ATOM      3  C   UNL     1      -1.139   1.510   0.185  0.00  0.00    +0.000 C 
ATOM      4  C   UNL     1       0.135   0.737   0.089  0.00  0.00    +0.000 C 
ATOM      5  C   UNL     1       0.196  -0.589  -0.081  0.00  0.00    +0.000 C 
ATOM      6  C   UNL     1      -1.005  -1.472  -0.166  0.00  0.00    +0.000 C 
ATOM      7  C   UNL     1       1.582  -1.151  -0.140  0.00  0.00    +0.000 C 
ATOM      8  N   UNL     1       2.481  -0.031   0.151  0.00  0.00    +0.000 N 
ATOM      9  S   UNL     1       1.748   1.480   0.086  0.00  0.00    +0.000 S 
ATOM     10  O   UNL     1       1.893   2.196   1.392  0.00  0.00    +0.000 OA
ENDROOT
BRANCH   8  11
ATOM     11  C   UNL     1       3.872  -0.202   0.011  0.00  0.00    +0.000 A 
ATOM     12  C   UNL     1       4.608   0.646  -0.849  0.00  0.00    +0.000 A 
ATOM     13  C   UNL     1       5.983   0.491  -1.050  0.00  0.00    +0.000 A 
ATOM     14  C   UNL     1       6.674  -0.514  -0.387  0.00  0.00    +0.000 A 
ATOM     15  C   UNL     1       5.990  -1.351   0.488  0.00  0.00    +0.000 A 
ATOM     16  C   UNL     1       4.610  -1.196   0.693  0.00  0.00    +0.000 A 
ATOM     17 CL   UNL     1       3.910  -2.226   1.897  0.00  0.00    +0.000 Cl
ENDBRANCH   8  11
BRANCH   7  18
ATOM     18  O   UNL     1       1.829  -1.791  -1.407  0.00  0.00    +0.000 OA
BRANCH  18  19
ATOM     19  O   UNL     1       1.769  -0.777  -2.464  0.00  0.00    +0.000 OA
ATOM     20  H   UNL     1       1.934  -1.195  -3.324  0.00  0.00    +0.000 HD
ENDBRANCH  18  19
ENDBRANCH   7  18
TORSDOF 3
