REMARK  Name = *****
REMARK  3 active torsions:
REMARK  status: ('A' for Active; 'I' for Inactive)
REMARK    1  A    between atoms: C_1  and  C_2
REMARK    2  A    between atoms: C_2  and  C_7
REMARK    3  A    between atoms: C_8  and  C_9
REMARK                            x       y       z     vdW  Elec       q    Type
REMARK                         _______ _______ _______ _____ _____    ______ ____
ROOT
ATOM      1  C   UNL     1       0.265   1.313   1.975  0.00  0.00    +0.000 C 
ATOM      2  C   UNL     1       0.527   2.550   2.434  0.00  0.00    +0.000 C 
ENDROOT
BRANCH   1   4
ATOM      3  C   UNL     1       0.285   1.991  -0.518  0.00  0.00    +0.000 C 
ATOM      4  C   UNL     1       0.100   0.892   0.533  0.00  0.00    +0.000 C 
ATOM      5  S   UNL     1      -1.593   0.201   0.340  0.00  0.00    +0.000 S 
ATOM      6  C   UNL     1      -1.112  -1.525   0.072  0.00  0.00    +0.000 C 
ATOM      7  C   UNL     1       0.201  -1.537  -0.681  0.00  0.00    +0.000 C 
ATOM      8  S   UNL     1       1.328  -0.433   0.201  0.00  0.00    +0.000 S 
ENDBRANCH   1   4
BRANCH   2   9
ATOM      9  C   UNL     1       0.670   2.867   3.861  0.00  0.00    +0.000 A 
ATOM     10  C   UNL     1       1.427   2.065   4.726  0.00  0.00    +0.000 A 
ATOM     11  C   UNL     1       1.569   2.411   6.072  0.00  0.00    +0.000 A 
ATOM     12  C   UNL     1       0.964   3.566   6.563  0.00  0.00    +0.000 A 
ATOM     13  C   UNL     1       0.220   4.378   5.709  0.00  0.00    +0.000 A 
ATOM     14  C   UNL     1       0.079   4.033   4.363  0.00  0.00    +0.000 A 
ENDBRANCH   2   9
TORSDOF 2
