REMARK  Name = *****
REMARK  2 active torsions:
REMARK  status: ('A' for Active; 'I' for Inactive)
REMARK    1  A    between atoms: C_7  and  S_8
REMARK    2  A    between atoms: S_8  and  C_9
REMARK                            x       y       z     vdW  Elec       q    Type
REMARK                         _______ _______ _______ _____ _____    ______ ____
ROOT
ATOM      1  C   UNL     1       1.001  -0.271   0.251  0.00  0.00    +0.000 C 
ATOM      2  C   UNL     1       2.323  -0.147   0.088  0.00  0.00    +0.000 C 
ATOM      3  C   UNL     1       3.137   1.085   0.055  0.00  0.00    +0.000 C 
ATOM      4  C   UNL     1       4.357   0.945  -0.820  0.00  0.00    +0.000 C 
ATOM      5  C   UNL     1       4.492   0.878   0.683  0.00  0.00    +0.000 C 
ATOM      6  C   UNL     1       4.587  -0.376  -0.142  0.00  0.00    +0.000 C 
ATOM      7  C   UNL     1       3.351  -1.248  -0.055  0.00  0.00    +0.000 C 
ENDROOT
BRANCH   7   8
ATOM      8  S   UNL     1       3.116  -2.187  -1.589  0.00  0.00    +0.000 S 
BRANCH   8   9
ATOM      9  C   UNL     1       4.423  -3.389  -1.427  0.00  0.00    +0.000 A 
ATOM     10  C   UNL     1       4.447  -4.304  -0.370  0.00  0.00    +0.000 A 
ATOM     11  C   UNL     1       5.480  -5.239  -0.271  0.00  0.00    +0.000 A 
ATOM     12  C   UNL     1       6.489  -5.269  -1.233  0.00  0.00    +0.000 A 
ATOM     13  C   UNL     1       6.462  -4.370  -2.298  0.00  0.00    +0.000 A 
ATOM     14  C   UNL     1       5.429  -3.435  -2.397  0.00  0.00    +0.000 A 
ENDBRANCH   8   9
ENDBRANCH   7   8
TORSDOF 2
