REMARK  Name = *****
REMARK  3 active torsions:
REMARK  status: ('A' for Active; 'I' for Inactive)
REMARK    1  A    between atoms: C_4  and  C_7
REMARK    2  A    between atoms: C_7  and  C_8
REMARK    3  A    between atoms: C_8  and  C_10
REMARK                            x       y       z     vdW  Elec       q    Type
REMARK                         _______ _______ _______ _____ _____    ______ ____
ROOT
ATOM      1  C   UNL     1      -2.808   0.573  -0.233  0.00  0.00    +0.000 C 
ATOM      2  I   UNL     1      -4.249  -1.041  -0.066  0.00  0.00    +0.000 I 
ENDROOT
BRANCH   1   6
ATOM      3  C   UNL     1       1.129  -1.031   0.601  0.00  0.00    +0.000 A 
ATOM      4  C   UNL     1       0.367  -0.463   1.618  0.00  0.00    +0.000 A 
ATOM      5  C   UNL     1      -0.896   0.062   1.336  0.00  0.00    +0.000 A 
ATOM      6  C   UNL     1      -1.416   0.029   0.030  0.00  0.00    +0.000 A 
ATOM      7  C   UNL     1      -0.637  -0.558  -0.981  0.00  0.00    +0.000 A 
ATOM      8  C   UNL     1       0.628  -1.078  -0.697  0.00  0.00    +0.000 A 
ENDBRANCH   1   6
BRANCH   1   9
ATOM      9  C   UNL     1      -2.991   1.239  -1.597  0.00  0.00    +0.000 C 
ATOM     10  O   UNL     1      -3.132   0.620  -2.653  0.00  0.00    +0.000 OA
BRANCH   9  11
ATOM     11  C   UNL     1      -3.008   2.729  -1.663  0.00  0.00    +0.000 A 
ATOM     12  C   UNL     1      -2.312   3.529  -0.749  0.00  0.00    +0.000 A 
ATOM     13  C   UNL     1      -2.375   4.921  -0.852  0.00  0.00    +0.000 A 
ATOM     14  C   UNL     1      -3.122   5.518  -1.868  0.00  0.00    +0.000 A 
ATOM     15  C   UNL     1      -3.802   4.726  -2.791  0.00  0.00    +0.000 A 
ATOM     16  C   UNL     1      -3.742   3.335  -2.692  0.00  0.00    +0.000 A 
ENDBRANCH   9  11
ENDBRANCH   1   9
TORSDOF 3
