REMARK  Name = *****
REMARK  3 active torsions:
REMARK  status: ('A' for Active; 'I' for Inactive)
REMARK    1  A    between atoms: C_4  and  C_6
REMARK    2  A    between atoms: C_6  and  S_8
REMARK    3  A    between atoms: S_8  and  C_9
REMARK                            x       y       z     vdW  Elec       q    Type
REMARK                         _______ _______ _______ _____ _____    ______ ____
ROOT
ATOM      1  S   UNL     1       1.234  -3.905  -0.110  0.00  0.00    +0.000 S 
ENDROOT
BRANCH   1   2
ATOM      2  C   UNL     1       0.424  -5.485   0.010  0.00  0.00    +0.000 A 
ATOM      3  C   UNL     1       0.119  -6.208  -1.149  0.00  0.00    +0.000 A 
ATOM      4  C   UNL     1      -0.500  -7.458  -1.057  0.00  0.00    +0.000 A 
ATOM      5  C   UNL     1      -0.807  -7.988   0.195  0.00  0.00    +0.000 A 
ATOM      6  C   UNL     1      -0.499  -7.280   1.355  0.00  0.00    +0.000 A 
ATOM      7  C   UNL     1       0.119  -6.030   1.262  0.00  0.00    +0.000 A 
ATOM      8 CL   UNL     1      -1.566  -9.528   0.309  0.00  0.00    +0.000 Cl
ENDBRANCH   1   2
BRANCH   1   9
ATOM      9  C   UNL     1      -0.145  -2.791  -0.094  0.00  0.00    +0.000 C 
ATOM     10  O   UNL     1      -1.296  -3.215  -0.095  0.00  0.00    +0.000 OA
BRANCH   9  14
ATOM     11  C   UNL     1       1.375   0.668  -0.066  0.00  0.00    +0.000 A 
ATOM     12  C   UNL     1       0.069   1.097  -0.062  0.00  0.00    +0.000 A 
ATOM     13  S   UNL     1      -1.032  -0.207  -0.072  0.00  0.00    +0.000 S 
ATOM     14  C   UNL     1       0.231  -1.381  -0.082  0.00  0.00    +0.000 A 
ATOM     15  C   UNL     1       1.469  -0.756  -0.077  0.00  0.00    +0.000 A 
ENDBRANCH   9  14
ENDBRANCH   1   9
TORSDOF 3
