REMARK  Name = *****
REMARK  3 active torsions:
REMARK  status: ('A' for Active; 'I' for Inactive)
REMARK    1  A    between atoms: C_4  and  C_7
REMARK    2  A    between atoms: C_8  and  C_9
REMARK    3  A    between atoms: C_10  and  C_16
REMARK                            x       y       z     vdW  Elec       q    Type
REMARK                         _______ _______ _______ _____ _____    ______ ____
ROOT
ATOM      1  C   UNL     1       5.537   0.276  -0.414  0.00  0.00    +0.000 A 
ATOM      2  C   UNL     1       6.320  -0.887  -0.430  0.00  0.00    +0.000 A 
ATOM      3  C   UNL     1       7.709  -0.771  -0.527  0.00  0.00    +0.000 A 
ATOM      4  C   UNL     1       8.329   0.474  -0.609  0.00  0.00    +0.000 A 
ATOM      5  C   UNL     1       7.555   1.630  -0.594  0.00  0.00    +0.000 A 
ATOM      6  C   UNL     1       6.165   1.530  -0.497  0.00  0.00    +0.000 A 
ATOM      7  F   UNL     1       8.486  -1.865  -0.545  0.00  0.00    +0.000 F 
ENDROOT
BRANCH   1   9
ATOM      8  C   UNL     1       2.910   0.234  -0.236  0.00  0.00    +0.000 C 
ATOM      9  C   UNL     1       4.108   0.260  -0.317  0.00  0.00    +0.000 C 
BRANCH   8  13
ATOM     10  C   UNL     1      -1.293  -0.044   0.047  0.00  0.00    +0.000 A 
ATOM     11  C   UNL     1      -0.682   1.209  -0.006  0.00  0.00    +0.000 A 
ATOM     12  C   UNL     1       0.708   1.305  -0.099  0.00  0.00    +0.000 A 
ATOM     13  C   UNL     1       1.486   0.147  -0.140  0.00  0.00    +0.000 A 
ATOM     14  C   UNL     1       0.873  -1.107  -0.087  0.00  0.00    +0.000 A 
ATOM     15  C   UNL     1      -0.516  -1.202   0.006  0.00  0.00    +0.000 A 
ENDBRANCH   8  13
ENDBRANCH   1   9
BRANCH   2  16
ATOM     16  C   UNL     1       5.778  -2.263  -0.349  0.00  0.00    +0.000 C 
ATOM     17  O   UNL     1       4.587  -2.534  -0.265  0.00  0.00    +0.000 OA
ENDBRANCH   2  16
TORSDOF 3
