REMARK  Name = *****
REMARK  3 active torsions:
REMARK  status: ('A' for Active; 'I' for Inactive)
REMARK    1  A    between atoms: C_5  and  C_7
REMARK    2  A    between atoms: C_7  and  O_8
REMARK    3  A    between atoms: O_8  and  C_9
REMARK                            x       y       z     vdW  Elec       q    Type
REMARK                         _______ _______ _______ _____ _____    ______ ____
ROOT
ATOM      1  C   UNL     1      -0.469  -2.506   0.122  0.00  0.00    +0.000 C 
ENDROOT
BRANCH   1   6
ATOM      2  C   UNL     1       0.814   0.865   1.344  0.00  0.00    +0.000 A 
ATOM      3  C   UNL     1       1.353   1.416   0.184  0.00  0.00    +0.000 A 
ATOM      4  C   UNL     1       1.305   0.699  -1.011  0.00  0.00    +0.000 A 
ATOM      5  C   UNL     1       0.721  -0.572  -1.049  0.00  0.00    +0.000 A 
ATOM      6  C   UNL     1       0.188  -1.146   0.115  0.00  0.00    +0.000 A 
ATOM      7  C   UNL     1       0.233  -0.403   1.310  0.00  0.00    +0.000 A 
ATOM      8 CL   UNL     1       0.685  -1.388  -2.571  0.00  0.00    +0.000 Cl
ENDBRANCH   1   6
BRANCH   1   9
ATOM      9  O   UNL     1      -1.806  -2.347  -0.351  0.00  0.00    +0.000 OA
BRANCH   9  10
ATOM     10  C   UNL     1      -2.502  -3.536  -0.415  0.00  0.00    +0.000 A 
ATOM     11  N   UNL     1      -1.939  -4.671   0.043  0.00  0.00    +0.000 NA
ATOM     12  C   UNL     1      -2.695  -5.783  -0.052  0.00  0.00    +0.000 A 
ATOM     13  C   UNL     1      -3.979  -5.825  -0.570  0.00  0.00    +0.000 A 
ATOM     14  C   UNL     1      -4.532  -4.635  -1.028  0.00  0.00    +0.000 A 
ATOM     15  C   UNL     1      -3.781  -3.466  -0.949  0.00  0.00    +0.000 A 
ATOM     16 CL   UNL     1      -1.941  -7.207   0.537  0.00  0.00    +0.000 Cl
ENDBRANCH   9  10
ENDBRANCH   1   9
TORSDOF 3
