REMARK  Name = *****
REMARK  2 active torsions:
REMARK  status: ('A' for Active; 'I' for Inactive)
REMARK    1  A    between atoms: C_3  and  O_7
REMARK    2  A    between atoms: O_7  and  C_8
REMARK                            x       y       z     vdW  Elec       q    Type
REMARK                         _______ _______ _______ _____ _____    ______ ____
ROOT
ATOM      1  C   UNL     1      -1.818   2.050  -2.224  0.00  0.00    +0.000 C 
ATOM      2  C   UNL     1      -0.694   3.107  -2.165  0.00  0.00    +0.000 C 
ATOM      3  C   UNL     1      -1.435   4.334  -1.739  0.00  0.00    +0.000 A 
ATOM      4  C   UNL     1      -1.001   5.648  -1.782  0.00  0.00    +0.000 A 
ATOM      5  C   UNL     1      -1.851   6.644  -1.295  0.00  0.00    +0.000 A 
ATOM      6  C   UNL     1      -3.108   6.313  -0.765  0.00  0.00    +0.000 A 
ATOM      7  C   UNL     1      -3.532   4.984  -0.715  0.00  0.00    +0.000 A 
ATOM      8  C   UNL     1      -2.686   4.006  -1.211  0.00  0.00    +0.000 A 
ATOM      9  C   UNL     1      -2.906   2.527  -1.234  0.00  0.00    +0.000 C 
ENDROOT
BRANCH   1  10
ATOM     10  O   UNL     1      -1.283   0.778  -1.859  0.00  0.00    +0.000 OA
BRANCH  10  13
ATOM     11  C   UNL     1      -0.348  -1.992  -1.446  0.00  0.00    +0.000 C 
ATOM     12  C   UNL     1      -1.769  -1.475  -1.207  0.00  0.00    +0.000 C 
ATOM     13  C   UNL     1      -2.136  -0.336  -2.163  0.00  0.00    +0.000 C 
ATOM     14  C   UNL     1      -1.975  -0.783  -3.631  0.00  0.00    +0.000 C 
ATOM     15  C   UNL     1      -0.773  -1.652  -3.883  0.00  0.00    +0.000 C 
ATOM     16  C   UNL     1      -0.033  -2.184  -2.900  0.00  0.00    +0.000 C 
ENDBRANCH  10  13
ENDBRANCH   1  10
TORSDOF 2
