REMARK  Name = *****
REMARK  3 active torsions:
REMARK  status: ('A' for Active; 'I' for Inactive)
REMARK    1  A    between atoms: C_4  and  C_7
REMARK    2  A    between atoms: C_8  and  C_9
REMARK    3  A    between atoms: C_9  and  C_11
REMARK                            x       y       z     vdW  Elec       q    Type
REMARK                         _______ _______ _______ _____ _____    ______ ____
ROOT
ATOM      1  C   UNL     1      -2.815   0.555  -0.202  0.00  0.00    +0.000 C 
ATOM      2  C   UNL     1      -3.354   1.781  -0.173  0.00  0.00    +0.000 C 
ATOM      3  F   UNL     1      -3.618  -0.533  -0.245  0.00  0.00    +0.000 F 
ENDROOT
BRANCH   1   7
ATOM      4  C   UNL     1       1.370  -0.327   0.105  0.00  0.00    +0.000 A 
ATOM      5  C   UNL     1       0.415  -1.223   0.580  0.00  0.00    +0.000 A 
ATOM      6  C   UNL     1      -0.944  -0.919   0.471  0.00  0.00    +0.000 A 
ATOM      7  C   UNL     1      -1.369   0.288  -0.103  0.00  0.00    +0.000 A 
ATOM      8  C   UNL     1      -0.395   1.173  -0.592  0.00  0.00    +0.000 A 
ATOM      9  C   UNL     1       0.965   0.868  -0.484  0.00  0.00    +0.000 A 
ENDBRANCH   1   7
BRANCH   2  10
ATOM     10  C   UNL     1      -4.822   1.981  -0.266  0.00  0.00    +0.000 C 
ATOM     11  O   UNL     1      -5.566   1.169  -0.804  0.00  0.00    +0.000 OA
BRANCH  10  12
ATOM     12  C   UNL     1      -5.373   3.264   0.251  0.00  0.00    +0.000 A 
ATOM     13  C   UNL     1      -6.553   3.756  -0.323  0.00  0.00    +0.000 A 
ATOM     14  C   UNL     1      -7.110   4.953   0.130  0.00  0.00    +0.000 A 
ATOM     15  C   UNL     1      -6.498   5.658   1.166  0.00  0.00    +0.000 A 
ATOM     16  C   UNL     1      -5.334   5.164   1.755  0.00  0.00    +0.000 A 
ATOM     17  C   UNL     1      -4.772   3.967   1.303  0.00  0.00    +0.000 A 
ENDBRANCH  10  12
ENDBRANCH   2  10
TORSDOF 3
