REMARK  Name = *****
REMARK  3 active torsions:
REMARK  status: ('A' for Active; 'I' for Inactive)
REMARK    1  A    between atoms: C_1  and  C_2
REMARK    2  A    between atoms: C_5  and  C_8
REMARK    3  A    between atoms: C_9  and  C_11
REMARK                            x       y       z     vdW  Elec       q    Type
REMARK                         _______ _______ _______ _____ _____    ______ ____
ROOT
ATOM      1  C   UNL     1      -3.233   0.210  -0.194  0.00  0.00    +0.000 C 
ATOM      2  C   UNL     1      -3.882   0.456  -1.541  0.00  0.00    +0.000 C 
ATOM      3  O   UNL     1      -3.851   1.468  -0.532  0.00  0.00    +0.000 OA
ENDROOT
BRANCH   1   8
ATOM      4  C   UNL     1       2.592  -0.018   0.204  0.00  0.00    +0.000 C 
ATOM      5  C   UNL     1       1.098   0.053   0.104  0.00  0.00    +0.000 A 
ATOM      6  C   UNL     1       0.392   1.145   0.615  0.00  0.00    +0.000 A 
ATOM      7  C   UNL     1      -1.002   1.195   0.515  0.00  0.00    +0.000 A 
ATOM      8  C   UNL     1      -1.732   0.164  -0.096  0.00  0.00    +0.000 A 
ATOM      9  C   UNL     1      -1.007  -0.929  -0.598  0.00  0.00    +0.000 A 
ATOM     10  C   UNL     1       0.387  -0.986  -0.502  0.00  0.00    +0.000 A 
ENDBRANCH   1   8
BRANCH   2  11
ATOM     11  C   UNL     1      -5.250  -0.085  -1.846  0.00  0.00    +0.000 C 
ATOM     12  C   UNL     1      -5.143  -1.514  -2.398  0.00  0.00    +0.000 C 
ATOM     13  C   UNL     1      -6.509  -2.074  -2.788  0.00  0.00    +0.000 C 
ATOM     14  C   UNL     1      -7.233  -1.157  -3.769  0.00  0.00    +0.000 C 
ATOM     15  C   UNL     1      -7.345   0.266  -3.229  0.00  0.00    +0.000 C 
ATOM     16  C   UNL     1      -5.981   0.829  -2.840  0.00  0.00    +0.000 C 
ENDBRANCH   2  11
TORSDOF 2
