REMARK  Name = *****
REMARK  5 active torsions:
REMARK  status: ('A' for Active; 'I' for Inactive)
REMARK    1  A    between atoms: C_1  and  C_2
REMARK    2  A    between atoms: C_2  and  S_4
REMARK    3  A    between atoms: S_4  and  C_5
REMARK    4  A    between atoms: C_8  and  C_11
REMARK    5  A    between atoms: C_12  and  C_13
REMARK                            x       y       z     vdW  Elec       q    Type
REMARK                         _______ _______ _______ _____ _____    ______ ____
ROOT
ATOM      1  C   UNL     1       5.185  -1.035   0.585  0.00  0.00    +0.000 A 
ATOM      2  C   UNL     1       5.616   0.283   0.416  0.00  0.00    +0.000 A 
ATOM      3  C   UNL     1       6.981   0.576   0.331  0.00  0.00    +0.000 A 
ATOM      4  C   UNL     1       7.937  -0.442   0.433  0.00  0.00    +0.000 A 
ATOM      5  C   UNL     1       7.499  -1.762   0.597  0.00  0.00    +0.000 A 
ATOM      6  C   UNL     1       6.134  -2.056   0.681  0.00  0.00    +0.000 A 
ENDROOT
BRANCH   4   7
ATOM      7  C   UNL     1       9.379  -0.181   0.313  0.00  0.00    +0.000 C 
ATOM      8  C   UNL     1       9.989   0.902   0.821  0.00  0.00    +0.000 C 
BRANCH   8   9
ATOM      9  C   UNL     1      11.433   1.154   0.711  0.00  0.00    +0.000 A 
ATOM     10  C   UNL     1      12.157   0.859  -0.452  0.00  0.00    +0.000 A 
ATOM     11  C   UNL     1      13.523   1.143  -0.530  0.00  0.00    +0.000 A 
ATOM     12  C   UNL     1      14.177   1.735   0.549  0.00  0.00    +0.000 A 
ATOM     13  C   UNL     1      13.464   2.048   1.704  0.00  0.00    +0.000 A 
ATOM     14  C   UNL     1      12.098   1.765   1.782  0.00  0.00    +0.000 A 
ENDBRANCH   8   9
ENDBRANCH   4   7
BRANCH   1  15
ATOM     15  S   UNL     1       3.453  -1.417   0.725  0.00  0.00    +0.000 S 
BRANCH  15  17
ATOM     16  C   UNL     1       1.472  -1.660  -1.147  0.00  0.00    +0.000 C 
ATOM     17  C   UNL     1       2.925  -1.331  -0.956  0.00  0.00    +0.000 C 
ATOM     18  O   UNL     1       3.666  -1.026  -1.883  0.00  0.00    +0.000 OA
ENDBRANCH  15  17
ENDBRANCH   1  15
TORSDOF 4
