REMARK  Name = *****
REMARK  7 active torsions:
REMARK  status: ('A' for Active; 'I' for Inactive)
REMARK    1  A    between atoms: C_1  and  C_2
REMARK    2  A    between atoms: C_5  and  S_8
REMARK    3  A    between atoms: S_8  and  C_9
REMARK    4  A    between atoms: C_9  and  C_10
REMARK    5  A    between atoms: C_10  and  C_18
REMARK    6  A    between atoms: C_12  and  O_16
REMARK    7  A    between atoms: O_16  and  C_17
REMARK                            x       y       z     vdW  Elec       q    Type
REMARK                         _______ _______ _______ _____ _____    ______ ____
ROOT
ATOM      1  C   UNL     1      -4.064   1.469   0.484  0.00  0.00    +0.000 C 
ENDROOT
BRANCH   1   2
ATOM      2  C   UNL     1      -5.544   1.436  -0.005  0.00  0.00    +0.000 C 
ATOM      3  C   UNL     1      -5.735   0.286  -1.037  0.00  0.00    +0.000 C 
ATOM      4  C   UNL     1      -6.955   0.447  -1.956  0.00  0.00    +0.000 C 
ATOM      5  C   UNL     1      -6.906   1.798  -2.689  0.00  0.00    +0.000 C 
ATOM      6  C   UNL     1      -6.436   2.942  -1.837  0.00  0.00    +0.000 C 
ATOM      7  C   UNL     1      -5.848   2.787  -0.643  0.00  0.00    +0.000 C 
ATOM      8  C   UNL     1      -6.495   1.272   1.199  0.00  0.00    +0.000 C 
BRANCH   4   9
ATOM      9  O   UNL     1      -8.198   0.363  -1.246  0.00  0.00    +0.000 OA
ATOM     10  C   UNL     1      -8.563  -0.962  -0.887  0.00  0.00    +0.000 C 
ENDBRANCH   4   9
ENDBRANCH   1   2
BRANCH   1  11
ATOM     11  S   UNL     1      -3.478  -0.066   1.304  0.00  0.00    +0.000 S 
BRANCH  11  16
ATOM     12  C   UNL     1       2.482   1.100   1.847  0.00  0.00    +0.000 C 
ATOM     13  C   UNL     1       1.013   0.839   1.692  0.00  0.00    +0.000 A 
ATOM     14  C   UNL     1       0.074   1.696   2.277  0.00  0.00    +0.000 A 
ATOM     15  C   UNL     1      -1.295   1.433   2.161  0.00  0.00    +0.000 A 
ATOM     16  C   UNL     1      -1.742   0.310   1.461  0.00  0.00    +0.000 A 
ATOM     17  C   UNL     1      -0.805  -0.562   0.902  0.00  0.00    +0.000 A 
ATOM     18  C   UNL     1       0.563  -0.301   1.016  0.00  0.00    +0.000 A 
ENDBRANCH  11  16
ENDBRANCH   1  11
TORSDOF 4
