REMARK  Name = *****
REMARK  2 active torsions:
REMARK  status: ('A' for Active; 'I' for Inactive)
REMARK    1  A    between atoms: C_5  and  C_7
REMARK    2  A    between atoms: N_8  and  C_9
REMARK                            x       y       z     vdW  Elec       q    Type
REMARK                         _______ _______ _______ _____ _____    ______ ____
ROOT
ATOM      1  C   UNL     1       1.083  -2.384   0.145  0.00  0.00    +0.000 C 
ATOM      2  N   UNL     1       2.291  -2.469  -0.319  0.00  0.00    +0.000 NA
ENDROOT
BRANCH   1   7
ATOM      3  C   UNL     1       0.110   1.202  -0.531  0.00  0.00    +0.000 A 
ATOM      4  C   UNL     1      -1.192   1.219  -0.026  0.00  0.00    +0.000 A 
ATOM      5  C   UNL     1      -1.741   0.063   0.530  0.00  0.00    +0.000 A 
ATOM      6  C   UNL     1      -0.984  -1.106   0.578  0.00  0.00    +0.000 A 
ATOM      7  C   UNL     1       0.315  -1.130   0.076  0.00  0.00    +0.000 A 
ATOM      8  C   UNL     1       0.867   0.028  -0.482  0.00  0.00    +0.000 A 
ATOM      9  F   UNL     1      -1.530  -2.206   1.116  0.00  0.00    +0.000 F 
ENDBRANCH   1   7
BRANCH   2  10
ATOM     10  C   UNL     1       2.910  -3.720  -0.193  0.00  0.00    +0.000 A 
ATOM     11  C   UNL     1       2.682  -4.726  -1.133  0.00  0.00    +0.000 A 
ATOM     12  C   UNL     1       3.323  -5.952  -0.996  0.00  0.00    +0.000 A 
ATOM     13  C   UNL     1       4.198  -6.194   0.058  0.00  0.00    +0.000 A 
ATOM     14  C   UNL     1       4.442  -5.188   0.990  0.00  0.00    +0.000 A 
ATOM     15  C   UNL     1       3.802  -3.953   0.860  0.00  0.00    +0.000 A 
ATOM     16  F   UNL     1       3.095  -6.918  -1.896  0.00  0.00    +0.000 F 
ENDBRANCH   2  10
TORSDOF 2
