REMARK  Name = *****
REMARK  4 active torsions:
REMARK  status: ('A' for Active; 'I' for Inactive)
REMARK    1  A    between atoms: C_1  and  C_2
REMARK    2  A    between atoms: C_3  and  C_9
REMARK    3  A    between atoms: C_9  and  C_10
REMARK    4  A    between atoms: C_10  and  C_11
REMARK                            x       y       z     vdW  Elec       q    Type
REMARK                         _______ _______ _______ _____ _____    ______ ____
ROOT
ATOM      1  C   UNL     1       3.249  -0.389  -2.614  0.00  0.00    +0.000 C 
ATOM      2  C   UNL     1       3.601  -0.292  -1.178  0.00  0.00    +0.000 C 
ATOM      3  C   UNL     1       3.486  -1.173  -0.167  0.00  0.00    +0.000 C 
ATOM      4  C   UNL     1       3.988  -0.634   1.145  0.00  0.00    +0.000 C 
ATOM      5  C   UNL     1       4.452   0.743   0.814  0.00  0.00    +0.000 C 
ATOM      6  C   UNL     1       4.991   1.669   1.614  0.00  0.00    +0.000 C 
ATOM      7  C   UNL     1       4.210   0.946  -0.637  0.00  0.00    +0.000 C 
ATOM      8  O   UNL     1       4.464   1.949  -1.276  0.00  0.00    +0.000 OA
ENDROOT
BRANCH   3   9
ATOM      9  C   UNL     1       2.905  -2.555  -0.226  0.00  0.00    +0.000 C 
BRANCH   9  10
ATOM     10  C   UNL     1       3.987  -3.640  -0.212  0.00  0.00    +0.000 C 
BRANCH  10  11
ATOM     11  C   UNL     1       3.387  -5.022  -0.290  0.00  0.00    +0.000 A 
ATOM     12  C   UNL     1       3.117  -5.609  -1.534  0.00  0.00    +0.000 A 
ATOM     13  C   UNL     1       2.544  -6.879  -1.607  0.00  0.00    +0.000 A 
ATOM     14  C   UNL     1       2.231  -7.572  -0.439  0.00  0.00    +0.000 A 
ATOM     15  C   UNL     1       2.490  -6.995   0.803  0.00  0.00    +0.000 A 
ATOM     16  C   UNL     1       3.064  -5.725   0.878  0.00  0.00    +0.000 A 
ENDBRANCH  10  11
ENDBRANCH   9  10
ENDBRANCH   3   9
TORSDOF 3
