REMARK  Name = *****
REMARK  3 active torsions:
REMARK  status: ('A' for Active; 'I' for Inactive)
REMARK    1  A    between atoms: C_4  and  C_7
REMARK    2  A    between atoms: C_7  and  O_8
REMARK    3  A    between atoms: O_8  and  C_9
REMARK                            x       y       z     vdW  Elec       q    Type
REMARK                         _______ _______ _______ _____ _____    ______ ____
ROOT
ATOM      1  O   UNL     1      -3.599  -0.759  -0.072  0.00  0.00    +0.000 OA
ENDROOT
BRANCH   1   2
ATOM      2  C   UNL     1      -4.956  -0.702  -0.230  0.00  0.00    +0.000 A 
ATOM      3  C   UNL     1      -5.713   0.453  -0.418  0.00  0.00    +0.000 A 
ATOM      4  C   UNL     1      -7.095   0.350  -0.563  0.00  0.00    +0.000 A 
ATOM      5  C   UNL     1      -7.739  -0.881  -0.523  0.00  0.00    +0.000 A 
ATOM      6  C   UNL     1      -6.987  -2.037  -0.334  0.00  0.00    +0.000 A 
ATOM      7  C   UNL     1      -5.601  -1.944  -0.187  0.00  0.00    +0.000 A 
ATOM      8  F   UNL     1      -7.818   1.463  -0.742  0.00  0.00    +0.000 F 
ENDBRANCH   1   2
BRANCH   1   9
ATOM      9  C   UNL     1      -2.877   0.469  -0.187  0.00  0.00    +0.000 C 
BRANCH   9  13
ATOM     10  C   UNL     1       1.387  -0.168   0.117  0.00  0.00    +0.000 A 
ATOM     11  C   UNL     1       0.580  -1.147  -0.459  0.00  0.00    +0.000 A 
ATOM     12  C   UNL     1      -0.799  -0.952  -0.551  0.00  0.00    +0.000 A 
ATOM     13  C   UNL     1      -1.391   0.219  -0.056  0.00  0.00    +0.000 A 
ATOM     14  C   UNL     1      -0.564   1.203   0.508  0.00  0.00    +0.000 A 
ATOM     15  C   UNL     1       0.815   1.008   0.598  0.00  0.00    +0.000 A 
ENDBRANCH   9  13
ENDBRANCH   1   9
TORSDOF 3
