REMARK  Name = *****
REMARK  4 active torsions:
REMARK  status: ('A' for Active; 'I' for Inactive)
REMARK    1  A    between atoms: C_4  and  C_7
REMARK    2  A    between atoms: C_8  and  C_9
REMARK    3  A    between atoms: C_12  and  N_15
REMARK    4  A    between atoms: N_15  and  O_16
REMARK                            x       y       z     vdW  Elec       q    Type
REMARK                         _______ _______ _______ _____ _____    ______ ____
ROOT
ATOM      1  C   UNL     1      -5.124  -0.291  -0.652  0.00  0.00    +0.000 A 
ATOM      2  C   UNL     1      -5.588   0.717  -1.504  0.00  0.00    +0.000 A 
ATOM      3  C   UNL     1      -6.961   0.904  -1.707  0.00  0.00    +0.000 A 
ATOM      4  C   UNL     1      -7.899   0.099  -1.054  0.00  0.00    +0.000 A 
ATOM      5  C   UNL     1      -7.432  -0.939  -0.241  0.00  0.00    +0.000 A 
ATOM      6  C   UNL     1      -6.060  -1.130  -0.037  0.00  0.00    +0.000 A 
ENDROOT
BRANCH   1   8
ATOM      7  C   UNL     1      -2.769   0.428  -0.341  0.00  0.00    +0.000 C 
ATOM      8  C   UNL     1      -3.692  -0.543  -0.437  0.00  0.00    +0.000 C 
BRANCH   7  12
ATOM      9  C   UNL     1       1.411  -0.188   0.329  0.00  0.00    +0.000 A 
ATOM     10  C   UNL     1       0.708  -1.079  -0.478  0.00  0.00    +0.000 A 
ATOM     11  C   UNL     1      -0.660  -0.894  -0.700  0.00  0.00    +0.000 A 
ATOM     12  C   UNL     1      -1.339   0.179  -0.107  0.00  0.00    +0.000 A 
ATOM     13  C   UNL     1      -0.617   1.077   0.689  0.00  0.00    +0.000 A 
ATOM     14  C   UNL     1       0.750   0.892   0.911  0.00  0.00    +0.000 A 
ENDBRANCH   7  12
ENDBRANCH   1   8
BRANCH   4  15
ATOM     15  N   UNL     1      -9.287   0.218  -1.297  0.00  0.00    +0.000 N 
ATOM     16  H   UNL     1      -9.902  -0.498  -1.018  0.00  0.00    +0.000 HD
BRANCH  15  17
ATOM     17  O   UNL     1      -9.776   1.358  -1.933  0.00  0.00    +0.000 OA
ATOM     18  H   UNL     1      -9.040   1.956  -2.137  0.00  0.00    +0.000 HD
ENDBRANCH  15  17
ENDBRANCH   4  15
TORSDOF 4
