REMARK  Name = *****
REMARK  4 active torsions:
REMARK  status: ('A' for Active; 'I' for Inactive)
REMARK    1  A    between atoms: C_1  and  C_2
REMARK    2  A    between atoms: C_2  and  C_11
REMARK    3  A    between atoms: N_3  and  C_4
REMARK    4  A    between atoms: C_9  and  S_10
REMARK                            x       y       z     vdW  Elec       q    Type
REMARK                         _______ _______ _______ _____ _____    ______ ____
ROOT
ATOM      1  C   UNL     1       1.041  -0.305   0.659  0.00  0.00    +0.000 C 
ATOM      2  C   UNL     1       2.477  -0.002   0.269  0.00  0.00    +0.000 C 
ATOM      3  N   UNL     1       3.016   1.184   0.335  0.00  0.00    +0.000 NA
ENDROOT
BRANCH   3   4
ATOM      4  C   UNL     1       2.252   2.285   0.767  0.00  0.00    +0.000 A 
ATOM      5  C   UNL     1       1.448   2.961  -0.159  0.00  0.00    +0.000 A 
ATOM      6  C   UNL     1       0.689   4.068   0.228  0.00  0.00    +0.000 A 
ATOM      7  C   UNL     1       0.739   4.518   1.545  0.00  0.00    +0.000 A 
ATOM      8  C   UNL     1       1.554   3.869   2.474  0.00  0.00    +0.000 A 
ATOM      9  C   UNL     1       2.320   2.760   2.092  0.00  0.00    +0.000 A 
BRANCH   9  10
ATOM     10  S   UNL     1       3.363   1.977   3.316  0.00  0.00    +0.000 S 
ATOM     11  H   UNL     1       4.018   0.929   2.749  0.00  0.00    +0.000 HD
ENDBRANCH   9  10
ENDBRANCH   3   4
BRANCH   2  12
ATOM     12  C   UNL     1       3.319  -1.133  -0.233  0.00  0.00    +0.000 A 
ATOM     13  C   UNL     1       2.751  -2.246  -0.864  0.00  0.00    +0.000 A 
ATOM     14  C   UNL     1       3.566  -3.282  -1.326  0.00  0.00    +0.000 A 
ATOM     15  C   UNL     1       4.949  -3.210  -1.166  0.00  0.00    +0.000 A 
ATOM     16  C   UNL     1       5.523  -2.098  -0.552  0.00  0.00    +0.000 A 
ATOM     17  C   UNL     1       4.711  -1.060  -0.090  0.00  0.00    +0.000 A 
ENDBRANCH   2  12
TORSDOF 3
