REMARK  Name = *****
REMARK  3 active torsions:
REMARK  status: ('A' for Active; 'I' for Inactive)
REMARK    1  A    between atoms: C_1  and  C_2
REMARK    2  A    between atoms: C_5  and  S_8
REMARK    3  A    between atoms: S_8  and  C_9
REMARK                            x       y       z     vdW  Elec       q    Type
REMARK                         _______ _______ _______ _____ _____    ______ ____
ROOT
ATOM      1  S   UNL     1      -5.941   1.033  -0.077  0.00  0.00    +0.000 S 
ENDROOT
BRANCH   1   6
ATOM      2  C   UNL     1      -6.705  -1.323  -5.647  0.00  0.00    +0.000 C 
ATOM      3  C   UNL     1      -6.492  -0.727  -4.288  0.00  0.00    +0.000 A 
ATOM      4  C   UNL     1      -5.457  -1.187  -3.466  0.00  0.00    +0.000 A 
ATOM      5  C   UNL     1      -5.279  -0.656  -2.185  0.00  0.00    +0.000 A 
ATOM      6  C   UNL     1      -6.134   0.340  -1.708  0.00  0.00    +0.000 A 
ATOM      7  C   UNL     1      -7.187   0.779  -2.515  0.00  0.00    +0.000 A 
ATOM      8  C   UNL     1      -7.365   0.250  -3.796  0.00  0.00    +0.000 A 
ENDBRANCH   1   6
BRANCH   1   9
ATOM      9  C   UNL     1      -4.269   1.758  -0.227  0.00  0.00    +0.000 C 
ATOM     10  C   UNL     1      -4.148   2.903  -1.281  0.00  0.00    +0.000 C 
ATOM     11  C   UNL     1      -3.489   4.044  -0.472  0.00  0.00    +0.000 C 
ATOM     12  C   UNL     1      -2.598   3.264   0.498  0.00  0.00    +0.000 C 
ATOM     13  C   UNL     1      -3.767   2.450   1.071  0.00  0.00    +0.000 C 
ATOM     14  C   UNL     1      -4.674   3.605   1.445  0.00  0.00    +0.000 C 
ATOM     15  C   UNL     1      -4.511   4.557   0.514  0.00  0.00    +0.000 C 
ENDBRANCH   1   9
TORSDOF 2
