REMARK  Name = *****
REMARK  5 active torsions:
REMARK  status: ('A' for Active; 'I' for Inactive)
REMARK    1  A    between atoms: C_1  and  O_2
REMARK    2  A    between atoms: O_2  and  C_3
REMARK    3  A    between atoms: C_3  and  C_4
REMARK    4  A    between atoms: C_3  and  C_10
REMARK    5  A    between atoms: C_10  and  C_11
REMARK                            x       y       z     vdW  Elec       q    Type
REMARK                         _______ _______ _______ _____ _____    ______ ____
ROOT
ATOM      1  C   UNL     1       2.499   0.270   1.088  0.00  0.00    +0.000 C 
ENDROOT
BRANCH   1   2
ATOM      2  C   UNL     1       2.194  -0.075   2.540  0.00  0.00    +0.000 A 
ATOM      3  C   UNL     1       2.323  -1.387   3.022  0.00  0.00    +0.000 A 
ATOM      4  C   UNL     1       2.057  -1.683   4.359  0.00  0.00    +0.000 A 
ATOM      5  C   UNL     1       1.659  -0.673   5.232  0.00  0.00    +0.000 A 
ATOM      6  C   UNL     1       1.528   0.635   4.769  0.00  0.00    +0.000 A 
ATOM      7  C   UNL     1       1.795   0.934   3.432  0.00  0.00    +0.000 A 
ENDBRANCH   1   2
BRANCH   1   9
ATOM      8  C   UNL     1       0.594  -0.640  -0.026  0.00  0.00    +0.000 C 
ATOM      9  O   UNL     1       1.995  -0.742   0.199  0.00  0.00    +0.000 OA
ENDBRANCH   1   9
BRANCH   1  10
ATOM     10  C   UNL     1       4.021   0.508   0.884  0.00  0.00    +0.000 C 
ATOM     11 BR   UNL     1       4.319   1.395  -0.858  0.00  0.00    +0.000 Br
BRANCH  10  12
ATOM     12  C   UNL     1       4.957  -0.679   0.985  0.00  0.00    +0.000 A 
ATOM     13  C   UNL     1       4.875  -1.777   0.113  0.00  0.00    +0.000 A 
ATOM     14  C   UNL     1       5.746  -2.861   0.241  0.00  0.00    +0.000 A 
ATOM     15  C   UNL     1       6.712  -2.867   1.243  0.00  0.00    +0.000 A 
ATOM     16  C   UNL     1       6.808  -1.789   2.119  0.00  0.00    +0.000 A 
ATOM     17  C   UNL     1       5.937  -0.704   1.992  0.00  0.00    +0.000 A 
ENDBRANCH  10  12
ENDBRANCH   1  10
TORSDOF 4
