REMARK  Name = *****
REMARK  5 active torsions:
REMARK  status: ('A' for Active; 'I' for Inactive)
REMARK    1  A    between atoms: C_1  and  C_2
REMARK    2  A    between atoms: C_7  and  N_8
REMARK    3  A    between atoms: N_8  and  N_9
REMARK    4  A    between atoms: N_9  and  C_11
REMARK    5  A    between atoms: C_16  and  C_17
REMARK                            x       y       z     vdW  Elec       q    Type
REMARK                         _______ _______ _______ _____ _____    ______ ____
ROOT
ATOM      1  N   UNL     1       1.181  -2.246   0.087  0.00  0.00    +0.000 N 
ATOM      2  H   UNL     1       0.606  -2.973   0.421  0.00  0.00    +0.000 HD
ENDROOT
BRANCH   1   9
ATOM      3  C   UNL     1      -1.615  -2.033   0.887  0.00  0.00    +0.000 C 
ATOM      4  C   UNL     1      -0.801  -0.854   0.422  0.00  0.00    +0.000 A 
ATOM      5  C   UNL     1      -1.428   0.405   0.367  0.00  0.00    +0.000 A 
ATOM      6  C   UNL     1      -0.732   1.531  -0.065  0.00  0.00    +0.000 A 
ATOM      7  C   UNL     1       0.596   1.409  -0.448  0.00  0.00    +0.000 A 
ATOM      8  C   UNL     1       1.230   0.164  -0.395  0.00  0.00    +0.000 A 
ATOM      9  C   UNL     1       0.560  -0.984   0.050  0.00  0.00    +0.000 A 
ENDBRANCH   1   9
BRANCH   1  10
ATOM     10  N   UNL     1       2.492  -2.652  -0.272  0.00  0.00    +0.000 N 
ATOM     11  O   UNL     1       3.311  -1.899  -0.759  0.00  0.00    +0.000 OA
BRANCH  10  12
ATOM     12  C   UNL     1       2.870  -4.032  -0.063  0.00  0.00    +0.000 A 
ATOM     13  C   UNL     1       2.125  -5.025  -0.714  0.00  0.00    +0.000 A 
ATOM     14  C   UNL     1       2.452  -6.366  -0.526  0.00  0.00    +0.000 A 
ATOM     15  C   UNL     1       3.518  -6.710   0.304  0.00  0.00    +0.000 A 
ATOM     16  C   UNL     1       4.259  -5.718   0.951  0.00  0.00    +0.000 A 
ATOM     17  C   UNL     1       3.941  -4.362   0.785  0.00  0.00    +0.000 A 
ATOM     18  C   UNL     1       4.764  -3.313   1.477  0.00  0.00    +0.000 C 
ENDBRANCH  10  12
ENDBRANCH   1  10
TORSDOF 3
