REMARK  Name = *****
REMARK  3 active torsions:
REMARK  status: ('A' for Active; 'I' for Inactive)
REMARK    1  A    between atoms: C_6  and  C_7
REMARK    2  A    between atoms: C_7  and  S_8
REMARK    3  A    between atoms: S_8  and  C_9
REMARK                            x       y       z     vdW  Elec       q    Type
REMARK                         _______ _______ _______ _____ _____    ______ ____
ROOT
ATOM      1  C   UNL     1      -3.461   0.137   0.088  0.00  0.00    +0.000 C 
ENDROOT
BRANCH   1   7
ATOM      2  C   UNL     1      -1.252  -0.259  -1.085  0.00  0.00    +0.000 A 
ATOM      3  C   UNL     1       0.144  -0.258  -1.101  0.00  0.00    +0.000 A 
ATOM      4  C   UNL     1       0.842   0.134   0.034  0.00  0.00    +0.000 A 
ATOM      5  C   UNL     1       0.173   0.527   1.186  0.00  0.00    +0.000 A 
ATOM      6  C   UNL     1      -1.223   0.525   1.206  0.00  0.00    +0.000 A 
ATOM      7  C   UNL     1      -1.949   0.126   0.072  0.00  0.00    +0.000 A 
ATOM      8  F   UNL     1       2.182   0.136   0.016  0.00  0.00    +0.000 F 
ENDBRANCH   1   7
BRANCH   1   9
ATOM      9  S   UNL     1      -4.109   1.788  -0.327  0.00  0.00    +0.000 S 
BRANCH   9  10
ATOM     10  C   UNL     1      -5.860   1.492  -0.171  0.00  0.00    +0.000 A 
ATOM     11  N   UNL     1      -6.287   0.224   0.024  0.00  0.00    +0.000 NA
ATOM     12  C   UNL     1      -7.618   0.020   0.131  0.00  0.00    +0.000 A 
ATOM     13  C   UNL     1      -8.556   1.029   0.056  0.00  0.00    +0.000 A 
ATOM     14  C   UNL     1      -8.089   2.320  -0.144  0.00  0.00    +0.000 A 
ATOM     15  C   UNL     1      -6.728   2.568  -0.263  0.00  0.00    +0.000 A 
ATOM     16 CL   UNL     1      -9.208   3.623  -0.246  0.00  0.00    +0.000 Cl
ENDBRANCH   9  10
ENDBRANCH   1   9
TORSDOF 3
