REMARK  Name = *****
REMARK  7 active torsions:
REMARK  status: ('A' for Active; 'I' for Inactive)
REMARK    1  A    between atoms: C_1  and  C_2
REMARK    2  A    between atoms: N_4  and  P_9
REMARK    3  A    between atoms: C_5  and  N_6
REMARK    4  A    between atoms: N_6  and  C_7
REMARK    5  A    between atoms: P_9  and  C_11
REMARK    6  A    between atoms: P_9  and  O_12
REMARK    7  A    between atoms: O_12  and  C_13
REMARK                            x       y       z     vdW  Elec       q    Type
REMARK                         _______ _______ _______ _____ _____    ______ ____
ROOT
ATOM      1  P   UNL     1       4.724  -2.054   2.735  0.00  0.00    +0.000 P 
ATOM      2  S   UNL     1       5.785  -1.288   4.197  0.00  0.00    +0.000 S 
ATOM      3  C   UNL     1       3.089  -2.633   3.240  0.00  0.00    +0.000 C 
ENDROOT
BRANCH   1   7
ATOM      4  C   UNL     1       3.511   2.659   1.012  0.00  0.00    +0.000 C 
ATOM      5  C   UNL     1       3.224   1.170   1.075  0.00  0.00    +0.000 C 
ATOM      6  C   UNL     1       4.175   0.412   1.991  0.00  0.00    +0.000 C 
ATOM      7  N   UNL     1       4.194  -1.000   1.582  0.00  0.00    +0.000 NA
ATOM      8  C   UNL     1       3.841  -1.208   0.268  0.00  0.00    +0.000 C 
ATOM      9  S   UNL     1       3.482   0.361  -0.515  0.00  0.00    +0.000 S 
BRANCH   8  10
ATOM     10  N   UNL     1       3.673  -2.165  -0.542  0.00  0.00    +0.000 NA
ATOM     11  C   UNL     1       3.819  -3.568  -0.287  0.00  0.00    +0.000 C 
ATOM     12  H   UNL     1       3.410  -1.916  -1.458  0.00  0.00    +0.000 HD
ENDBRANCH   8  10
ENDBRANCH   1   7
BRANCH   1  13
ATOM     13  O   UNL     1       5.407  -3.331   2.029  0.00  0.00    +0.000 OA
BRANCH  13  14
ATOM     14  C   UNL     1       5.829  -4.501   2.597  0.00  0.00    +0.000 A 
ATOM     15  C   UNL     1       6.477  -5.385   1.730  0.00  0.00    +0.000 A 
ATOM     16  C   UNL     1       6.940  -6.620   2.187  0.00  0.00    +0.000 A 
ATOM     17  C   UNL     1       6.759  -6.977   3.519  0.00  0.00    +0.000 A 
ATOM     18  C   UNL     1       6.120  -6.097   4.390  0.00  0.00    +0.000 A 
ATOM     19  C   UNL     1       5.656  -4.860   3.931  0.00  0.00    +0.000 A 
ENDBRANCH  13  14
ENDBRANCH   1  13
TORSDOF 4
