REMARK  Name = *****
REMARK  1 active torsions:
REMARK  status: ('A' for Active; 'I' for Inactive)
REMARK    1  A    between atoms: C_8  and  C_11
REMARK                            x       y       z     vdW  Elec       q    Type
REMARK                         _______ _______ _______ _____ _____    ______ ____
ROOT
ATOM      1  C   UNL     1       2.631   0.009   0.039  0.00  0.00    +0.000 C 
ATOM      2  C   UNL     1       1.811   1.259   0.342  0.00  0.00    +0.000 C 
ATOM      3  C   UNL     1       0.519   1.300  -0.475  0.00  0.00    +0.000 C 
ATOM      4  C   UNL     1      -0.312   0.019  -0.323  0.00  0.00    +0.000 C 
ATOM      5  C   UNL     1       0.522  -1.245  -0.570  0.00  0.00    +0.000 C 
ATOM      6  C   UNL     1       1.814  -1.262   0.249  0.00  0.00    +0.000 C 
ATOM      7  C   UNL     1      -1.540   0.049  -1.169  0.00  0.00    +0.000 C 
ATOM      8  C   UNL     1      -2.572   0.019  -0.321  0.00  0.00    +0.000 C 
ATOM      9  N   UNL     1      -2.152  -0.034   0.988  0.00  0.00    +0.000 NA
ATOM     10  N   UNL     1      -0.891  -0.034   1.051  0.00  0.00    +0.000 NA
ENDROOT
BRANCH   8  11
ATOM     11  C   UNL     1      -4.000   0.012  -0.682  0.00  0.00    +0.000 A 
ATOM     12  C   UNL     1      -4.955  -0.450   0.238  0.00  0.00    +0.000 A 
ATOM     13  C   UNL     1      -6.317  -0.460  -0.078  0.00  0.00    +0.000 A 
ATOM     14  C   UNL     1      -6.747  -0.001  -1.319  0.00  0.00    +0.000 A 
ATOM     15  C   UNL     1      -5.818   0.470  -2.243  0.00  0.00    +0.000 A 
ATOM     16  C   UNL     1      -4.456   0.479  -1.926  0.00  0.00    +0.000 A 
ENDBRANCH   8  11
TORSDOF 1
