REMARK  Name = *****
REMARK  4 active torsions:
REMARK  status: ('A' for Active; 'I' for Inactive)
REMARK    1  A    between atoms: C_5  and  C_7
REMARK    2  A    between atoms: C_7  and  O_8
REMARK    3  A    between atoms: O_8  and  C_9
REMARK    4  A    between atoms: C_9  and  C_10
REMARK                            x       y       z     vdW  Elec       q    Type
REMARK                         _______ _______ _______ _____ _____    ______ ____
ROOT
ATOM      1  O   UNL     1      -3.289  -1.624  -0.758  0.00  0.00    +0.000 OA
ENDROOT
BRANCH   1   2
ATOM      2  C   UNL     1      -1.916  -2.023  -0.738  0.00  0.00    +0.000 C 
BRANCH   2   7
ATOM      3  C   UNL     1       1.226  -0.578   1.007  0.00  0.00    +0.000 C 
ATOM      4  C   UNL     1       0.862  -1.070   2.410  0.00  0.00    +0.000 C 
ATOM      5  C   UNL     1      -0.617  -1.205   2.613  0.00  0.00    +0.000 C 
ATOM      6  C   UNL     1      -1.503  -1.182   1.606  0.00  0.00    +0.000 C 
ATOM      7  C   UNL     1      -1.112  -1.054   0.148  0.00  0.00    +0.000 C 
ATOM      8  C   UNL     1       0.396  -1.287  -0.060  0.00  0.00    +0.000 C 
ENDBRANCH   2   7
ENDBRANCH   1   2
BRANCH   1   9
ATOM      9  C   UNL     1      -4.085  -2.516  -1.537  0.00  0.00    +0.000 C 
BRANCH   9  10
ATOM     10  C   UNL     1      -5.520  -2.051  -1.554  0.00  0.00    +0.000 A 
ATOM     11  C   UNL     1      -5.838  -0.690  -1.674  0.00  0.00    +0.000 A 
ATOM     12  C   UNL     1      -7.168  -0.271  -1.730  0.00  0.00    +0.000 A 
ATOM     13  C   UNL     1      -8.197  -1.209  -1.677  0.00  0.00    +0.000 A 
ATOM     14  C   UNL     1      -7.897  -2.565  -1.570  0.00  0.00    +0.000 A 
ATOM     15  C   UNL     1      -6.566  -2.985  -1.514  0.00  0.00    +0.000 A 
ENDBRANCH   9  10
ENDBRANCH   1   9
TORSDOF 4
