REMARK  Name = *****
REMARK  3 active torsions:
REMARK  status: ('A' for Active; 'I' for Inactive)
REMARK    1  A    between atoms: C_6  and  S_7
REMARK    2  A    between atoms: S_7  and  S_8
REMARK    3  A    between atoms: S_8  and  C_9
REMARK                            x       y       z     vdW  Elec       q    Type
REMARK                         _______ _______ _______ _____ _____    ______ ____
ROOT
ATOM      1  C   UNL     1       1.605   0.982  -0.467  0.00  0.00    +0.000 A 
ATOM      2  C   UNL     1       0.217   0.970  -0.311  0.00  0.00    +0.000 A 
ATOM      3  C   UNL     1      -0.404  -0.138   0.264  0.00  0.00    +0.000 A 
ATOM      4  C   UNL     1       0.351  -1.231   0.685  0.00  0.00    +0.000 A 
ATOM      5  C   UNL     1       1.740  -1.218   0.528  0.00  0.00    +0.000 A 
ATOM      6  C   UNL     1       2.372  -0.113  -0.054  0.00  0.00    +0.000 A 
ATOM      7 CL   UNL     1      -2.113  -0.155   0.456  0.00  0.00    +0.000 Cl
ENDROOT
BRANCH   6   8
ATOM      8  S   UNL     1       4.143  -0.086  -0.256  0.00  0.00    +0.000 S 
BRANCH   8   9
ATOM      9  S   UNL     1       4.375  -1.167  -1.993  0.00  0.00    +0.000 S 
BRANCH   9  10
ATOM     10  C   UNL     1       4.044   0.053  -3.215  0.00  0.00    +0.000 A 
ATOM     11  N   UNL     1       4.078   1.349  -2.984  0.00  0.00    +0.000 NA
ATOM     12  C   UNL     1       3.785   2.039  -4.143  0.00  0.00    +0.000 A 
ATOM     13  C   UNL     1       3.529   1.262  -5.251  0.00  0.00    +0.000 A 
ATOM     14  S   UNL     1       3.663  -0.395  -4.833  0.00  0.00    +0.000 S 
ENDBRANCH   9  10
ENDBRANCH   8   9
ENDBRANCH   6   8
TORSDOF 3
