REMARK  Name = *****
REMARK  5 active torsions:
REMARK  status: ('A' for Active; 'I' for Inactive)
REMARK    1  A    between atoms: C_1  and  C_2
REMARK    2  A    between atoms: C_7  and  C_8
REMARK    3  A    between atoms: C_8  and  C_9
REMARK    4  A    between atoms: C_9  and  C_10
REMARK    5  A    between atoms: C_10  and  C_12
REMARK                            x       y       z     vdW  Elec       q    Type
REMARK                         _______ _______ _______ _____ _____    ______ ____
ROOT
ATOM      1  C   UNL     1       2.458  -2.427   0.010  0.00  0.00    +0.000 C 
ENDROOT
BRANCH   1   2
ATOM      2  C   UNL     1       3.040  -3.827  -0.037  0.00  0.00    +0.000 C 
ATOM      3  O   UNL     1       2.329  -4.822  -0.177  0.00  0.00    +0.000 OA
BRANCH   2   4
ATOM      4  C   UNL     1       4.515  -4.017   0.086  0.00  0.00    +0.000 A 
ATOM      5  C   UNL     1       5.034  -5.310  -0.088  0.00  0.00    +0.000 A 
ATOM      6  C   UNL     1       6.408  -5.546   0.013  0.00  0.00    +0.000 A 
ATOM      7  C   UNL     1       7.278  -4.494   0.290  0.00  0.00    +0.000 A 
ATOM      8  C   UNL     1       6.773  -3.207   0.467  0.00  0.00    +0.000 A 
ATOM      9  C   UNL     1       5.401  -2.975   0.366  0.00  0.00    +0.000 A 
ATOM     10  F   UNL     1       4.972  -1.720   0.555  0.00  0.00    +0.000 F 
ENDBRANCH   2   4
ENDBRANCH   1   2
BRANCH   1  11
ATOM     11  C   UNL     1       0.954  -2.432  -0.269  0.00  0.00    +0.000 C 
BRANCH  11  18
ATOM     12  C   UNL     1      -0.261  -1.246   2.230  0.00  0.00    +0.000 C 
ATOM     13  C   UNL     1      -0.172  -0.472   0.943  0.00  0.00    +0.000 A 
ATOM     14  C   UNL     1      -0.678   0.837   0.903  0.00  0.00    +0.000 A 
ATOM     15  C   UNL     1      -0.631   1.590  -0.270  0.00  0.00    +0.000 A 
ATOM     16  C   UNL     1      -0.081   1.042  -1.423  0.00  0.00    +0.000 A 
ATOM     17  C   UNL     1       0.420  -0.259  -1.403  0.00  0.00    +0.000 A 
ATOM     18  C   UNL     1       0.376  -1.033  -0.230  0.00  0.00    +0.000 A 
ENDBRANCH  11  18
ENDBRANCH   1  11
TORSDOF 4
