REMARK  Name = *****
REMARK  6 active torsions:
REMARK  status: ('A' for Active; 'I' for Inactive)
REMARK    1  A    between atoms: C_1  and  C_2
REMARK    2  A    between atoms: C_3  and  C_9
REMARK    3  A    between atoms: C_4  and  C_8
REMARK    4  A    between atoms: C_9  and  C_10
REMARK    5  A    between atoms: C_10  and  C_11
REMARK    6  A    between atoms: C_11  and  C_13
REMARK                            x       y       z     vdW  Elec       q    Type
REMARK                         _______ _______ _______ _____ _____    ______ ____
ROOT
ATOM      1  C   UNL     1       1.487   3.097  -0.181  0.00  0.00    +0.000 C 
ENDROOT
BRANCH   1   2
ATOM      2  C   UNL     1       1.475   4.607  -0.040  0.00  0.00    +0.000 C 
ATOM      3  O   UNL     1       0.430   5.241   0.103  0.00  0.00    +0.000 OA
BRANCH   2   4
ATOM      4  C   UNL     1       2.763   5.361  -0.071  0.00  0.00    +0.000 A 
ATOM      5  C   UNL     1       3.996   4.764  -0.352  0.00  0.00    +0.000 A 
ATOM      6  C   UNL     1       5.171   5.512  -0.369  0.00  0.00    +0.000 A 
ATOM      7  C   UNL     1       5.115   6.872  -0.102  0.00  0.00    +0.000 A 
ATOM      8  C   UNL     1       3.905   7.496   0.178  0.00  0.00    +0.000 A 
ATOM      9  C   UNL     1       2.729   6.742   0.193  0.00  0.00    +0.000 A 
ATOM     10  F   UNL     1       6.242   7.595  -0.117  0.00  0.00    +0.000 F 
ATOM     11  F   UNL     1       4.095   3.456  -0.623  0.00  0.00    +0.000 F 
ENDBRANCH   2   4
ENDBRANCH   1   2
BRANCH   1  12
ATOM     12  C   UNL     1       0.087   2.503   0.002  0.00  0.00    +0.000 C 
BRANCH  12  15
ATOM     13  C   UNL     1       0.466   0.800   2.431  0.00  0.00    +0.000 C 
ATOM     14  C   UNL     1       0.308   0.195   1.061  0.00  0.00    +0.000 A 
ATOM     15  C   UNL     1       0.100   0.987  -0.097  0.00  0.00    +0.000 A 
ATOM     16  C   UNL     1      -0.067   0.347  -1.351  0.00  0.00    +0.000 A 
ATOM     17  C   UNL     1      -0.036  -1.055  -1.424  0.00  0.00    +0.000 A 
ATOM     18  C   UNL     1       0.165  -1.825  -0.284  0.00  0.00    +0.000 A 
ATOM     19  C   UNL     1       0.332  -1.205   0.949  0.00  0.00    +0.000 A 
ATOM     20  C   UNL     1      -0.318   1.119  -2.620  0.00  0.00    +0.000 C 
ENDBRANCH  12  15
ENDBRANCH   1  12
TORSDOF 4
