REMARK  Name = *****
REMARK  4 active torsions:
REMARK  status: ('A' for Active; 'I' for Inactive)
REMARK    1  A    between atoms: C_3  and  C_6
REMARK    2  A    between atoms: C_6  and  C_7
REMARK    3  A    between atoms: C_7  and  C_8
REMARK    4  A    between atoms: C_8  and  C_9
REMARK                            x       y       z     vdW  Elec       q    Type
REMARK                         _______ _______ _______ _____ _____    ______ ____
ROOT
ATOM      1  C   UNL     1      -2.546  -2.428   0.914  0.00  0.00    +0.000 C 
ENDROOT
BRANCH   1   2
ATOM      2  C   UNL     1      -2.115  -0.965   1.052  0.00  0.00    +0.000 C 
BRANCH   2   5
ATOM      3  C   UNL     1       1.232  -0.223  -0.473  0.00  0.00    +0.000 C 
ATOM      4  C   UNL     1       0.191  -1.253  -0.036  0.00  0.00    +0.000 C 
ATOM      5  C   UNL     1      -1.165  -0.529  -0.069  0.00  0.00    +0.000 C 
ATOM      6  C   UNL     1      -0.754   0.909   0.047  0.00  0.00    +0.000 C 
ATOM      7  C   UNL     1       0.554   1.073  -0.178  0.00  0.00    +0.000 C 
ENDBRANCH   2   5
ENDBRANCH   1   2
BRANCH   1   8
ATOM      8  C   UNL     1      -3.529  -2.821   2.019  0.00  0.00    +0.000 C 
BRANCH   8   9
ATOM      9  C   UNL     1      -3.952  -4.264   1.900  0.00  0.00    +0.000 A 
ATOM     10  C   UNL     1      -3.204  -5.276   2.515  0.00  0.00    +0.000 A 
ATOM     11  C   UNL     1      -3.584  -6.613   2.390  0.00  0.00    +0.000 A 
ATOM     12  C   UNL     1      -4.713  -6.950   1.644  0.00  0.00    +0.000 A 
ATOM     13  C   UNL     1      -5.460  -5.952   1.023  0.00  0.00    +0.000 A 
ATOM     14  C   UNL     1      -5.081  -4.614   1.147  0.00  0.00    +0.000 A 
ENDBRANCH   8   9
ENDBRANCH   1   8
TORSDOF 4
