REMARK  Name = *****
REMARK  3 active torsions:
REMARK  status: ('A' for Active; 'I' for Inactive)
REMARK    1  A    between atoms: C_4  and  C_7
REMARK    2  A    between atoms: C_7  and  O_9
REMARK    3  A    between atoms: O_9  and  C_10
REMARK                            x       y       z     vdW  Elec       q    Type
REMARK                         _______ _______ _______ _____ _____    ______ ____
ROOT
ATOM      1  C   UNL     1       2.662  -0.639  -0.766  0.00  0.00    +0.000 C 
ATOM      2  S   UNL     1       4.181  -0.613  -0.078  0.00  0.00    +0.000 S 
ENDROOT
BRANCH   1   6
ATOM      3  C   UNL     1      -1.518   0.242   0.079  0.00  0.00    +0.000 C 
ATOM      4  C   UNL     1      -0.891  -0.984   0.736  0.00  0.00    +0.000 C 
ATOM      5  C   UNL     1       0.404  -1.395   0.040  0.00  0.00    +0.000 C 
ATOM      6  C   UNL     1       1.397  -0.227  -0.034  0.00  0.00    +0.000 C 
ATOM      7  C   UNL     1       0.762   1.003  -0.697  0.00  0.00    +0.000 C 
ATOM      8  C   UNL     1      -0.534   1.406   0.001  0.00  0.00    +0.000 C 
ENDBRANCH   1   6
BRANCH   1   9
ATOM      9  O   UNL     1       2.389  -1.028  -2.080  0.00  0.00    +0.000 OA
BRANCH   9  10
ATOM     10  C   UNL     1       3.384  -1.468  -2.977  0.00  0.00    +0.000 A 
ATOM     11  C   UNL     1       3.694  -2.824  -3.033  0.00  0.00    +0.000 A 
ATOM     12  C   UNL     1       4.644  -3.261  -3.954  0.00  0.00    +0.000 A 
ATOM     13  C   UNL     1       5.256  -2.344  -4.814  0.00  0.00    +0.000 A 
ATOM     14  C   UNL     1       4.917  -0.989  -4.759  0.00  0.00    +0.000 A 
ATOM     15  C   UNL     1       3.969  -0.545  -3.840  0.00  0.00    +0.000 A 
ENDBRANCH   9  10
ENDBRANCH   1   9
TORSDOF 3
