REMARK  Name = *****
REMARK  6 active torsions:
REMARK  status: ('A' for Active; 'I' for Inactive)
REMARK    1  A    between atoms: C_1  and  C_2
REMARK    2  A    between atoms: C_5  and  C_8
REMARK    3  A    between atoms: C_8  and  S_9
REMARK    4  A    between atoms: C_8  and  S_16
REMARK    5  A    between atoms: S_9  and  C_10
REMARK    6  A    between atoms: S_16  and  C_18
REMARK                            x       y       z     vdW  Elec       q    Type
REMARK                         _______ _______ _______ _____ _____    ______ ____
ROOT
ATOM      1  C   UNL     1      -3.356   0.071   0.193  0.00  0.00    +0.000 C 
ENDROOT
BRANCH   1   6
ATOM      2  C   UNL     1       2.467  -0.142  -0.404  0.00  0.00    +0.000 C 
ATOM      3  C   UNL     1       0.980  -0.078  -0.226  0.00  0.00    +0.000 A 
ATOM      4  C   UNL     1       0.185  -1.192  -0.508  0.00  0.00    +0.000 A 
ATOM      5  C   UNL     1      -1.204  -1.123  -0.376  0.00  0.00    +0.000 A 
ATOM      6  C   UNL     1      -1.839   0.066   0.029  0.00  0.00    +0.000 A 
ATOM      7  C   UNL     1      -1.030   1.180   0.302  0.00  0.00    +0.000 A 
ATOM      8  C   UNL     1       0.360   1.111   0.168  0.00  0.00    +0.000 A 
ENDBRANCH   1   6
BRANCH   1   9
ATOM      9  S   UNL     1      -4.171   1.694  -0.137  0.00  0.00    +0.000 S 
ATOM     10  O   UNL     1      -3.743   2.184  -1.491  0.00  0.00    +0.000 OA
ATOM     11  C   UNL     1      -5.858   1.063  -0.323  0.00  0.00    +0.000 C 
ENDBRANCH   1   9
BRANCH   1  12
ATOM     12  S   UNL     1      -3.872  -0.691   1.798  0.00  0.00    +0.000 S 
BRANCH  12  13
ATOM     13  C   UNL     1      -3.214   0.468   2.981  0.00  0.00    +0.000 A 
ATOM     14  C   UNL     1      -4.012   1.507   3.469  0.00  0.00    +0.000 A 
ATOM     15  C   UNL     1      -3.501   2.406   4.408  0.00  0.00    +0.000 A 
ATOM     16  C   UNL     1      -2.196   2.261   4.875  0.00  0.00    +0.000 A 
ATOM     17  C   UNL     1      -1.404   1.213   4.411  0.00  0.00    +0.000 A 
ATOM     18  C   UNL     1      -1.915   0.313   3.473  0.00  0.00    +0.000 A 
ENDBRANCH  12  13
ENDBRANCH   1  12
TORSDOF 4
