REMARK  Name = *****
REMARK  2 active torsions:
REMARK  status: ('A' for Active; 'I' for Inactive)
REMARK    1  A    between atoms: C_5  and  N_7
REMARK    2  A    between atoms: C_8  and  C_10
REMARK                            x       y       z     vdW  Elec       q    Type
REMARK                         _______ _______ _______ _____ _____    ______ ____
ROOT
ATOM      1  N   UNL     1       1.161  -2.287   0.112  0.00  0.00    +0.000 N 
ATOM      2  C   UNL     1       2.542  -2.333   0.170  0.00  0.00    +0.000 C 
ATOM      3  O   UNL     1       3.296  -1.392   0.379  0.00  0.00    +0.000 OA
ATOM      4  H   UNL     1       0.689  -3.151   0.104  0.00  0.00    +0.000 HD
ENDROOT
BRANCH   1   9
ATOM      5  C   UNL     1      -1.855  -0.174   0.424  0.00  0.00    +0.000 A 
ATOM      6  C   UNL     1      -1.398   1.078   0.020  0.00  0.00    +0.000 A 
ATOM      7  C   UNL     1      -0.074   1.229  -0.385  0.00  0.00    +0.000 A 
ATOM      8  C   UNL     1       0.793   0.135  -0.371  0.00  0.00    +0.000 A 
ATOM      9  C   UNL     1       0.359  -1.124   0.062  0.00  0.00    +0.000 A 
ATOM     10  C   UNL     1      -0.985  -1.269   0.437  0.00  0.00    +0.000 A 
ATOM     11  F   UNL     1       2.019   0.325  -0.875  0.00  0.00    +0.000 F 
ENDBRANCH   1   9
BRANCH   2  12
ATOM     12  C   UNL     1       3.130  -3.701   0.068  0.00  0.00    +0.000 A 
ATOM     13  C   UNL     1       2.526  -4.706  -0.698  0.00  0.00    +0.000 A 
ATOM     14  C   UNL     1       3.116  -5.968  -0.762  0.00  0.00    +0.000 A 
ATOM     15  C   UNL     1       4.304  -6.236  -0.082  0.00  0.00    +0.000 A 
ATOM     16  C   UNL     1       4.917  -5.231   0.665  0.00  0.00    +0.000 A 
ATOM     17  C   UNL     1       4.334  -3.964   0.736  0.00  0.00    +0.000 A 
ATOM     18 CL   UNL     1       2.370  -7.208  -1.694  0.00  0.00    +0.000 Cl
ENDBRANCH   2  12
TORSDOF 2
