REMARK  Name = *****
REMARK  2 active torsions:
REMARK  status: ('A' for Active; 'I' for Inactive)
REMARK    1  A    between atoms: C_4  and  C_6
REMARK    2  A    between atoms: C_7  and  C_8
REMARK                            x       y       z     vdW  Elec       q    Type
REMARK                         _______ _______ _______ _____ _____    ______ ____
ROOT
ATOM      1  C   UNL     1      -0.099  -2.677   0.041  0.00  0.00    +0.000 C 
ATOM      2  C   UNL     1       0.820  -3.649  -0.081  0.00  0.00    +0.000 C 
ENDROOT
BRANCH   2   3
ATOM      3  C   UNL     1       0.488  -5.081  -0.070  0.00  0.00    +0.000 A 
ATOM      4  C   UNL     1      -0.621  -5.594  -0.759  0.00  0.00    +0.000 A 
ATOM      5  C   UNL     1      -0.887  -6.966  -0.751  0.00  0.00    +0.000 A 
ATOM      6  C   UNL     1      -0.038  -7.825  -0.065  0.00  0.00    +0.000 A 
ATOM      7  C   UNL     1       1.075  -7.340   0.610  0.00  0.00    +0.000 A 
ATOM      8  C   UNL     1       1.341  -5.969   0.602  0.00  0.00    +0.000 A 
ATOM      9  F   UNL     1      -0.292  -9.140  -0.060  0.00  0.00    +0.000 F 
ENDBRANCH   2   3
BRANCH   1  13
ATOM     10  C   UNL     1       1.356   0.777  -0.052  0.00  0.00    +0.000 A 
ATOM     11  C   UNL     1       0.056   1.188   0.117  0.00  0.00    +0.000 A 
ATOM     12  S   UNL     1      -1.024  -0.129   0.217  0.00  0.00    +0.000 S 
ATOM     13  C   UNL     1       0.243  -1.291   0.034  0.00  0.00    +0.000 A 
ATOM     14  C   UNL     1       1.462  -0.645  -0.100  0.00  0.00    +0.000 A 
ENDBRANCH   1  13
TORSDOF 2
