REMARK  Name = *****
REMARK  5 active torsions:
REMARK  status: ('A' for Active; 'I' for Inactive)
REMARK    1  A    between atoms: C_1  and  O_2
REMARK    2  A    between atoms: O_2  and  C_3
REMARK    3  A    between atoms: C_8  and  C_9
REMARK    4  A    between atoms: C_9  and  P_10
REMARK    5  A    between atoms: P_10  and  C_11
REMARK                            x       y       z     vdW  Elec       q    Type
REMARK                         _______ _______ _______ _____ _____    ______ ____
ROOT
ATOM      1  C   UNL     1       4.880   1.486  -0.684  0.00  0.00    +0.000 C 
ENDROOT
BRANCH   1   7
ATOM      2  C   UNL     1       3.576   2.158   1.405  0.00  0.00    +0.000 A 
ATOM      3  C   UNL     1       3.116   1.858   2.692  0.00  0.00    +0.000 A 
ATOM      4  C   UNL     1       3.415   0.629   3.286  0.00  0.00    +0.000 A 
ATOM      5  C   UNL     1       4.177  -0.311   2.601  0.00  0.00    +0.000 A 
ATOM      6  C   UNL     1       4.642  -0.024   1.319  0.00  0.00    +0.000 A 
ATOM      7  C   UNL     1       4.346   1.208   0.701  0.00  0.00    +0.000 A 
BRANCH   2   9
ATOM      8  C   UNL     1       2.546   4.312   1.421  0.00  0.00    +0.000 C 
ATOM      9  O   UNL     1       3.333   3.338   0.749  0.00  0.00    +0.000 OA
ENDBRANCH   2   9
ENDBRANCH   1   7
BRANCH   1  10
ATOM     10  P   UNL     1       3.569   0.836  -1.796  0.00  0.00    +0.000 P 
ATOM     11  H   UNL     1       2.326   1.346  -1.478  0.00  0.00    +0.000 HD
BRANCH  10  12
ATOM     12  C   UNL     1       4.174   1.473  -3.386  0.00  0.00    +0.000 A 
ATOM     13  C   UNL     1       5.186   0.794  -4.078  0.00  0.00    +0.000 A 
ATOM     14  C   UNL     1       5.658   1.278  -5.301  0.00  0.00    +0.000 A 
ATOM     15  C   UNL     1       5.121   2.443  -5.844  0.00  0.00    +0.000 A 
ATOM     16  C   UNL     1       4.111   3.124  -5.167  0.00  0.00    +0.000 A 
ATOM     17  C   UNL     1       3.639   2.640  -3.944  0.00  0.00    +0.000 A 
ENDBRANCH  10  12
ENDBRANCH   1  10
TORSDOF 4
