REMARK  Name = *****
REMARK  5 active torsions:
REMARK  status: ('A' for Active; 'I' for Inactive)
REMARK    1  A    between atoms: C_1  and  C_2
REMARK    2  A    between atoms: C_3  and  C_17
REMARK    3  A    between atoms: N_6  and  C_7
REMARK    4  A    between atoms: C_7  and  C_8
REMARK    5  A    between atoms: N_15  and  C_16
REMARK                            x       y       z     vdW  Elec       q    Type
REMARK                         _______ _______ _______ _____ _____    ______ ____
ROOT
ATOM      1  C   UNL     1       1.308   0.228  -0.157  0.00  0.00    +0.000 C 
ATOM      2  C   UNL     1       2.743  -0.199  -0.107  0.00  0.00    +0.000 A 
ATOM      3  C   UNL     1       3.186  -1.468   0.027  0.00  0.00    +0.000 A 
ATOM      4  S   UNL     1       4.942  -1.526   0.075  0.00  0.00    +0.000 S 
ATOM      5  C   UNL     1       5.059   0.246  -0.073  0.00  0.00    +0.000 A 
ATOM      6  N   UNL     1       6.149   0.929  -0.062  0.00  0.00    +0.000 NA
ATOM      7  N   UNL     1       3.773   0.758  -0.193  0.00  0.00    +0.000 N 
ATOM      8  C   UNL     1       3.561   2.195  -0.228  0.00  0.00    +0.000 C 
ATOM      9  C   UNL     1       2.419  -2.742   0.136  0.00  0.00    +0.000 C 
ENDROOT
BRANCH   6  10
ATOM     10  C   UNL     1       7.431   0.233   0.082  0.00  0.00    +0.000 C 
BRANCH  10  11
ATOM     11  C   UNL     1       8.632   1.158   0.013  0.00  0.00    +0.000 A 
ATOM     12  C   UNL     1       8.495   2.499  -0.388  0.00  0.00    +0.000 A 
ATOM     13  C   UNL     1       9.602   3.347  -0.472  0.00  0.00    +0.000 A 
ATOM     14  C   UNL     1      10.872   2.869  -0.161  0.00  0.00    +0.000 A 
ATOM     15  C   UNL     1      11.033   1.540   0.229  0.00  0.00    +0.000 A 
ATOM     16  C   UNL     1       9.924   0.690   0.311  0.00  0.00    +0.000 A 
ATOM     17 CL   UNL     1      10.213  -0.949   0.782  0.00  0.00    +0.000 Cl
ENDBRANCH  10  11
ENDBRANCH   6  10
TORSDOF 2
