REMARK  Name = *****
REMARK  6 active torsions:
REMARK  status: ('A' for Active; 'I' for Inactive)
REMARK    1  A    between atoms: C_1  and  C_2
REMARK    2  A    between atoms: C_3  and  C_20
REMARK    3  A    between atoms: C_5  and  O_8
REMARK    4  A    between atoms: O_8  and  C_9
REMARK    5  A    between atoms: C_9  and  C_11
REMARK    6  A    between atoms: C_15  and  C_18
REMARK                            x       y       z     vdW  Elec       q    Type
REMARK                         _______ _______ _______ _____ _____    ______ ____
ROOT
ATOM      1  C   UNL     1      -4.263  -0.613   0.418  0.00  0.00    +0.000 C 
ATOM      2  O   UNL     1      -4.287   0.377   1.130  0.00  0.00    +0.000 OA
ENDROOT
BRANCH   1   3
ATOM      3  C   UNL     1      -5.426  -1.472   0.182  0.00  0.00    +0.000 A 
ATOM      4  C   UNL     1      -6.211  -1.873   1.256  0.00  0.00    +0.000 A 
ATOM      5  C   UNL     1      -7.326  -2.685   1.056  0.00  0.00    +0.000 A 
ATOM      6  C   UNL     1      -7.667  -3.095  -0.235  0.00  0.00    +0.000 A 
ATOM      7  C   UNL     1      -6.898  -2.682  -1.331  0.00  0.00    +0.000 A 
ATOM      8  C   UNL     1      -5.774  -1.874  -1.106  0.00  0.00    +0.000 A 
ATOM      9  F   UNL     1      -5.046  -1.475  -2.160  0.00  0.00    +0.000 F 
ATOM     10  C   UNL     1      -7.235  -3.131  -2.721  0.00  0.00    +0.000 C 
ATOM     11  F   UNL     1      -5.899  -1.519   2.510  0.00  0.00    +0.000 F 
ENDBRANCH   1   3
BRANCH   1  12
ATOM     12  O   UNL     1      -3.183  -1.170  -0.243  0.00  0.00    +0.000 OA
BRANCH  12  17
ATOM     13  C   UNL     1       1.937   1.334  -0.059  0.00  0.00    +0.000 C 
ATOM     14  C   UNL     1       0.589   0.666  -0.094  0.00  0.00    +0.000 A 
ATOM     15  C   UNL     1       0.446  -0.713   0.169  0.00  0.00    +0.000 A 
ATOM     16  C   UNL     1      -0.833  -1.290   0.127  0.00  0.00    +0.000 A 
ATOM     17  C   UNL     1      -1.949  -0.505  -0.160  0.00  0.00    +0.000 A 
ATOM     18  C   UNL     1      -1.814   0.849  -0.446  0.00  0.00    +0.000 A 
ATOM     19  C   UNL     1      -0.548   1.432  -0.402  0.00  0.00    +0.000 A 
ATOM     20  C   UNL     1       1.634  -1.579   0.488  0.00  0.00    +0.000 C 
ENDBRANCH  12  17
ENDBRANCH   1  12
TORSDOF 3
