REMARK  Name = *****
REMARK  5 active torsions:
REMARK  status: ('A' for Active; 'I' for Inactive)
REMARK    1  A    between atoms: C_1  and  C_2
REMARK    2  A    between atoms: C_4  and  C_10
REMARK    3  A    between atoms: C_5  and  C_8
REMARK    4  A    between atoms: C_10  and  C_11
REMARK    5  A    between atoms: C_11  and  C_12
REMARK                            x       y       z     vdW  Elec       q    Type
REMARK                         _______ _______ _______ _____ _____    ______ ____
ROOT
ATOM      1  C   UNL     1       0.866  -0.352  -0.481  0.00  0.00    +0.000 C 
ATOM      2  C   UNL     1       2.332  -0.120  -0.263  0.00  0.00    +0.000 A 
ATOM      3  C   UNL     1       2.897   1.135  -0.529  0.00  0.00    +0.000 A 
ATOM      4  C   UNL     1       4.276   1.363  -0.364  0.00  0.00    +0.000 A 
ATOM      5  C   UNL     1       5.092   0.304   0.078  0.00  0.00    +0.000 A 
ATOM      6  C   UNL     1       4.529  -0.954   0.328  0.00  0.00    +0.000 A 
ATOM      7  C   UNL     1       3.160  -1.166   0.152  0.00  0.00    +0.000 A 
ENDROOT
BRANCH   5   8
ATOM      8  C   UNL     1       6.503   0.476   0.287  0.00  0.00    +0.000 C 
ATOM      9  N   UNL     1       7.641   0.625   0.462  0.00  0.00    +0.000 NA
ENDBRANCH   5   8
BRANCH   4  10
ATOM     10  C   UNL     1       4.823   2.748  -0.642  0.00  0.00    +0.000 C 
BRANCH  10  11
ATOM     11  C   UNL     1       4.868   3.610   0.625  0.00  0.00    +0.000 C 
BRANCH  11  12
ATOM     12  C   UNL     1       5.473   4.955   0.349  0.00  0.00    +0.000 A 
ATOM     13  C   UNL     1       6.804   5.315   0.405  0.00  0.00    +0.000 A 
ATOM     14  C   UNL     1       7.007   6.686   0.075  0.00  0.00    +0.000 A 
ATOM     15  C   UNL     1       5.824   7.326  -0.220  0.00  0.00    +0.000 A 
ATOM     16  S   UNL     1       4.480   6.277  -0.099  0.00  0.00    +0.000 S 
ENDBRANCH  11  12
ENDBRANCH  10  11
ENDBRANCH   4  10
TORSDOF 4
