REMARK  Name = *****
REMARK  2 active torsions:
REMARK  status: ('A' for Active; 'I' for Inactive)
REMARK    1  A    between atoms: C_1  and  C_2
REMARK    2  A    between atoms: C_9  and  C_10
REMARK                            x       y       z     vdW  Elec       q    Type
REMARK                         _______ _______ _______ _____ _____    ______ ____
ROOT
ATOM      1  C   UNL     1       0.872  -0.240  -0.148  0.00  0.00    +0.000 C 
ATOM      2  C   UNL     1       2.362  -0.092  -0.046  0.00  0.00    +0.000 A 
ATOM      3  C   UNL     1       2.952   1.180  -0.079  0.00  0.00    +0.000 A 
ATOM      4  C   UNL     1       4.334   1.280  -0.015  0.00  0.00    +0.000 A 
ATOM      5  C   UNL     1       5.126   0.147   0.067  0.00  0.00    +0.000 A 
ATOM      6  C   UNL     1       6.558   0.539   0.119  0.00  0.00    +0.000 C 
ATOM      7  O   UNL     1       6.568   1.985   0.045  0.00  0.00    +0.000 OA
ATOM      8  C   UNL     1       5.244   2.414  -0.020  0.00  0.00    +0.000 C 
ATOM      9  C   UNL     1       4.882   3.706  -0.053  0.00  0.00    +0.000 C 
ATOM     10  C   UNL     1       4.571  -1.123   0.088  0.00  0.00    +0.000 A 
ATOM     11  C   UNL     1       3.180  -1.237   0.026  0.00  0.00    +0.000 A 
ENDROOT
BRANCH   9  12
ATOM     12  C   UNL     1       5.798   4.857  -0.046  0.00  0.00    +0.000 A 
ATOM     13  C   UNL     1       6.952   4.899  -0.838  0.00  0.00    +0.000 A 
ATOM     14  C   UNL     1       7.775   6.029  -0.836  0.00  0.00    +0.000 A 
ATOM     15  C   UNL     1       7.445   7.132  -0.052  0.00  0.00    +0.000 A 
ATOM     16  C   UNL     1       6.291   7.109   0.728  0.00  0.00    +0.000 A 
ATOM     17  C   UNL     1       5.468   5.979   0.726  0.00  0.00    +0.000 A 
ENDBRANCH   9  12
TORSDOF 1
