REMARK  Name = *****
REMARK  2 active torsions:
REMARK  status: ('A' for Active; 'I' for Inactive)
REMARK    1  A    between atoms: C_6  and  C_7
REMARK    2  A    between atoms: N_8  and  C_10
REMARK                            x       y       z     vdW  Elec       q    Type
REMARK                         _______ _______ _______ _____ _____    ______ ____
ROOT
ATOM      1  C   UNL     1       4.047   0.387  -0.044  0.00  0.00    +0.000 C 
ATOM      2  N   UNL     1       5.224   0.591   0.812  0.00  0.00    +0.000 N 
ATOM      3  O   UNL     1       4.729   1.641   0.052  0.00  0.00    +0.000 OA
ENDROOT
BRANCH   1   9
ATOM      4  C   UNL     1       2.235  -0.826   1.258  0.00  0.00    +0.000 A 
ATOM      5  C   UNL     1       0.932  -0.931   1.753  0.00  0.00    +0.000 A 
ATOM      6  C   UNL     1       0.009   0.074   1.483  0.00  0.00    +0.000 A 
ATOM      7  C   UNL     1       0.379   1.178   0.721  0.00  0.00    +0.000 A 
ATOM      8  C   UNL     1       1.685   1.277   0.232  0.00  0.00    +0.000 A 
ATOM      9  C   UNL     1       2.646   0.283   0.496  0.00  0.00    +0.000 A 
ATOM     10 CL   UNL     1      -1.596  -0.050   2.089  0.00  0.00    +0.000 Cl
ENDBRANCH   1   9
BRANCH   2  11
ATOM     11  C   UNL     1       5.111   0.702   2.221  0.00  0.00    +0.000 A 
ATOM     12  C   UNL     1       5.816  -0.224   3.006  0.00  0.00    +0.000 A 
ATOM     13  C   UNL     1       5.758  -0.176   4.402  0.00  0.00    +0.000 A 
ATOM     14  C   UNL     1       4.999   0.809   5.027  0.00  0.00    +0.000 A 
ATOM     15  C   UNL     1       4.306   1.749   4.268  0.00  0.00    +0.000 A 
ATOM     16  C   UNL     1       4.368   1.698   2.872  0.00  0.00    +0.000 A 
ATOM     17 CL   UNL     1       4.923   0.871   6.744  0.00  0.00    +0.000 Cl
ENDBRANCH   2  11
TORSDOF 2
