REMARK  Name = *****
REMARK  1 active torsions:
REMARK  status: ('A' for Active; 'I' for Inactive)
REMARK    1  A    between atoms: C_2  and  C_7
REMARK                            x       y       z     vdW  Elec       q    Type
REMARK                         _______ _______ _______ _____ _____    ______ ____
ROOT
ATOM      1  C   UNL     1       1.692  -2.660  -0.147  0.00  0.00    +0.000 A 
ATOM      2  N   UNL     1       1.743  -3.929   0.221  0.00  0.00    +0.000 NA
ATOM      3  C   UNL     1       0.740  -4.521  -0.504  0.00  0.00    +0.000 A 
ATOM      4  C   UNL     1       0.297  -5.848  -0.552  0.00  0.00    +0.000 A 
ATOM      5  C   UNL     1      -0.773  -6.158  -1.407  0.00  0.00    +0.000 A 
ATOM      6  C   UNL     1      -1.382  -5.170  -2.192  0.00  0.00    +0.000 A 
ATOM      7  C   UNL     1      -0.950  -3.838  -2.153  0.00  0.00    +0.000 A 
ATOM      8  C   UNL     1       0.110  -3.575  -1.295  0.00  0.00    +0.000 A 
ATOM      9  O   UNL     1       0.716  -2.374  -1.072  0.00  0.00    +0.000 OA
ENDROOT
BRANCH   1  11
ATOM     10  C   UNL     1       3.548  -1.768   1.227  0.00  0.00    +0.000 A 
ATOM     11  C   UNL     1       2.524  -1.542   0.294  0.00  0.00    +0.000 A 
ATOM     12  C   UNL     1       2.335  -0.238  -0.187  0.00  0.00    +0.000 A 
ATOM     13  C   UNL     1       3.147   0.811   0.254  0.00  0.00    +0.000 A 
ATOM     14  C   UNL     1       4.159   0.569   1.180  0.00  0.00    +0.000 A 
ATOM     15  C   UNL     1       4.361  -0.720   1.668  0.00  0.00    +0.000 A 
ENDBRANCH   1  11
TORSDOF 1
