REMARK  Name = *****
REMARK  3 active torsions:
REMARK  status: ('A' for Active; 'I' for Inactive)
REMARK    1  A    between atoms: C_2  and  N_3
REMARK    2  A    between atoms: N_3  and  C_4
REMARK    3  A    between atoms: C_10  and  C_12
REMARK                            x       y       z     vdW  Elec       q    Type
REMARK                         _______ _______ _______ _____ _____    ______ ____
ROOT
ATOM      1  N   UNL     1       3.774  -0.040  -0.138  0.00  0.00    +0.000 N 
ATOM      2  C   UNL     1       4.534  -0.722  -1.121  0.00  0.00    +0.000 C 
ATOM      3  O   UNL     1       5.759  -0.750  -1.233  0.00  0.00    +0.000 OA
ENDROOT
BRANCH   1   4
ATOM      4  C   UNL     1       4.404   0.948   0.725  0.00  0.00    +0.000 A 
ATOM      5  C   UNL     1       5.634   1.548   0.406  0.00  0.00    +0.000 A 
ATOM      6  C   UNL     1       6.221   2.511   1.238  0.00  0.00    +0.000 A 
ATOM      7  C   UNL     1       5.589   2.906   2.411  0.00  0.00    +0.000 A 
ATOM      8  C   UNL     1       4.366   2.341   2.749  0.00  0.00    +0.000 A 
ATOM      9  C   UNL     1       3.781   1.379   1.916  0.00  0.00    +0.000 A 
ENDBRANCH   1   4
BRANCH   2  10
ATOM     10  C   UNL     1       3.781  -1.546  -2.103  0.00  0.00    +0.000 A 
ATOM     11  C   UNL     1       2.795  -0.974  -2.917  0.00  0.00    +0.000 A 
ATOM     12  C   UNL     1       2.123  -1.765  -3.850  0.00  0.00    +0.000 A 
ATOM     13  C   UNL     1       2.446  -3.117  -3.980  0.00  0.00    +0.000 A 
ATOM     14  C   UNL     1       3.446  -3.681  -3.187  0.00  0.00    +0.000 A 
ATOM     15  C   UNL     1       4.121  -2.895  -2.252  0.00  0.00    +0.000 A 
ENDBRANCH   2  10
BRANCH   1  17
ATOM     16  C   UNL     1       1.293  -0.536   0.319  0.00  0.00    +0.000 C 
ATOM     17  C   UNL     1       2.452  -0.295   0.115  0.00  0.00    +0.000 C 
ENDBRANCH   1  17
TORSDOF 3
