REMARK  Name = *****
REMARK  6 active torsions:
REMARK  status: ('A' for Active; 'I' for Inactive)
REMARK    1  A    between atoms: C_1  and  C_2
REMARK    2  A    between atoms: C_3  and  C_19
REMARK    3  A    between atoms: C_5  and  C_8
REMARK    4  A    between atoms: C_8  and  C_10
REMARK    5  A    between atoms: C_10  and  C_11
REMARK    6  A    between atoms: C_11  and  C_12
REMARK                            x       y       z     vdW  Elec       q    Type
REMARK                         _______ _______ _______ _____ _____    ______ ____
ROOT
ATOM      1  C   UNL     1      -3.099  -1.519  -0.020  0.00  0.00    +0.000 C 
ATOM      2  O   UNL     1      -3.036  -2.746   0.044  0.00  0.00    +0.000 OA
ENDROOT
BRANCH   1   7
ATOM      3  C   UNL     1       1.883   1.489  -0.045  0.00  0.00    +0.000 C 
ATOM      4  C   UNL     1       0.604   0.698  -0.040  0.00  0.00    +0.000 A 
ATOM      5  C   UNL     1       0.610  -0.707   0.050  0.00  0.00    +0.000 A 
ATOM      6  C   UNL     1      -0.613  -1.401   0.050  0.00  0.00    +0.000 A 
ATOM      7  C   UNL     1      -1.835  -0.719  -0.026  0.00  0.00    +0.000 A 
ATOM      8  C   UNL     1      -1.833   0.675  -0.105  0.00  0.00    +0.000 A 
ATOM      9  C   UNL     1      -0.623   1.375  -0.111  0.00  0.00    +0.000 A 
ATOM     10  C   UNL     1       1.895  -1.485   0.130  0.00  0.00    +0.000 C 
ENDBRANCH   1   7
BRANCH   1  11
ATOM     11  C   UNL     1      -4.425  -0.784  -0.094  0.00  0.00    +0.000 C 
BRANCH  11  12
ATOM     12  C   UNL     1      -5.609  -1.751  -0.074  0.00  0.00    +0.000 C 
BRANCH  12  13
ATOM     13  C   UNL     1      -6.923  -1.013  -0.151  0.00  0.00    +0.000 A 
ATOM     14  C   UNL     1      -7.565  -0.583   1.019  0.00  0.00    +0.000 A 
ATOM     15  C   UNL     1      -8.768   0.119   0.939  0.00  0.00    +0.000 A 
ATOM     16  C   UNL     1      -9.342   0.403  -0.298  0.00  0.00    +0.000 A 
ATOM     17  C   UNL     1      -8.707  -0.018  -1.466  0.00  0.00    +0.000 A 
ATOM     18  C   UNL     1      -7.502  -0.720  -1.393  0.00  0.00    +0.000 A 
ATOM     19 CL   UNL     1      -9.548   0.643   2.382  0.00  0.00    +0.000 Cl
ENDBRANCH  12  13
ENDBRANCH  11  12
ENDBRANCH   1  11
TORSDOF 4
