REMARK  Name = *****
REMARK  1 active torsions:
REMARK  status: ('A' for Active; 'I' for Inactive)
REMARK    1  A    between atoms: C_4  and  N_7
REMARK                            x       y       z     vdW  Elec       q    Type
REMARK                         _______ _______ _______ _____ _____    ______ ____
ROOT
ATOM      1  N   UNL     1      -1.701  -1.072   0.817  0.00  0.00    +0.000 N 
ATOM      2  S   UNL     1      -1.448  -1.741   2.350  0.00  0.00    +0.000 S 
ATOM      3  C   UNL     1      -3.063  -2.447   2.475  0.00  0.00    +0.000 A 
ATOM      4  C   UNL     1      -3.598  -3.013   3.629  0.00  0.00    +0.000 A 
ATOM      5  C   UNL     1      -4.902  -3.513   3.601  0.00  0.00    +0.000 A 
ATOM      6  C   UNL     1      -5.661  -3.440   2.428  0.00  0.00    +0.000 A 
ATOM      7  C   UNL     1      -5.118  -2.872   1.274  0.00  0.00    +0.000 A 
ATOM      8  C   UNL     1      -3.814  -2.382   1.306  0.00  0.00    +0.000 A 
ATOM      9  S   UNL     1      -3.000  -1.663  -0.120  0.00  0.00    +0.000 S 
ATOM     10  O   UNL     1      -3.911  -0.571  -0.598  0.00  0.00    +0.000 OA
ENDROOT
BRANCH   1  14
ATOM     11  C   UNL     1       1.329   1.308  -1.047  0.00  0.00    +0.000 A 
ATOM     12  C   UNL     1       1.662   0.433  -0.021  0.00  0.00    +0.000 A 
ATOM     13  C   UNL     1       0.671  -0.344   0.592  0.00  0.00    +0.000 A 
ATOM     14  C   UNL     1      -0.682  -0.277   0.196  0.00  0.00    +0.000 A 
ATOM     15  C   UNL     1      -0.983   0.627  -0.842  0.00  0.00    +0.000 A 
ATOM     16  C   UNL     1       0.005   1.407  -1.456  0.00  0.00    +0.000 A 
ENDBRANCH   1  14
TORSDOF 1
