REMARK  Name = *****
REMARK  4 active torsions:
REMARK  status: ('A' for Active; 'I' for Inactive)
REMARK    1  A    between atoms: C_4  and  C_7
REMARK    2  A    between atoms: C_7  and  S_15
REMARK    3  A    between atoms: C_8  and  C_9
REMARK    4  A    between atoms: C_8  and  S_14
REMARK                            x       y       z     vdW  Elec       q    Type
REMARK                         _______ _______ _______ _____ _____    ______ ____
ROOT
ATOM      1  C   UNL     1      -2.875   0.391  -0.229  0.00  0.00    +0.000 C 
ATOM      2  C   UNL     1      -3.404   1.640  -0.221  0.00  0.00    +0.000 C 
ENDROOT
BRANCH   1   6
ATOM      3  C   UNL     1       1.309  -0.365   0.228  0.00  0.00    +0.000 A 
ATOM      4  C   UNL     1       0.488  -0.288   1.352  0.00  0.00    +0.000 A 
ATOM      5  C   UNL     1      -0.878  -0.046   1.204  0.00  0.00    +0.000 A 
ATOM      6  C   UNL     1      -1.432   0.119  -0.074  0.00  0.00    +0.000 A 
ATOM      7  C   UNL     1      -0.599   0.040  -1.199  0.00  0.00    +0.000 A 
ATOM      8  C   UNL     1       0.767  -0.202  -1.047  0.00  0.00    +0.000 A 
ENDBRANCH   1   6
BRANCH   2   9
ATOM      9  C   UNL     1      -4.812   1.854  -0.374  0.00  0.00    +0.000 A 
ATOM     10  C   UNL     1      -5.543   2.041  -1.537  0.00  0.00    +0.000 A 
ATOM     11  C   UNL     1      -6.934   2.233  -1.294  0.00  0.00    +0.000 A 
ATOM     12  C   UNL     1      -7.230   2.195   0.049  0.00  0.00    +0.000 A 
ATOM     13  S   UNL     1      -5.841   1.935   1.008  0.00  0.00    +0.000 S 
ENDBRANCH   2   9
BRANCH   2  14
ATOM     14  S   UNL     1      -2.463   3.112  -0.064  0.00  0.00    +0.000 S 
ATOM     15  H   UNL     1      -1.147   2.797   0.075  0.00  0.00    +0.000 HD
ENDBRANCH   2  14
BRANCH   1  16
ATOM     16  S   UNL     1      -3.819  -1.073  -0.426  0.00  0.00    +0.000 S 
ATOM     17  H   UNL     1      -2.993  -2.153  -0.388  0.00  0.00    +0.000 HD
ENDBRANCH   1  16
TORSDOF 4
