REMARK  Name = *****
REMARK  5 active torsions:
REMARK  status: ('A' for Active; 'I' for Inactive)
REMARK    1  A    between atoms: C_1  and  C_2
REMARK    2  A    between atoms: C_4  and  O_9
REMARK    3  A    between atoms: C_5  and  C_8
REMARK    4  A    between atoms: O_9  and  C_10
REMARK    5  A    between atoms: C_10  and  C_12
REMARK                            x       y       z     vdW  Elec       q    Type
REMARK                         _______ _______ _______ _____ _____    ______ ____
ROOT
ATOM      1  O   UNL     1      -1.238   2.526   0.219  0.00  0.00    +0.000 OA
ENDROOT
BRANCH   1   5
ATOM      2  C   UNL     1       2.601  -0.382   1.282  0.00  0.00    +0.000 C 
ATOM      3  C   UNL     1       1.314  -0.125   0.556  0.00  0.00    +0.000 A 
ATOM      4  C   UNL     1       0.649   1.096   0.703  0.00  0.00    +0.000 A 
ATOM      5  C   UNL     1      -0.555   1.317   0.030  0.00  0.00    +0.000 A 
ATOM      6  C   UNL     1      -1.150   0.324  -0.758  0.00  0.00    +0.000 A 
ATOM      7  C   UNL     1      -0.487  -0.901  -0.885  0.00  0.00    +0.000 A 
ATOM      8  C   UNL     1       0.731  -1.125  -0.233  0.00  0.00    +0.000 A 
ATOM      9  C   UNL     1      -2.459   0.561  -1.449  0.00  0.00    +0.000 C 
ENDBRANCH   1   5
BRANCH   1  10
ATOM     10  C   UNL     1      -0.641   3.629  -0.383  0.00  0.00    +0.000 C 
ATOM     11  O   UNL     1       0.384   3.634  -1.051  0.00  0.00    +0.000 OA
BRANCH  10  12
ATOM     12  C   UNL     1      -1.495   4.855  -0.110  0.00  0.00    +0.000 C 
ATOM     13  C   UNL     1      -2.331   5.180  -1.351  0.00  0.00    +0.000 C 
ATOM     14  C   UNL     1      -3.146   6.457  -1.160  0.00  0.00    +0.000 C 
ATOM     15  C   UNL     1      -2.265   7.633  -0.747  0.00  0.00    +0.000 C 
ATOM     16  C   UNL     1      -1.437   7.309   0.493  0.00  0.00    +0.000 C 
ATOM     17  C   UNL     1      -0.612   6.039   0.300  0.00  0.00    +0.000 C 
ENDBRANCH  10  12
ENDBRANCH   1  10
TORSDOF 3
