REMARK  Name = *****
REMARK  4 active torsions:
REMARK  status: ('A' for Active; 'I' for Inactive)
REMARK    1  A    between atoms: C_1  and  C_2
REMARK    2  A    between atoms: C_3  and  C_15
REMARK    3  A    between atoms: C_5  and  C_7
REMARK    4  A    between atoms: C_8  and  C_9
REMARK                            x       y       z     vdW  Elec       q    Type
REMARK                         _______ _______ _______ _____ _____    ______ ____
ROOT
ATOM      1  C   UNL     1       2.215   0.071  -0.057  0.00  0.00    +0.000 C 
ATOM      2  C   UNL     1       0.744   0.136  -0.038  0.00  0.00    +0.000 A 
ATOM      3  C   UNL     1      -0.188   1.148  -0.005  0.00  0.00    +0.000 A 
ATOM      4  N   UNL     1      -1.451   0.593  -0.001  0.00  0.00    +0.000 NA
ATOM      5  C   UNL     1      -1.271  -0.723  -0.009  0.00  0.00    +0.000 A 
ATOM      6  O   UNL     1       0.073  -1.050  -0.037  0.00  0.00    +0.000 OA
ENDROOT
BRANCH   5   7
ATOM      7  C   UNL     1      -2.276  -1.729   0.004  0.00  0.00    +0.000 C 
ATOM      8  C   UNL     1      -3.580  -1.412   0.041  0.00  0.00    +0.000 C 
BRANCH   8   9
ATOM      9  C   UNL     1      -4.667  -2.401   0.045  0.00  0.00    +0.000 A 
ATOM     10  C   UNL     1      -4.579  -3.610   0.748  0.00  0.00    +0.000 A 
ATOM     11  C   UNL     1      -5.648  -4.511   0.750  0.00  0.00    +0.000 A 
ATOM     12  C   UNL     1      -6.818  -4.207   0.057  0.00  0.00    +0.000 A 
ATOM     13  C   UNL     1      -6.923  -3.001  -0.632  0.00  0.00    +0.000 A 
ATOM     14  C   UNL     1      -5.856  -2.101  -0.633  0.00  0.00    +0.000 A 
ENDBRANCH   8   9
ENDBRANCH   5   7
BRANCH   3  15
ATOM     15  C   UNL     1       0.005   2.616  -0.005  0.00  0.00    +0.000 C 
ATOM     16 CL   UNL     1       0.761   3.132   1.519  0.00  0.00    +0.000 Cl
ENDBRANCH   3  15
TORSDOF 3
