REMARK  Name = *****
REMARK  3 active torsions:
REMARK  status: ('A' for Active; 'I' for Inactive)
REMARK    1  A    between atoms: C_5  and  C_7
REMARK    2  A    between atoms: C_7  and  S_8
REMARK    3  A    between atoms: S_8  and  C_10
REMARK                            x       y       z     vdW  Elec       q    Type
REMARK                         _______ _______ _______ _____ _____    ______ ____
ROOT
ATOM      1  S   UNL     1      -2.485  -2.020  -0.409  0.00  0.00    +0.000 S 
ATOM      2  O   UNL     1      -2.848  -1.484  -1.765  0.00  0.00    +0.000 OA
ENDROOT
BRANCH   1   3
ATOM      3  C   UNL     1      -3.039  -3.741  -0.401  0.00  0.00    +0.000 A 
ATOM      4  C   UNL     1      -3.013  -4.469   0.795  0.00  0.00    +0.000 A 
ATOM      5  C   UNL     1      -3.440  -5.800   0.817  0.00  0.00    +0.000 A 
ATOM      6  C   UNL     1      -3.899  -6.400  -0.354  0.00  0.00    +0.000 A 
ATOM      7  C   UNL     1      -3.939  -5.680  -1.547  0.00  0.00    +0.000 A 
ATOM      8  C   UNL     1      -3.511  -4.350  -1.569  0.00  0.00    +0.000 A 
ATOM      9 CL   UNL     1      -4.424  -8.038  -0.326  0.00  0.00    +0.000 Cl
ENDBRANCH   1   3
BRANCH   1  10
ATOM     10  C   UNL     1      -0.691  -2.365  -0.420  0.00  0.00    +0.000 C 
BRANCH  10  15
ATOM     11  C   UNL     1       1.300   0.764  -1.266  0.00  0.00    +0.000 A 
ATOM     12  C   UNL     1       1.592   1.280  -0.007  0.00  0.00    +0.000 A 
ATOM     13  C   UNL     1       1.142   0.620   1.136  0.00  0.00    +0.000 A 
ATOM     14  C   UNL     1       0.404  -0.562   1.020  0.00  0.00    +0.000 A 
ATOM     15  C   UNL     1       0.114  -1.103  -0.243  0.00  0.00    +0.000 A 
ATOM     16  C   UNL     1       0.564  -0.416  -1.384  0.00  0.00    +0.000 A 
ATOM     17 CL   UNL     1      -0.138  -1.315   2.478  0.00  0.00    +0.000 Cl
ENDBRANCH  10  15
ENDBRANCH   1  10
TORSDOF 3
