REMARK  Name = *****
REMARK  3 active torsions:
REMARK  status: ('A' for Active; 'I' for Inactive)
REMARK    1  A    between atoms: C_4  and  C_7
REMARK    2  A    between atoms: C_7  and  S_8
REMARK    3  A    between atoms: S_8  and  C_9
REMARK                            x       y       z     vdW  Elec       q    Type
REMARK                         _______ _______ _______ _____ _____    ______ ____
ROOT
ATOM      1  C   UNL     1      -2.842   0.171  -0.160  0.00  0.00    +0.000 C 
ENDROOT
BRANCH   1   5
ATOM      2  C   UNL     1       1.486  -0.055   0.056  0.00  0.00    +0.000 A 
ATOM      3  C   UNL     1       0.749  -1.235   0.043  0.00  0.00    +0.000 A 
ATOM      4  C   UNL     1      -0.647  -1.194  -0.025  0.00  0.00    +0.000 A 
ATOM      5  C   UNL     1      -1.332   0.030  -0.081  0.00  0.00    +0.000 A 
ATOM      6  C   UNL     1      -0.567   1.212  -0.065  0.00  0.00    +0.000 A 
ATOM      7  C   UNL     1       0.828   1.170   0.003  0.00  0.00    +0.000 A 
ENDBRANCH   1   5
BRANCH   1   8
ATOM      8  S   UNL     1      -3.801  -1.365  -0.188  0.00  0.00    +0.000 S 
BRANCH   8   9
ATOM      9  C   UNL     1      -5.484  -0.856  -0.321  0.00  0.00    +0.000 A 
ATOM     10  C   UNL     1      -6.589  -1.697  -0.405  0.00  0.00    +0.000 A 
ATOM     11  N   UNL     1      -7.819  -1.064  -0.502  0.00  0.00    +0.000 NA
ATOM     12  C   UNL     1      -7.642   0.235  -0.491  0.00  0.00    +0.000 A 
ATOM     13  S   UNL     1      -6.025   0.775  -0.365  0.00  0.00    +0.000 S 
ATOM     14 CL   UNL     1      -6.548  -3.415  -0.396  0.00  0.00    +0.000 Cl
ENDBRANCH   8   9
ENDBRANCH   1   8
TORSDOF 3
