REMARK  Name = *****
REMARK  4 active torsions:
REMARK  status: ('A' for Active; 'I' for Inactive)
REMARK    1  A    between atoms: C_1  and  C_2
REMARK    2  A    between atoms: C_7  and  C_8
REMARK    3  A    between atoms: C_8  and  S_10
REMARK    4  A    between atoms: S_10  and  C_11
REMARK                            x       y       z     vdW  Elec       q    Type
REMARK                         _______ _______ _______ _____ _____    ______ ____
ROOT
ATOM      1  C   UNL     1       1.460  -2.004   0.578  0.00  0.00    +0.000 C 
ATOM      2  O   UNL     1       1.195  -2.723   1.533  0.00  0.00    +0.000 OA
ENDROOT
BRANCH   1   9
ATOM      3  C   UNL     1       2.170   0.923   0.793  0.00  0.00    +0.000 C 
ATOM      4  C   UNL     1       0.852   0.434   0.262  0.00  0.00    +0.000 A 
ATOM      5  C   UNL     1      -0.094   1.373  -0.179  0.00  0.00    +0.000 A 
ATOM      6  C   UNL     1      -1.340   0.964  -0.659  0.00  0.00    +0.000 A 
ATOM      7  C   UNL     1      -1.663  -0.389  -0.709  0.00  0.00    +0.000 A 
ATOM      8  C   UNL     1      -0.733  -1.339  -0.293  0.00  0.00    +0.000 A 
ATOM      9  C   UNL     1       0.528  -0.933   0.168  0.00  0.00    +0.000 A 
ENDBRANCH   1   9
BRANCH   1  10
ATOM     10  S   UNL     1       2.860  -2.221  -0.465  0.00  0.00    +0.000 S 
BRANCH  10  11
ATOM     11  C   UNL     1       3.899  -3.300   0.499  0.00  0.00    +0.000 A 
ATOM     12  C   UNL     1       4.333  -4.507  -0.059  0.00  0.00    +0.000 A 
ATOM     13  C   UNL     1       5.179  -5.355   0.660  0.00  0.00    +0.000 A 
ATOM     14  C   UNL     1       5.603  -4.998   1.938  0.00  0.00    +0.000 A 
ATOM     15  C   UNL     1       5.184  -3.792   2.498  0.00  0.00    +0.000 A 
ATOM     16  C   UNL     1       4.339  -2.943   1.778  0.00  0.00    +0.000 A 
ENDBRANCH  10  11
ENDBRANCH   1  10
TORSDOF 3
