REMARK  Name = *****
REMARK  4 active torsions:
REMARK  status: ('A' for Active; 'I' for Inactive)
REMARK    1  A    between atoms: C_1  and  C_2
REMARK    2  A    between atoms: C_5  and  O_7
REMARK    3  A    between atoms: O_7  and  C_8
REMARK    4  A    between atoms: C_8  and  C_10
REMARK                            x       y       z     vdW  Elec       q    Type
REMARK                         _______ _______ _______ _____ _____    ______ ____
ROOT
ATOM      1  C   UNL     1      -4.083  -0.455  -0.106  0.00  0.00    +0.000 C 
ATOM      2  O   UNL     1      -4.112  -1.659  -0.313  0.00  0.00    +0.000 OA
ENDROOT
BRANCH   1   3
ATOM      3  C   UNL     1      -5.318   0.382  -0.126  0.00  0.00    +0.000 A 
ATOM      4  C   UNL     1      -5.316   1.746   0.201  0.00  0.00    +0.000 A 
ATOM      5  C   UNL     1      -6.503   2.482   0.155  0.00  0.00    +0.000 A 
ATOM      6  C   UNL     1      -7.697   1.863  -0.215  0.00  0.00    +0.000 A 
ATOM      7  C   UNL     1      -7.709   0.507  -0.537  0.00  0.00    +0.000 A 
ATOM      8  C   UNL     1      -6.525  -0.232  -0.492  0.00  0.00    +0.000 A 
ENDBRANCH   1   3
BRANCH   1   9
ATOM      9  O   UNL     1      -3.017   0.321   0.151  0.00  0.00    +0.000 OA
BRANCH   9  14
ATOM     10  C   UNL     1       2.117   0.128   0.701  0.00  0.00    +0.000 C 
ATOM     11  C   UNL     1       0.697  -0.227   0.426  0.00  0.00    +0.000 A 
ATOM     12  C   UNL     1       0.181  -1.428  -0.007  0.00  0.00    +0.000 A 
ATOM     13  C   UNL     1      -1.236  -1.381  -0.159  0.00  0.00    +0.000 A 
ATOM     14  C   UNL     1      -1.777  -0.150   0.163  0.00  0.00    +0.000 A 
ATOM     15  S   UNL     1      -0.532   0.938   0.642  0.00  0.00    +0.000 S 
ENDBRANCH   9  14
ENDBRANCH   1   9
TORSDOF 3
