REMARK  Name = *****
REMARK  4 active torsions:
REMARK  status: ('A' for Active; 'I' for Inactive)
REMARK    1  A    between atoms: C_4  and  O_7
REMARK    2  A    between atoms: O_7  and  C_8
REMARK    3  A    between atoms: C_8  and  O_10
REMARK    4  A    between atoms: O_10  and  C_11
REMARK                            x       y       z     vdW  Elec       q    Type
REMARK                         _______ _______ _______ _____ _____    ______ ____
ROOT
ATOM      1  C   UNL     1       3.297  -1.976   0.424  0.00  0.00    +0.000 C 
ATOM      2  S   UNL     1       2.922  -2.813   1.799  0.00  0.00    +0.000 S 
ENDROOT
BRANCH   1   3
ATOM      3  O   UNL     1       2.732  -0.828  -0.011  0.00  0.00    +0.000 OA
BRANCH   3   7
ATOM      4  C   UNL     1      -0.097   2.230   0.799  0.00  0.00    +0.000 C 
ATOM      5  C   UNL     1      -0.602   0.790   0.723  0.00  0.00    +0.000 C 
ATOM      6  C   UNL     1       0.417  -0.132   0.059  0.00  0.00    +0.000 C 
ATOM      7  C   UNL     1       1.778  -0.050   0.751  0.00  0.00    +0.000 C 
ATOM      8  C   UNL     1       2.283   1.395   0.785  0.00  0.00    +0.000 C 
ATOM      9  C   UNL     1       1.276   2.319   1.460  0.00  0.00    +0.000 C 
ENDBRANCH   3   7
ENDBRANCH   1   3
BRANCH   1  10
ATOM     10  O   UNL     1       4.270  -2.470  -0.373  0.00  0.00    +0.000 OA
BRANCH  10  11
ATOM     11  C   UNL     1       4.637  -1.930  -1.666  0.00  0.00    +0.000 C 
ATOM     12  C   UNL     1       5.222  -0.515  -1.598  0.00  0.00    +0.000 C 
ATOM     13  C   UNL     1       5.629  -0.016  -2.982  0.00  0.00    +0.000 C 
ATOM     14  C   UNL     1       4.484  -0.135  -3.986  0.00  0.00    +0.000 C 
ATOM     15  C   UNL     1       3.946  -1.562  -4.064  0.00  0.00    +0.000 C 
ATOM     16  C   UNL     1       3.511  -2.073  -2.693  0.00  0.00    +0.000 C 
ENDBRANCH  10  11
ENDBRANCH   1  10
TORSDOF 4
