REMARK  Name = *****
REMARK  6 active torsions:
REMARK  status: ('A' for Active; 'I' for Inactive)
REMARK    1  A    between atoms: C_1  and  C_2
REMARK    2  A    between atoms: C_3  and  C_9
REMARK    3  A    between atoms: C_4  and  C_8
REMARK    4  A    between atoms: C_9  and  C_10
REMARK    5  A    between atoms: C_10  and  C_11
REMARK    6  A    between atoms: C_11  and  C_13
REMARK                            x       y       z     vdW  Elec       q    Type
REMARK                         _______ _______ _______ _____ _____    ______ ____
ROOT
ATOM      1  C   UNL     1       0.092   2.530  -0.103  0.00  0.00    +0.000 C 
ENDROOT
BRANCH   1   4
ATOM      2  C   UNL     1       0.081   0.955   2.441  0.00  0.00    +0.000 C 
ATOM      3  C   UNL     1       0.145   0.280   1.095  0.00  0.00    +0.000 A 
ATOM      4  C   UNL     1       0.122   1.011  -0.119  0.00  0.00    +0.000 A 
ATOM      5  C   UNL     1       0.157   0.308  -1.350  0.00  0.00    +0.000 A 
ATOM      6  C   UNL     1       0.203  -1.095  -1.346  0.00  0.00    +0.000 A 
ATOM      7  C   UNL     1       0.223  -1.805  -0.151  0.00  0.00    +0.000 A 
ATOM      8  C   UNL     1       0.192  -1.123   1.060  0.00  0.00    +0.000 A 
ATOM      9  C   UNL     1       0.106   1.013  -2.680  0.00  0.00    +0.000 C 
ENDBRANCH   1   4
BRANCH   1  10
ATOM     10  C   UNL     1       1.502   3.120  -0.087  0.00  0.00    +0.000 C 
BRANCH  10  11
ATOM     11  C   UNL     1       1.484   4.640  -0.064  0.00  0.00    +0.000 C 
ATOM     12  O   UNL     1       0.436   5.278  -0.157  0.00  0.00    +0.000 OA
BRANCH  11  13
ATOM     13  C   UNL     1       2.839   5.323   0.100  0.00  0.00    +0.000 C 
ATOM     14  C   UNL     1       2.745   6.839   0.302  0.00  0.00    +0.000 C 
ATOM     15  C   UNL     1       4.047   7.365  -0.279  0.00  0.00    +0.000 C 
ATOM     16  C   UNL     1       4.217   6.525  -1.532  0.00  0.00    +0.000 C 
ATOM     17  C   UNL     1       3.739   5.132  -1.130  0.00  0.00    +0.000 C 
ENDBRANCH  11  13
ENDBRANCH  10  11
ENDBRANCH   1  10
TORSDOF 4
