REMARK  Name = *****
REMARK  3 active torsions:
REMARK  status: ('A' for Active; 'I' for Inactive)
REMARK    1  A    between atoms: C_4  and  C_7
REMARK    2  A    between atoms: C_7  and  O_9
REMARK    3  A    between atoms: O_9  and  C_10
REMARK                            x       y       z     vdW  Elec       q    Type
REMARK                         _______ _______ _______ _____ _____    ______ ____
ROOT
ATOM      1  C   UNL     1      -2.711   0.179   0.418  0.00  0.00    +0.000 C 
ATOM      2  O   UNL     1      -3.354   1.185   0.159  0.00  0.00    +0.000 OA
ENDROOT
BRANCH   1   6
ATOM      3  C   UNL     1       1.460  -0.128  -0.544  0.00  0.00    +0.000 A 
ATOM      4  C   UNL     1       0.818  -1.214   0.050  0.00  0.00    +0.000 A 
ATOM      5  C   UNL     1      -0.540  -1.137   0.371  0.00  0.00    +0.000 A 
ATOM      6  C   UNL     1      -1.263   0.033   0.098  0.00  0.00    +0.000 A 
ATOM      7  C   UNL     1      -0.609   1.120  -0.500  0.00  0.00    +0.000 A 
ATOM      8  C   UNL     1       0.748   1.039  -0.819  0.00  0.00    +0.000 A 
ENDBRANCH   1   6
BRANCH   1   9
ATOM      9  O   UNL     1      -3.173  -0.973   1.030  0.00  0.00    +0.000 OA
BRANCH   9  10
ATOM     10  C   UNL     1      -4.521  -0.952   1.407  0.00  0.00    +0.000 A 
ATOM     11  C   UNL     1      -4.978  -0.075   2.393  0.00  0.00    +0.000 A 
ATOM     12  C   UNL     1      -6.316  -0.127   2.781  0.00  0.00    +0.000 A 
ATOM     13  C   UNL     1      -7.166  -1.060   2.193  0.00  0.00    +0.000 A 
ATOM     14  C   UNL     1      -6.703  -1.948   1.225  0.00  0.00    +0.000 A 
ATOM     15  C   UNL     1      -5.367  -1.901   0.831  0.00  0.00    +0.000 A 
ATOM     16  F   UNL     1      -8.450  -1.111   2.571  0.00  0.00    +0.000 F 
ENDBRANCH   9  10
ENDBRANCH   1   9
TORSDOF 3
