REMARK  Name = *****
REMARK  3 active torsions:
REMARK  status: ('A' for Active; 'I' for Inactive)
REMARK    1  A    between atoms: C_2  and  C_3
REMARK    2  A    between atoms: C_6  and  C_9
REMARK    3  A    between atoms: C_10  and  C_11
REMARK                            x       y       z     vdW  Elec       q    Type
REMARK                         _______ _______ _______ _____ _____    ______ ____
ROOT
ATOM      1  C   UNL     1      -0.524  -0.005  -0.036  0.00  0.00    +0.000 A 
ATOM      2  C   UNL     1       0.149  -1.216   0.124  0.00  0.00    +0.000 A 
ATOM      3  C   UNL     1       1.544  -1.235   0.236  0.00  0.00    +0.000 A 
ATOM      4  C   UNL     1       2.279  -0.043   0.179  0.00  0.00    +0.000 A 
ATOM      5  C   UNL     1       1.592   1.169   0.036  0.00  0.00    +0.000 A 
ATOM      6  C   UNL     1       0.198   1.188  -0.077  0.00  0.00    +0.000 A 
ENDROOT
BRANCH   1   8
ATOM      7  C   UNL     1      -3.147   0.030  -0.245  0.00  0.00    +0.000 C 
ATOM      8  C   UNL     1      -1.950   0.014  -0.150  0.00  0.00    +0.000 C 
ENDBRANCH   1   8
BRANCH   4   9
ATOM      9  C   UNL     1       3.742  -0.018   0.326  0.00  0.00    +0.000 C 
ATOM     10  C   UNL     1       4.558  -0.916  -0.249  0.00  0.00    +0.000 C 
BRANCH  10  11
ATOM     11  C   UNL     1       5.977  -0.874  -0.100  0.00  0.00    +0.000 A 
ATOM     12  C   UNL     1       6.798  -0.004   0.601  0.00  0.00    +0.000 A 
ATOM     13  C   UNL     1       8.185  -0.320   0.489  0.00  0.00    +0.000 A 
ATOM     14  C   UNL     1       8.395  -1.427  -0.296  0.00  0.00    +0.000 A 
ATOM     15  S   UNL     1       6.934  -2.076  -0.891  0.00  0.00    +0.000 S 
ENDBRANCH  10  11
ENDBRANCH   4   9
TORSDOF 3
