REMARK  Name = *****
REMARK  2 active torsions:
REMARK  status: ('A' for Active; 'I' for Inactive)
REMARK    1  A    between atoms: C_6  and  S_7
REMARK    2  A    between atoms: S_7  and  C_8
REMARK                            x       y       z     vdW  Elec       q    Type
REMARK                         _______ _______ _______ _____ _____    ______ ____
ROOT
ATOM      1  S   UNL     1      -1.311   2.495  -0.889  0.00  0.00    +0.000 S 
ENDROOT
BRANCH   1   7
ATOM      2  C   UNL     1      -1.054  -0.208  -1.137  0.00  0.00    +0.000 C 
ATOM      3  C   UNL     1      -0.645  -1.575  -0.588  0.00  0.00    +0.000 C 
ATOM      4  C   UNL     1      -1.293  -1.840   0.769  0.00  0.00    +0.000 C 
ATOM      5  C   UNL     1      -0.971  -0.727   1.765  0.00  0.00    +0.000 C 
ATOM      6  C   UNL     1      -1.371   0.646   1.220  0.00  0.00    +0.000 C 
ATOM      7  C   UNL     1      -0.729   0.920  -0.145  0.00  0.00    +0.000 C 
ATOM      8 CL   UNL     1      -0.733  -3.408   1.413  0.00  0.00    +0.000 Cl
ENDBRANCH   1   7
BRANCH   1   9
ATOM      9  C   UNL     1      -0.788   3.748   0.361  0.00  0.00    +0.000 C 
ATOM     10  C   UNL     1      -1.303   5.130  -0.079  0.00  0.00    +0.000 C 
ATOM     11  C   UNL     1      -0.540   5.718  -1.272  0.00  0.00    +0.000 C 
ATOM     12  C   UNL     1       0.976   5.723  -1.071  0.00  0.00    +0.000 C 
ATOM     13  C   UNL     1       1.498   4.356  -0.620  0.00  0.00    +0.000 C 
ATOM     14  C   UNL     1       0.730   3.793   0.580  0.00  0.00    +0.000 C 
ATOM     15 CL   UNL     1       1.434   6.981   0.124  0.00  0.00    +0.000 Cl
ENDBRANCH   1   9
TORSDOF 2
