REMARK  Name = *****
REMARK  2 active torsions:
REMARK  status: ('A' for Active; 'I' for Inactive)
REMARK    1  A    between atoms: C_2  and  C_11
REMARK    2  A    between atoms: C_11  and  C_12
REMARK                            x       y       z     vdW  Elec       q    Type
REMARK                         _______ _______ _______ _____ _____    ______ ____
ROOT
ATOM      1  C   UNL     1      -2.179  -0.368   0.383  0.00  0.00    +0.000 C 
ATOM      2  C   UNL     1      -1.192  -1.512   0.103  0.00  0.00    +0.000 C 
ATOM      3  C   UNL     1       0.064  -0.706   0.072  0.00  0.00    +0.000 A 
ATOM      4  C   UNL     1      -0.265   0.633  -0.087  0.00  0.00    +0.000 A 
ATOM      5  O   UNL     1      -1.614   0.869  -0.114  0.00  0.00    +0.000 OA
ATOM      6  C   UNL     1       0.695   1.616  -0.225  0.00  0.00    +0.000 A 
ATOM      7  C   UNL     1       2.036   1.228  -0.186  0.00  0.00    +0.000 A 
ATOM      8  C   UNL     1       2.376  -0.125  -0.025  0.00  0.00    +0.000 A 
ATOM      9  C   UNL     1       1.390  -1.107   0.097  0.00  0.00    +0.000 A 
ATOM     10 CL   UNL     1       4.037  -0.581   0.008  0.00  0.00    +0.000 Cl
ENDROOT
BRANCH   2  11
ATOM     11  C   UNL     1      -1.239  -2.636   1.141  0.00  0.00    +0.000 C 
ATOM     12  F   UNL     1      -0.312  -3.578   0.776  0.00  0.00    +0.000 F 
BRANCH  11  13
ATOM     13  C   UNL     1      -2.614  -3.260   1.254  0.00  0.00    +0.000 A 
ATOM     14  C   UNL     1      -3.059  -4.165   0.279  0.00  0.00    +0.000 A 
ATOM     15  C   UNL     1      -4.334  -4.727   0.363  0.00  0.00    +0.000 A 
ATOM     16  C   UNL     1      -5.175  -4.391   1.422  0.00  0.00    +0.000 A 
ATOM     17  C   UNL     1      -4.741  -3.499   2.400  0.00  0.00    +0.000 A 
ATOM     18  C   UNL     1      -3.467  -2.936   2.319  0.00  0.00    +0.000 A 
ENDBRANCH  11  13
ENDBRANCH   2  11
TORSDOF 2
