REMARK  Name = *****
REMARK  3 active torsions:
REMARK  status: ('A' for Active; 'I' for Inactive)
REMARK    1  A    between atoms: C_1  and  C_2
REMARK    2  A    between atoms: C_7  and  C_8
REMARK    3  A    between atoms: C_8  and  N_9
REMARK                            x       y       z     vdW  Elec       q    Type
REMARK                         _______ _______ _______ _____ _____    ______ ____
ROOT
ATOM      1  N   UNL     1       2.348  -2.801   0.129  0.00  0.00    +0.000 N 
ATOM      2  C   UNL     1       3.096  -2.573   1.304  0.00  0.00    +0.000 A 
ATOM      3  C   UNL     1       2.616  -2.135   2.531  0.00  0.00    +0.000 A 
ATOM      4  C   UNL     1       3.520  -1.968   3.586  0.00  0.00    +0.000 A 
ATOM      5  C   UNL     1       4.884  -2.238   3.408  0.00  0.00    +0.000 A 
ATOM      6  C   UNL     1       5.362  -2.676   2.173  0.00  0.00    +0.000 A 
ATOM      7  C   UNL     1       4.456  -2.837   1.135  0.00  0.00    +0.000 A 
ATOM      8  S   UNL     1       4.796  -3.375  -0.514  0.00  0.00    +0.000 S 
ATOM      9  C   UNL     1       3.086  -3.241  -0.960  0.00  0.00    +0.000 A 
ATOM     10  O   UNL     1       2.673  -3.508  -2.078  0.00  0.00    +0.000 OA
ENDROOT
BRANCH   1  11
ATOM     11  C   UNL     1       0.911  -2.616   0.042  0.00  0.00    +0.000 C 
BRANCH  11  18
ATOM     12  C   UNL     1      -1.529  -1.701   1.560  0.00  0.00    +0.000 C 
ATOM     13  C   UNL     1      -0.689  -0.744   0.757  0.00  0.00    +0.000 A 
ATOM     14  C   UNL     1      -1.065   0.609   0.720  0.00  0.00    +0.000 A 
ATOM     15  C   UNL     1      -0.338   1.536  -0.025  0.00  0.00    +0.000 A 
ATOM     16  C   UNL     1       0.772   1.122  -0.750  0.00  0.00    +0.000 A 
ATOM     17  C   UNL     1       1.164  -0.216  -0.719  0.00  0.00    +0.000 A 
ATOM     18  C   UNL     1       0.462  -1.164   0.051  0.00  0.00    +0.000 A 
ENDBRANCH  11  18
ENDBRANCH   1  11
TORSDOF 2
