REMARK  Name = *****
REMARK  6 active torsions:
REMARK  status: ('A' for Active; 'I' for Inactive)
REMARK    1  A    between atoms: C_1  and  C_2
REMARK    2  A    between atoms: C_7  and  C_8
REMARK    3  A    between atoms: C_8  and  C_9
REMARK    4  A    between atoms: C_8  and  O_10
REMARK    5  A    between atoms: O_10  and  C_11
REMARK    6  A    between atoms: C_11  and  C_13
REMARK                            x       y       z     vdW  Elec       q    Type
REMARK                         _______ _______ _______ _____ _____    ______ ____
ROOT
ATOM      1  C   UNL     1       1.029  -2.339   0.124  0.00  0.00    +0.000 C 
ATOM      2  C   UNL     1       0.380  -3.377  -0.790  0.00  0.00    +0.000 C 
ENDROOT
BRANCH   1   9
ATOM      3  C   UNL     1      -0.978  -1.488   2.216  0.00  0.00    +0.000 C 
ATOM      4  C   UNL     1      -0.668  -0.629   1.019  0.00  0.00    +0.000 A 
ATOM      5  C   UNL     1      -1.335   0.601   0.886  0.00  0.00    +0.000 A 
ATOM      6  C   UNL     1      -1.089   1.437  -0.203  0.00  0.00    +0.000 A 
ATOM      7  C   UNL     1      -0.174   1.055  -1.176  0.00  0.00    +0.000 A 
ATOM      8  C   UNL     1       0.501  -0.159  -1.055  0.00  0.00    +0.000 A 
ATOM      9  C   UNL     1       0.278  -1.015   0.043  0.00  0.00    +0.000 A 
ENDBRANCH   1   9
BRANCH   1  10
ATOM     10  O   UNL     1       2.393  -2.116  -0.287  0.00  0.00    +0.000 OA
BRANCH  10  11
ATOM     11  C   UNL     1       3.306  -2.999   0.182  0.00  0.00    +0.000 C 
ATOM     12  O   UNL     1       3.073  -3.967   0.889  0.00  0.00    +0.000 OA
BRANCH  11  13
ATOM     13  C   UNL     1       4.669  -2.642  -0.297  0.00  0.00    +0.000 A 
ATOM     14  C   UNL     1       5.730  -3.498   0.028  0.00  0.00    +0.000 A 
ATOM     15  C   UNL     1       7.028  -3.206  -0.398  0.00  0.00    +0.000 A 
ATOM     16  C   UNL     1       7.273  -2.058  -1.150  0.00  0.00    +0.000 A 
ATOM     17  C   UNL     1       6.223  -1.200  -1.476  0.00  0.00    +0.000 A 
ATOM     18  C   UNL     1       4.924  -1.488  -1.052  0.00  0.00    +0.000 A 
ENDBRANCH  11  13
ENDBRANCH  10  11
ENDBRANCH   1  10
TORSDOF 4
