REMARK  Name = *****
REMARK  2 active torsions:
REMARK  status: ('A' for Active; 'I' for Inactive)
REMARK    1  A    between atoms: C_4  and  C_7
REMARK    2  A    between atoms: C_8  and  C_10
REMARK                            x       y       z     vdW  Elec       q    Type
REMARK                         _______ _______ _______ _____ _____    ______ ____
ROOT
ATOM      1  C   UNL     1      -2.494   0.496   0.142  0.00  0.00    +0.000 C 
ATOM      2  C   UNL     1      -3.769   0.391   0.967  0.00  0.00    +0.000 C 
ATOM      3  O   UNL     1      -3.594  -0.335  -0.261  0.00  0.00    +0.000 OA
ENDROOT
BRANCH   2   4
ATOM      4  C   UNL     1      -3.774  -0.405   2.254  0.00  0.00    +0.000 A 
ATOM      5  C   UNL     1      -3.331   0.130   3.480  0.00  0.00    +0.000 A 
ATOM      6  C   UNL     1      -3.351  -0.619   4.661  0.00  0.00    +0.000 A 
ATOM      7  C   UNL     1      -3.823  -1.926   4.637  0.00  0.00    +0.000 A 
ATOM      8  C   UNL     1      -4.276  -2.486   3.448  0.00  0.00    +0.000 A 
ATOM      9  C   UNL     1      -4.252  -1.730   2.273  0.00  0.00    +0.000 A 
ATOM     10 CL   UNL     1      -3.851  -2.853   6.086  0.00  0.00    +0.000 Cl
ATOM     11 CL   UNL     1      -2.745   1.755   3.574  0.00  0.00    +0.000 Cl
ENDBRANCH   2   4
BRANCH   1  15
ATOM     12  C   UNL     1      -1.696   4.089  -2.150  0.00  0.00    +0.000 A 
ATOM     13  C   UNL     1      -1.404   4.044  -0.790  0.00  0.00    +0.000 A 
ATOM     14  C   UNL     1      -1.666   2.884  -0.056  0.00  0.00    +0.000 A 
ATOM     15  C   UNL     1      -2.225   1.745  -0.660  0.00  0.00    +0.000 A 
ATOM     16  C   UNL     1      -2.503   1.815  -2.035  0.00  0.00    +0.000 A 
ATOM     17  C   UNL     1      -2.245   2.973  -2.774  0.00  0.00    +0.000 A 
ENDBRANCH   1  15
TORSDOF 2
