REMARK  Name = *****
REMARK  5 active torsions:
REMARK  status: ('A' for Active; 'I' for Inactive)
REMARK    1  A    between atoms: C_3  and  C_17
REMARK    2  A    between atoms: C_6  and  C_7
REMARK    3  A    between atoms: C_7  and  C_8
REMARK    4  A    between atoms: C_8  and  C_9
REMARK    5  A    between atoms: C_12  and  C_15
REMARK                            x       y       z     vdW  Elec       q    Type
REMARK                         _______ _______ _______ _____ _____    ______ ____
ROOT
ATOM      1  C   UNL     1       3.826  -0.066   0.159  0.00  0.00    +0.000 C 
ENDROOT
BRANCH   1   7
ATOM      2  C   UNL     1       1.651  -0.116  -1.128  0.00  0.00    +0.000 A 
ATOM      3  C   UNL     1       0.255  -0.146  -1.177  0.00  0.00    +0.000 A 
ATOM      4  C   UNL     1      -0.489  -0.140   0.006  0.00  0.00    +0.000 A 
ATOM      5  C   UNL     1       0.169  -0.106   1.239  0.00  0.00    +0.000 A 
ATOM      6  C   UNL     1       1.565  -0.075   1.288  0.00  0.00    +0.000 A 
ATOM      7  C   UNL     1       2.317  -0.075   0.105  0.00  0.00    +0.000 A 
BRANCH   4   8
ATOM      8  C   UNL     1      -1.922  -0.173  -0.045  0.00  0.00    +0.000 C 
ATOM      9  N   UNL     1      -3.081  -0.201  -0.086  0.00  0.00    +0.000 NA
ENDBRANCH   4   8
ENDBRANCH   1   7
BRANCH   1  10
ATOM     10  C   UNL     1       4.396  -1.486   0.210  0.00  0.00    +0.000 C 
BRANCH  10  11
ATOM     11  C   UNL     1       5.905  -1.480   0.263  0.00  0.00    +0.000 A 
ATOM     12  C   UNL     1       6.571  -1.442   1.495  0.00  0.00    +0.000 A 
ATOM     13  C   UNL     1       7.968  -1.421   1.545  0.00  0.00    +0.000 A 
ATOM     14  C   UNL     1       8.712  -1.432   0.361  0.00  0.00    +0.000 A 
ATOM     15  C   UNL     1       8.053  -1.462  -0.871  0.00  0.00    +0.000 A 
ATOM     16  C   UNL     1       6.656  -1.484  -0.920  0.00  0.00    +0.000 A 
BRANCH  14  17
ATOM     17  C   UNL     1      10.144  -1.411   0.411  0.00  0.00    +0.000 C 
ATOM     18  N   UNL     1      11.304  -1.393   0.452  0.00  0.00    +0.000 NA
ENDBRANCH  14  17
ENDBRANCH  10  11
ENDBRANCH   1  10
TORSDOF 5
