REMARK  Name = *****
REMARK  5 active torsions:
REMARK  status: ('A' for Active; 'I' for Inactive)
REMARK    1  A    between atoms: C_2  and  C_3
REMARK    2  A    between atoms: C_3  and  O_4
REMARK    3  A    between atoms: O_4  and  C_5
REMARK    4  A    between atoms: C_5  and  C_13
REMARK    5  A    between atoms: N_6  and  C_7
REMARK                            x       y       z     vdW  Elec       q    Type
REMARK                         _______ _______ _______ _____ _____    ______ ____
ROOT
ATOM      1  C   UNL     1       5.256   2.080   1.195  0.00  0.00    +0.000 C 
ATOM      2  N   UNL     1       4.911   2.838   2.189  0.00  0.00    +0.000 NA
ENDROOT
BRANCH   2   3
ATOM      3  C   UNL     1       3.567   3.024   2.533  0.00  0.00    +0.000 A 
ATOM      4  C   UNL     1       2.784   1.970   3.014  0.00  0.00    +0.000 A 
ATOM      5  C   UNL     1       1.453   2.184   3.377  0.00  0.00    +0.000 A 
ATOM      6  C   UNL     1       0.901   3.460   3.275  0.00  0.00    +0.000 A 
ATOM      7  C   UNL     1       1.681   4.522   2.821  0.00  0.00    +0.000 A 
ATOM      8  C   UNL     1       3.012   4.304   2.460  0.00  0.00    +0.000 A 
ENDBRANCH   2   3
BRANCH   1   9
ATOM      9  C   UNL     1       6.680   1.750   0.903  0.00  0.00    +0.000 A 
ATOM     10  C   UNL     1       7.048   0.923  -0.167  0.00  0.00    +0.000 A 
ATOM     11  C   UNL     1       8.396   0.640  -0.409  0.00  0.00    +0.000 A 
ATOM     12  C   UNL     1       9.382   1.180   0.415  0.00  0.00    +0.000 A 
ATOM     13  C   UNL     1       9.026   2.003   1.481  0.00  0.00    +0.000 A 
ATOM     14  C   UNL     1       7.680   2.288   1.725  0.00  0.00    +0.000 A 
ENDBRANCH   1   9
BRANCH   1  15
ATOM     15  O   UNL     1       4.427   1.457   0.321  0.00  0.00    +0.000 OA
BRANCH  15  16
ATOM     16  C   UNL     1       3.533   2.303  -0.416  0.00  0.00    +0.000 C 
BRANCH  16  18
ATOM     17  C   UNL     1       3.858   2.538  -2.899  0.00  0.00    +0.000 C 
ATOM     18  C   UNL     1       3.521   1.805  -1.830  0.00  0.00    +0.000 C 
ENDBRANCH  16  18
ENDBRANCH  15  16
ENDBRANCH   1  15
TORSDOF 5
