REMARK  Name = *****
REMARK  4 active torsions:
REMARK  status: ('A' for Active; 'I' for Inactive)
REMARK    1  A    between atoms: C_4  and  N_7
REMARK    2  A    between atoms: N_7  and  C_8
REMARK    3  A    between atoms: C_8  and  C_10
REMARK    4  A    between atoms: C_10  and  C_11
REMARK                            x       y       z     vdW  Elec       q    Type
REMARK                         _______ _______ _______ _____ _____    ______ ____
ROOT
ATOM      1  C   UNL     1       3.749  -1.658   1.237  0.00  0.00    +0.000 C 
ATOM      2  S   UNL     1       3.073  -2.634   2.421  0.00  0.00    +0.000 S 
ENDROOT
BRANCH   1   3
ATOM      3  N   UNL     1       3.081  -0.686   0.511  0.00  0.00    +0.000 N 
ATOM      4  H   UNL     1       3.635  -0.096  -0.049  0.00  0.00    +0.000 HD
BRANCH   3   8
ATOM      5  C   UNL     1      -0.813   0.394  -0.951  0.00  0.00    +0.000 C 
ATOM      6  C   UNL     1      -0.543  -1.075  -0.638  0.00  0.00    +0.000 C 
ATOM      7  C   UNL     1       0.952  -1.364  -0.530  0.00  0.00    +0.000 C 
ATOM      8  C   UNL     1       1.635  -0.442   0.489  0.00  0.00    +0.000 C 
ATOM      9  C   UNL     1       1.362   1.031   0.159  0.00  0.00    +0.000 C 
ATOM     10  C   UNL     1      -0.133   1.317   0.056  0.00  0.00    +0.000 C 
ENDBRANCH   3   8
ENDBRANCH   1   3
BRANCH   1  11
ATOM     11  C   UNL     1       5.243  -1.749   0.929  0.00  0.00    +0.000 C 
BRANCH  11  12
ATOM     12  C   UNL     1       5.530  -2.076  -0.521  0.00  0.00    +0.000 A 
ATOM     13  C   UNL     1       6.178  -1.148  -1.347  0.00  0.00    +0.000 A 
ATOM     14  C   UNL     1       6.431  -1.449  -2.686  0.00  0.00    +0.000 A 
ATOM     15  C   UNL     1       6.044  -2.681  -3.210  0.00  0.00    +0.000 A 
ATOM     16  C   UNL     1       5.405  -3.614  -2.396  0.00  0.00    +0.000 A 
ATOM     17  C   UNL     1       5.150  -3.315  -1.057  0.00  0.00    +0.000 A 
ENDBRANCH  11  12
ENDBRANCH   1  11
TORSDOF 4
