REMARK  Name = *****
REMARK  3 active torsions:
REMARK  status: ('A' for Active; 'I' for Inactive)
REMARK    1  A    between atoms: C_4  and  C_7
REMARK    2  A    between atoms: C_7  and  S_9
REMARK    3  A    between atoms: S_9  and  C_10
REMARK                            x       y       z     vdW  Elec       q    Type
REMARK                         _______ _______ _______ _____ _____    ______ ____
ROOT
ATOM      1  C   UNL     1      -2.881   0.281  -0.069  0.00  0.00    +0.000 C 
ATOM      2  O   UNL     1      -3.372   1.377   0.173  0.00  0.00    +0.000 OA
ENDROOT
BRANCH   1   6
ATOM      3  C   UNL     1       1.388  -0.152  -0.022  0.00  0.00    +0.000 A 
ATOM      4  C   UNL     1       0.590  -1.272   0.208  0.00  0.00    +0.000 A 
ATOM      5  C   UNL     1      -0.802  -1.155   0.194  0.00  0.00    +0.000 A 
ATOM      6  C   UNL     1      -1.404   0.087  -0.054  0.00  0.00    +0.000 A 
ATOM      7  C   UNL     1      -0.592   1.210  -0.267  0.00  0.00    +0.000 A 
ATOM      8  C   UNL     1       0.799   1.089  -0.257  0.00  0.00    +0.000 A 
ENDBRANCH   1   6
BRANCH   1   9
ATOM      9  S   UNL     1      -3.878  -1.098  -0.513  0.00  0.00    +0.000 S 
BRANCH   9  10
ATOM     10  C   UNL     1      -5.093  -1.147   0.791  0.00  0.00    +0.000 A 
ATOM     11  C   UNL     1      -6.392  -1.562   0.470  0.00  0.00    +0.000 A 
ATOM     12  C   UNL     1      -7.369  -1.679   1.462  0.00  0.00    +0.000 A 
ATOM     13  C   UNL     1      -7.048  -1.385   2.785  0.00  0.00    +0.000 A 
ATOM     14  C   UNL     1      -5.760  -0.974   3.121  0.00  0.00    +0.000 A 
ATOM     15  C   UNL     1      -4.784  -0.861   2.126  0.00  0.00    +0.000 A 
ATOM     16 BR   UNL     1      -8.362  -1.554   4.132  0.00  0.00    +0.000 Br
ENDBRANCH   9  10
ENDBRANCH   1   9
TORSDOF 3
