REMARK  Name = *****
REMARK  4 active torsions:
REMARK  status: ('A' for Active; 'I' for Inactive)
REMARK    1  A    between atoms: C_4  and  C_7
REMARK    2  A    between atoms: C_7  and  C_8
REMARK    3  A    between atoms: C_8  and  C_9
REMARK    4  A    between atoms: C_12  and  N_15
REMARK                            x       y       z     vdW  Elec       q    Type
REMARK                         _______ _______ _______ _____ _____    ______ ____
ROOT
ATOM      1  C   UNL     1      -5.055  -0.283  -0.803  0.00  0.00    +0.000 A 
ATOM      2  C   UNL     1      -5.554   0.671  -1.699  0.00  0.00    +0.000 A 
ATOM      3  C   UNL     1      -6.922   0.955  -1.741  0.00  0.00    +0.000 A 
ATOM      4  C   UNL     1      -7.816   0.282  -0.899  0.00  0.00    +0.000 A 
ATOM      5  C   UNL     1      -7.311  -0.651   0.014  0.00  0.00    +0.000 A 
ATOM      6  C   UNL     1      -5.943  -0.936   0.060  0.00  0.00    +0.000 A 
ENDROOT
BRANCH   4   7
ATOM      7  N   UNL     1      -9.186   0.589  -0.919  0.00  0.00    +0.000 NA
ATOM      8  C   UNL     1      -9.770  -0.070  -1.696  0.00  0.00    +0.000 C 
ATOM      9  O   UNL     1     -10.364  -0.724  -2.473  0.00  0.00    +0.000 OA
ENDBRANCH   4   7
BRANCH   1  10
ATOM     10  C   UNL     1      -3.575  -0.577  -0.745  0.00  0.00    +0.000 C 
BRANCH  10  11
ATOM     11  C   UNL     1      -2.814   0.487   0.052  0.00  0.00    +0.000 C 
BRANCH  11  15
ATOM     12  C   UNL     1       1.382  -0.471   0.335  0.00  0.00    +0.000 A 
ATOM     13  C   UNL     1       0.876   0.113  -0.825  0.00  0.00    +0.000 A 
ATOM     14  C   UNL     1      -0.480   0.428  -0.915  0.00  0.00    +0.000 A 
ATOM     15  C   UNL     1      -1.344   0.163   0.156  0.00  0.00    +0.000 A 
ATOM     16  C   UNL     1      -0.827  -0.428   1.316  0.00  0.00    +0.000 A 
ATOM     17  C   UNL     1       0.531  -0.741   1.405  0.00  0.00    +0.000 A 
ENDBRANCH  11  15
ENDBRANCH  10  11
ENDBRANCH   1  10
TORSDOF 4
