REMARK  Name = *****
REMARK  3 active torsions:
REMARK  status: ('A' for Active; 'I' for Inactive)
REMARK    1  A    between atoms: C_4  and  C_7
REMARK    2  A    between atoms: C_7  and  O_9
REMARK    3  A    between atoms: O_9  and  C_10
REMARK                            x       y       z     vdW  Elec       q    Type
REMARK                         _______ _______ _______ _____ _____    ______ ____
ROOT
ATOM      1  C   UNL     1       2.165  -1.193  -0.975  0.00  0.00    +0.000 C 
ATOM      2  O   UNL     1       2.847  -0.501  -1.719  0.00  0.00    +0.000 OA
ENDROOT
BRANCH   1   6
ATOM      3  C   UNL     1      -1.400   0.933   0.339  0.00  0.00    +0.000 C 
ATOM      4  C   UNL     1      -1.467  -0.586   0.208  0.00  0.00    +0.000 C 
ATOM      5  C   UNL     1      -0.312  -1.133  -0.626  0.00  0.00    +0.000 C 
ATOM      6  C   UNL     1       1.046  -0.679  -0.082  0.00  0.00    +0.000 C 
ATOM      7  C   UNL     1       1.104   0.849   0.043  0.00  0.00    +0.000 C 
ATOM      8  C   UNL     1      -0.050   1.389   0.883  0.00  0.00    +0.000 C 
ENDBRANCH   1   6
BRANCH   1   9
ATOM      9  O   UNL     1       2.282  -2.570  -0.794  0.00  0.00    +0.000 OA
BRANCH   9  10
ATOM     10  C   UNL     1       3.268  -3.168  -1.583  0.00  0.00    +0.000 A 
ATOM     11  C   UNL     1       3.060  -3.353  -2.949  0.00  0.00    +0.000 A 
ATOM     12  C   UNL     1       4.043  -3.999  -3.695  0.00  0.00    +0.000 A 
ATOM     13  C   UNL     1       5.206  -4.469  -3.082  0.00  0.00    +0.000 A 
ATOM     14  C   UNL     1       5.391  -4.296  -1.707  0.00  0.00    +0.000 A 
ATOM     15  C   UNL     1       4.414  -3.649  -0.951  0.00  0.00    +0.000 A 
ATOM     16 CL   UNL     1       3.817  -4.232  -5.385  0.00  0.00    +0.000 Cl
ENDBRANCH   9  10
ENDBRANCH   1   9
TORSDOF 3
