REMARK  Name = *****
REMARK  5 active torsions:
REMARK  status: ('A' for Active; 'I' for Inactive)
REMARK    1  A    between atoms: C_1  and  C_2
REMARK    2  A    between atoms: C_2  and  N_3
REMARK    3  A    between atoms: N_3  and  C_4
REMARK    4  A    between atoms: C_8  and  C_10
REMARK    5  A    between atoms: C_11  and  C_13
REMARK                            x       y       z     vdW  Elec       q    Type
REMARK                         _______ _______ _______ _____ _____    ______ ____
ROOT
ATOM      1  N   UNL     1       3.176   1.400  -0.580  0.00  0.00    +0.000 N 
ATOM      2  C   UNL     1       4.488   1.416  -1.099  0.00  0.00    +0.000 C 
ATOM      3  O   UNL     1       4.952   2.225  -1.901  0.00  0.00    +0.000 OA
ENDROOT
BRANCH   2   4
ATOM      4  C   UNL     1       5.466   0.429  -0.614  0.00  0.00    +0.000 A 
ATOM      5  C   UNL     1       5.354  -0.910  -0.980  0.00  0.00    +0.000 A 
ATOM      6  C   UNL     1       6.308  -1.822  -0.549  0.00  0.00    +0.000 A 
ATOM      7  C   UNL     1       7.380  -1.393   0.227  0.00  0.00    +0.000 A 
ATOM      8  C   UNL     1       7.516  -0.051   0.575  0.00  0.00    +0.000 A 
ATOM      9  C   UNL     1       6.559   0.871   0.146  0.00  0.00    +0.000 A 
ATOM     10  F   UNL     1       8.300  -2.272   0.647  0.00  0.00    +0.000 F 
ATOM     11  F   UNL     1       6.196  -3.116  -0.880  0.00  0.00    +0.000 F 
ATOM     12  F   UNL     1       4.336  -1.328  -1.745  0.00  0.00    +0.000 F 
ENDBRANCH   2   4
BRANCH   1  13
ATOM     13  C   UNL     1       2.133   2.206  -1.188  0.00  0.00    +0.000 A 
ATOM     14  C   UNL     1       0.967   2.560  -0.490  0.00  0.00    +0.000 A 
ATOM     15  C   UNL     1      -0.046   3.319  -1.090  0.00  0.00    +0.000 A 
ATOM     16  C   UNL     1       0.079   3.739  -2.408  0.00  0.00    +0.000 A 
ATOM     17  C   UNL     1       1.222   3.408  -3.135  0.00  0.00    +0.000 A 
ATOM     18  C   UNL     1       2.225   2.633  -2.524  0.00  0.00    +0.000 A 
ATOM     19  C   UNL     1       1.355   3.812  -4.574  0.00  0.00    +0.000 C 
ENDBRANCH   1  13
BRANCH   1  21
ATOM     20  C   UNL     1       1.926  -0.535   0.408  0.00  0.00    +0.000 C 
ATOM     21  C   UNL     1       2.851   0.652   0.651  0.00  0.00    +0.000 C 
ENDBRANCH   1  21
TORSDOF 3
