REMARK  Name = *****
REMARK  4 active torsions:
REMARK  status: ('A' for Active; 'I' for Inactive)
REMARK    1  A    between atoms: C_5  and  S_7
REMARK    2  A    between atoms: S_7  and  C_8
REMARK    3  A    between atoms: C_8  and  C_9
REMARK    4  A    between atoms: C_12  and  C_15
REMARK                            x       y       z     vdW  Elec       q    Type
REMARK                         _______ _______ _______ _____ _____    ______ ____
ROOT
ATOM      1  C   UNL     1      -1.004  -5.370   0.036  0.00  0.00    +0.000 A 
ATOM      2  C   UNL     1      -1.615  -5.938  -1.091  0.00  0.00    +0.000 A 
ATOM      3  C   UNL     1      -2.267  -7.170  -1.000  0.00  0.00    +0.000 A 
ATOM      4  C   UNL     1      -2.330  -7.855   0.222  0.00  0.00    +0.000 A 
ATOM      5  C   UNL     1      -1.719  -7.286   1.349  0.00  0.00    +0.000 A 
ATOM      6  C   UNL     1      -1.068  -6.053   1.258  0.00  0.00    +0.000 A 
ENDROOT
BRANCH   4   7
ATOM      7  C   UNL     1      -3.016  -9.195   0.326  0.00  0.00    +0.000 C 
ATOM      8  F   UNL     1      -3.872  -9.448  -0.703  0.00  0.00    +0.000 F 
ATOM      9  F   UNL     1      -2.131 -10.230   0.337  0.00  0.00    +0.000 F 
ATOM     10  F   UNL     1      -3.755  -9.325   1.463  0.00  0.00    +0.000 F 
ENDBRANCH   4   7
BRANCH   1  11
ATOM     11  C   UNL     1      -0.312  -4.031  -0.060  0.00  0.00    +0.000 C 
BRANCH  11  12
ATOM     12  S   UNL     1      -1.495  -2.663   0.154  0.00  0.00    +0.000 S 
BRANCH  12  17
ATOM     13  C   UNL     1      -0.110   1.102  -0.269  0.00  0.00    +0.000 A 
ATOM     14  C   UNL     1       1.259   0.891  -0.373  0.00  0.00    +0.000 A 
ATOM     15  C   UNL     1       1.723  -0.412  -0.312  0.00  0.00    +0.000 A 
ATOM     16  N   UNL     1       0.923  -1.491  -0.159  0.00  0.00    +0.000 NA
ATOM     17  C   UNL     1      -0.406  -1.267  -0.059  0.00  0.00    +0.000 A 
ATOM     18  C   UNL     1      -0.957   0.009  -0.107  0.00  0.00    +0.000 A 
ENDBRANCH  12  17
ENDBRANCH  11  12
ENDBRANCH   1  11
TORSDOF 4
