REMARK  Name = *****
REMARK  2 active torsions:
REMARK  status: ('A' for Active; 'I' for Inactive)
REMARK    1  A    between atoms: C_4  and  C_7
REMARK    2  A    between atoms: C_7  and  C_8
REMARK                            x       y       z     vdW  Elec       q    Type
REMARK                         _______ _______ _______ _____ _____    ______ ____
ROOT
ATOM      1  C   UNL     1      -0.011  -4.140   0.718  0.00  0.00    +0.000 C 
ATOM      2  C   UNL     1      -0.159  -4.812   1.874  0.00  0.00    +0.000 C 
ATOM      3  C   UNL     1      -1.198  -5.891   1.735  0.00  0.00    +0.000 C 
ATOM      4  C   UNL     1      -2.001  -5.365   0.542  0.00  0.00    +0.000 C 
ATOM      5  C   UNL     1      -0.937  -4.700  -0.338  0.00  0.00    +0.000 C 
ATOM      6  C   UNL     1      -0.229  -5.689  -1.230  0.00  0.00    +0.000 C 
ATOM      7  C   UNL     1       0.118  -6.955  -0.941  0.00  0.00    +0.000 C 
ATOM      8  C   UNL     1      -0.034  -7.670   0.311  0.00  0.00    +0.000 C 
ATOM      9  C   UNL     1      -0.562  -7.231   1.468  0.00  0.00    +0.000 C 
ENDROOT
BRANCH   1  10
ATOM     10  C   UNL     1       0.958  -3.040   0.428  0.00  0.00    +0.000 C 
BRANCH  10  14
ATOM     11  C   UNL     1      -0.665   0.976  -0.236  0.00  0.00    +0.000 C 
ATOM     12  C   UNL     1      -1.281   0.143   0.881  0.00  0.00    +0.000 C 
ATOM     13  C   UNL     1      -0.355  -1.004   1.295  0.00  0.00    +0.000 C 
ATOM     14  C   UNL     1       0.273  -1.726   0.124  0.00  0.00    +0.000 C 
ATOM     15  C   UNL     1       0.251  -1.209  -1.119  0.00  0.00    +0.000 C 
ATOM     16  C   UNL     1      -0.367   0.115  -1.463  0.00  0.00    +0.000 C 
ENDBRANCH  10  14
ENDBRANCH   1  10
TORSDOF 2
