REMARK  Name = *****
REMARK  3 active torsions:
REMARK  status: ('A' for Active; 'I' for Inactive)
REMARK    1  A    between atoms: C_5  and  C_7
REMARK    2  A    between atoms: C_7  and  O_8
REMARK    3  A    between atoms: O_8  and  C_9
REMARK                            x       y       z     vdW  Elec       q    Type
REMARK                         _______ _______ _______ _____ _____    ______ ____
ROOT
ATOM      1  C   UNL     1      -2.683  -3.506   0.035  0.00  0.00    +0.000 A 
ATOM      2  C   UNL     1      -3.970  -3.409   0.581  0.00  0.00    +0.000 A 
ATOM      3  C   UNL     1      -4.860  -4.477   0.524  0.00  0.00    +0.000 A 
ATOM      4  C   UNL     1      -4.478  -5.664  -0.082  0.00  0.00    +0.000 A 
ATOM      5  C   UNL     1      -3.208  -5.779  -0.627  0.00  0.00    +0.000 A 
ATOM      6  C   UNL     1      -2.315  -4.710  -0.571  0.00  0.00    +0.000 A 
ATOM      7  F   UNL     1      -1.100  -4.873  -1.112  0.00  0.00    +0.000 F 
ATOM      8  F   UNL     1      -2.835  -6.926  -1.213  0.00  0.00    +0.000 F 
ATOM      9  F   UNL     1      -5.331  -6.695  -0.139  0.00  0.00    +0.000 F 
ATOM     10  F   UNL     1      -6.085  -4.359   1.053  0.00  0.00    +0.000 F 
ATOM     11  F   UNL     1      -4.359  -2.268   1.171  0.00  0.00    +0.000 F 
ENDROOT
BRANCH   1  12
ATOM     12  O   UNL     1      -1.915  -2.381   0.162  0.00  0.00    +0.000 OA
BRANCH  12  13
ATOM     13  C   UNL     1      -0.597  -2.397  -0.394  0.00  0.00    +0.000 C 
BRANCH  13  18
ATOM     14  C   UNL     1       0.158   1.197   0.718  0.00  0.00    +0.000 A 
ATOM     15  C   UNL     1       1.439   1.386   0.209  0.00  0.00    +0.000 A 
ATOM     16  C   UNL     1       2.063   0.356  -0.492  0.00  0.00    +0.000 A 
ATOM     17  C   UNL     1       1.404  -0.862  -0.686  0.00  0.00    +0.000 A 
ATOM     18  C   UNL     1       0.108  -1.071  -0.181  0.00  0.00    +0.000 A 
ATOM     19  C   UNL     1      -0.502  -0.019   0.526  0.00  0.00    +0.000 A 
ATOM     20 CL   UNL     1       2.244  -2.094  -1.563  0.00  0.00    +0.000 Cl
ENDBRANCH  13  18
ENDBRANCH  12  13
ENDBRANCH   1  12
TORSDOF 3
