REMARK  Name = *****
REMARK  2 active torsions:
REMARK  status: ('A' for Active; 'I' for Inactive)
REMARK    1  A    between atoms: C_5  and  C_6
REMARK    2  A    between atoms: C_7  and  C_8
REMARK                            x       y       z     vdW  Elec       q    Type
REMARK                         _______ _______ _______ _____ _____    ______ ____
ROOT
ATOM      1  C   UNL     1      -1.475   2.961  -0.158  0.00  0.00    +0.000 C 
ATOM      2  C   UNL     1      -1.471   4.304  -0.204  0.00  0.00    +0.000 C 
ENDROOT
BRANCH   1   7
ATOM      3  C   UNL     1       0.835  -1.583   0.229  0.00  0.00    +0.000 C 
ATOM      4  C   UNL     1      -0.548  -1.764  -0.372  0.00  0.00    +0.000 C 
ATOM      5  S   UNL     1      -1.504  -0.259  -0.018  0.00  0.00    +0.000 S 
ATOM      6  C   UNL     1      -0.154   0.834  -0.152  0.00  0.00    +0.000 C 
ATOM      7  C   UNL     1      -0.258   2.173  -0.200  0.00  0.00    +0.000 C 
ATOM      8  S   UNL     1       1.420   0.079  -0.221  0.00  0.00    +0.000 S 
ENDBRANCH   1   7
BRANCH   2   9
ATOM      9  C   UNL     1      -2.687   5.130  -0.170  0.00  0.00    +0.000 A 
ATOM     10  C   UNL     1      -3.788   4.810   0.635  0.00  0.00    +0.000 A 
ATOM     11  C   UNL     1      -4.914   5.637   0.662  0.00  0.00    +0.000 A 
ATOM     12  C   UNL     1      -4.946   6.798  -0.107  0.00  0.00    +0.000 A 
ATOM     13  C   UNL     1      -3.851   7.136  -0.899  0.00  0.00    +0.000 A 
ATOM     14  C   UNL     1      -2.725   6.309  -0.926  0.00  0.00    +0.000 A 
ENDBRANCH   2   9
TORSDOF 2
