REMARK  Name = *****
REMARK  3 active torsions:
REMARK  status: ('A' for Active; 'I' for Inactive)
REMARK    1  A    between atoms: C_4  and  S_7
REMARK    2  A    between atoms: S_7  and  S_8
REMARK    3  A    between atoms: S_8  and  C_11
REMARK                            x       y       z     vdW  Elec       q    Type
REMARK                         _______ _______ _______ _____ _____    ______ ____
ROOT
ATOM      1  S   UNL     1      -4.044  -1.345  -0.518  0.00  0.00    +0.000 S 
ATOM      2  O   UNL     1      -3.642  -1.935  -1.780  0.00  0.00    +0.000 OA
ATOM      3  O   UNL     1      -3.825  -2.029   0.741  0.00  0.00    +0.000 OA
ENDROOT
BRANCH   1   4
ATOM      4  C   UNL     1      -5.786  -0.990  -0.634  0.00  0.00    +0.000 A 
ATOM      5  C   UNL     1      -6.363  -0.774  -1.892  0.00  0.00    +0.000 A 
ATOM      6  C   UNL     1      -7.731  -0.516  -1.982  0.00  0.00    +0.000 A 
ATOM      7  C   UNL     1      -8.504  -0.488  -0.825  0.00  0.00    +0.000 A 
ATOM      8  C   UNL     1      -7.937  -0.717   0.426  0.00  0.00    +0.000 A 
ATOM      9  C   UNL     1      -6.569  -0.975   0.527  0.00  0.00    +0.000 A 
ATOM     10  F   UNL     1      -9.817  -0.242  -0.917  0.00  0.00    +0.000 F 
ENDBRANCH   1   4
BRANCH   1  11
ATOM     11  S   UNL     1      -3.200   0.566  -0.385  0.00  0.00    +0.000 S 
BRANCH  11  15
ATOM     12  C   UNL     1       1.246  -0.392   0.149  0.00  0.00    +0.000 A 
ATOM     13  C   UNL     1       0.631  -0.619  -1.081  0.00  0.00    +0.000 A 
ATOM     14  C   UNL     1      -0.725  -0.332  -1.249  0.00  0.00    +0.000 A 
ATOM     15  C   UNL     1      -1.476   0.176  -0.184  0.00  0.00    +0.000 A 
ATOM     16  C   UNL     1      -0.850   0.411   1.045  0.00  0.00    +0.000 A 
ATOM     17  C   UNL     1       0.506   0.124   1.211  0.00  0.00    +0.000 A 
ENDBRANCH  11  15
ENDBRANCH   1  11
TORSDOF 3
