REMARK  Name = *****
REMARK  3 active torsions:
REMARK  status: ('A' for Active; 'I' for Inactive)
REMARK    1  A    between atoms: C_4  and  C_7
REMARK    2  A    between atoms: C_8  and  C_10
REMARK    3  A    between atoms: C_13  and  C_16
REMARK                            x       y       z     vdW  Elec       q    Type
REMARK                         _______ _______ _______ _____ _____    ______ ____
ROOT
ATOM      1  C   UNL     1      -3.804  -0.403   2.230  0.00  0.00    +0.000 A 
ATOM      2  C   UNL     1      -3.248   0.157   3.392  0.00  0.00    +0.000 A 
ATOM      3  C   UNL     1      -3.249  -0.536   4.608  0.00  0.00    +0.000 A 
ATOM      4  C   UNL     1      -3.817  -1.813   4.699  0.00  0.00    +0.000 A 
ATOM      5  C   UNL     1      -4.370  -2.384   3.546  0.00  0.00    +0.000 A 
ATOM      6  C   UNL     1      -4.366  -1.684   2.335  0.00  0.00    +0.000 A 
ENDROOT
BRANCH   4   7
ATOM      7  C   UNL     1      -3.798  -2.574   6.001  0.00  0.00    +0.000 C 
ATOM      8  F   UNL     1      -3.816  -1.762   7.095  0.00  0.00    +0.000 F 
ATOM      9  F   UNL     1      -4.861  -3.413   6.147  0.00  0.00    +0.000 F 
ATOM     10  F   UNL     1      -2.688  -3.351   6.131  0.00  0.00    +0.000 F 
ENDBRANCH   4   7
BRANCH   1  12
ATOM     11  C   UNL     1      -2.518   0.478   0.130  0.00  0.00    +0.000 C 
ATOM     12  C   UNL     1      -3.807   0.358   0.930  0.00  0.00    +0.000 C 
ATOM     13  O   UNL     1      -3.593  -0.380  -0.284  0.00  0.00    +0.000 OA
BRANCH  11  17
ATOM     14  C   UNL     1      -1.750   4.079  -2.153  0.00  0.00    +0.000 A 
ATOM     15  C   UNL     1      -1.602   4.081  -0.769  0.00  0.00    +0.000 A 
ATOM     16  C   UNL     1      -1.853   2.917  -0.038  0.00  0.00    +0.000 A 
ATOM     17  C   UNL     1      -2.260   1.729  -0.669  0.00  0.00    +0.000 A 
ATOM     18  C   UNL     1      -2.396   1.753  -2.066  0.00  0.00    +0.000 A 
ATOM     19  C   UNL     1      -2.148   2.914  -2.803  0.00  0.00    +0.000 A 
ENDBRANCH  11  17
ENDBRANCH   1  12
TORSDOF 3
