REMARK  Name = *****
REMARK  3 active torsions:
REMARK  status: ('A' for Active; 'I' for Inactive)
REMARK    1  A    between atoms: C_3  and  N_4
REMARK    2  A    between atoms: N_4  and  C_5
REMARK    3  A    between atoms: C_12  and  C_14
REMARK                            x       y       z     vdW  Elec       q    Type
REMARK                         _______ _______ _______ _____ _____    ______ ____
ROOT
ATOM      1  N   UNL     1      -1.414  -0.833  -1.412  0.00  0.00    +0.000 N 
ATOM      2  C   UNL     1      -2.808  -0.618  -1.450  0.00  0.00    +0.000 C 
ATOM      3  O   UNL     1      -3.439  -0.071  -0.542  0.00  0.00    +0.000 OA
ENDROOT
BRANCH   1   4
ATOM      4  C   UNL     1      -0.599  -1.133  -2.552  0.00  0.00    +0.000 A 
ATOM      5  C   UNL     1      -0.878  -0.590  -3.817  0.00  0.00    +0.000 A 
ATOM      6  C   UNL     1      -0.065  -0.881  -4.917  0.00  0.00    +0.000 A 
ATOM      7  C   UNL     1       1.039  -1.706  -4.755  0.00  0.00    +0.000 A 
ATOM      8  C   UNL     1       1.352  -2.238  -3.513  0.00  0.00    +0.000 A 
ATOM      9  C   UNL     1       0.540  -1.946  -2.413  0.00  0.00    +0.000 A 
ATOM     10  F   UNL     1       1.818  -1.983  -5.809  0.00  0.00    +0.000 F 
ENDBRANCH   1   4
BRANCH   2  11
ATOM     11  C   UNL     1      -3.620  -1.155  -2.572  0.00  0.00    +0.000 A 
ATOM     12  C   UNL     1      -3.461  -2.472  -3.021  0.00  0.00    +0.000 A 
ATOM     13  C   UNL     1      -4.259  -2.952  -4.060  0.00  0.00    +0.000 A 
ATOM     14  C   UNL     1      -5.228  -2.128  -4.635  0.00  0.00    +0.000 A 
ATOM     15  C   UNL     1      -5.411  -0.827  -4.167  0.00  0.00    +0.000 A 
ATOM     16  C   UNL     1      -4.614  -0.341  -3.130  0.00  0.00    +0.000 A 
ENDBRANCH   2  11
BRANCH   1  19
ATOM     17  C   UNL     1      -0.800   0.546   0.692  0.00  0.00    +0.000 C 
ATOM     18  C   UNL     1       0.495   0.073   0.117  0.00  0.00    +0.000 C 
ATOM     19  C   UNL     1      -0.765  -0.734  -0.111  0.00  0.00    +0.000 C 
ENDBRANCH   1  19
TORSDOF 3
