REMARK  Name = *****
REMARK  5 active torsions:
REMARK  status: ('A' for Active; 'I' for Inactive)
REMARK    1  A    between atoms: C_1  and  C_2
REMARK    2  A    between atoms: C_2  and  C_3
REMARK    3  A    between atoms: C_2  and  C_4
REMARK    4  A    between atoms: C_4  and  C_10
REMARK    5  A    between atoms: C_11  and  C_12
REMARK                            x       y       z     vdW  Elec       q    Type
REMARK                         _______ _______ _______ _____ _____    ______ ____
ROOT
ATOM      1  C   UNL     1       2.931   1.355  -0.596  0.00  0.00    +0.000 C 
ATOM      2  S   UNL     1       4.338   2.152   0.322  0.00  0.00    +0.000 S 
ATOM      3  C   UNL     1       3.494   2.699   1.829  0.00  0.00    +0.000 C 
ATOM      4  C   UNL     1       2.391   3.710   1.560  0.00  0.00    +0.000 C 
ATOM      5  C   UNL     1       1.215   3.151   0.774  0.00  0.00    +0.000 C 
ATOM      6  S   UNL     1       1.651   2.671  -0.917  0.00  0.00    +0.000 S 
ENDROOT
BRANCH   1   8
ATOM      7  C   UNL     1       1.192  -0.584  -0.621  0.00  0.00    +0.000 C 
ATOM      8  C   UNL     1       2.343   0.099   0.142  0.00  0.00    +0.000 C 
ATOM      9  C   UNL     1       3.396  -0.974   0.478  0.00  0.00    +0.000 C 
ENDBRANCH   1   8
BRANCH   1  10
ATOM     10  C   UNL     1       3.457   0.958  -1.927  0.00  0.00    +0.000 C 
ATOM     11  C   UNL     1       3.843   0.647  -3.022  0.00  0.00    +0.000 C 
BRANCH  11  12
ATOM     12  C   UNL     1       4.257   0.298  -4.345  0.00  0.00    +0.000 A 
ATOM     13  C   UNL     1       4.580   1.302  -5.261  0.00  0.00    +0.000 A 
ATOM     14  C   UNL     1       4.957   0.966  -6.563  0.00  0.00    +0.000 A 
ATOM     15  C   UNL     1       5.011  -0.373  -6.949  0.00  0.00    +0.000 A 
ATOM     16  C   UNL     1       4.692  -1.377  -6.034  0.00  0.00    +0.000 A 
ATOM     17  C   UNL     1       4.315  -1.042  -4.732  0.00  0.00    +0.000 A 
ENDBRANCH  11  12
ENDBRANCH   1  10
TORSDOF 3
