REMARK  Name = *****
REMARK  4 active torsions:
REMARK  status: ('A' for Active; 'I' for Inactive)
REMARK    1  A    between atoms: C_1  and  C_2
REMARK    2  A    between atoms: C_4  and  S_8
REMARK    3  A    between atoms: S_8  and  C_9
REMARK    4  A    between atoms: C_9  and  C_10
REMARK                            x       y       z     vdW  Elec       q    Type
REMARK                         _______ _______ _______ _____ _____    ______ ____
ROOT
ATOM      1  C   UNL     1       2.492   0.254   0.116  0.00  0.00    +0.000 C 
ATOM      2  C   UNL     1       1.002   0.081   0.052  0.00  0.00    +0.000 C 
ATOM      3  C   UNL     1       0.174   1.113  -0.201  0.00  0.00    +0.000 C 
ATOM      4  C   UNL     1      -1.328   1.007  -0.241  0.00  0.00    +0.000 C 
ATOM      5  C   UNL     1      -1.831  -0.323   0.342  0.00  0.00    +0.000 C 
ATOM      6  C   UNL     1      -0.978  -1.510  -0.103  0.00  0.00    +0.000 C 
ATOM      7  C   UNL     1       0.490  -1.319   0.282  0.00  0.00    +0.000 C 
ENDROOT
BRANCH   4   8
ATOM      8  S   UNL     1      -1.837   1.240  -1.988  0.00  0.00    +0.000 S 
BRANCH   8   9
ATOM      9  C   UNL     1      -3.575   1.717  -1.725  0.00  0.00    +0.000 C 
BRANCH   9  10
ATOM     10  C   UNL     1      -4.252   1.995  -3.017  0.00  0.00    +0.000 A 
ATOM     11  C   UNL     1      -4.070   2.942  -4.006  0.00  0.00    +0.000 A 
ATOM     12  C   UNL     1      -5.057   2.691  -4.989  0.00  0.00    +0.000 A 
ATOM     13  C   UNL     1      -5.782   1.615  -4.536  0.00  0.00    +0.000 A 
ATOM     14  O   UNL     1      -5.307   1.189  -3.338  0.00  0.00    +0.000 OA
ENDBRANCH   9  10
ENDBRANCH   8   9
ENDBRANCH   4   8
TORSDOF 3
