REMARK  Name = *****
REMARK  5 active torsions:
REMARK  status: ('A' for Active; 'I' for Inactive)
REMARK    1  A    between atoms: C_1  and  C_2
REMARK    2  A    between atoms: C_5  and  C_8
REMARK    3  A    between atoms: C_8  and  C_9
REMARK    4  A    between atoms: C_9  and  C_10
REMARK    5  A    between atoms: C_15  and  C_16
REMARK                            x       y       z     vdW  Elec       q    Type
REMARK                         _______ _______ _______ _____ _____    ______ ____
ROOT
ATOM      1  C   UNL     1      -2.957   0.042  -0.330  0.00  0.00    +0.000 C 
ENDROOT
BRANCH   1   6
ATOM      2  C   UNL     1       2.686  -0.720   0.967  0.00  0.00    +0.000 C 
ATOM      3  C   UNL     1       1.246  -0.498   0.615  0.00  0.00    +0.000 A 
ATOM      4  C   UNL     1       0.589   0.670   1.013  0.00  0.00    +0.000 A 
ATOM      5  C   UNL     1      -0.763   0.866   0.712  0.00  0.00    +0.000 A 
ATOM      6  C   UNL     1      -1.487  -0.102   0.006  0.00  0.00    +0.000 A 
ATOM      7  C   UNL     1      -0.829  -1.286  -0.362  0.00  0.00    +0.000 A 
ATOM      8  C   UNL     1       0.521  -1.483  -0.061  0.00  0.00    +0.000 A 
ENDBRANCH   1   6
BRANCH   1   9
ATOM      9  C   UNL     1      -3.558   1.459  -0.386  0.00  0.00    +0.000 C 
BRANCH   9  10
ATOM     10  C   UNL     1      -3.073   2.429  -1.452  0.00  0.00    +0.000 A 
ATOM     11  C   UNL     1      -2.241   2.017  -2.506  0.00  0.00    +0.000 A 
ATOM     12  C   UNL     1      -1.810   2.917  -3.483  0.00  0.00    +0.000 A 
ATOM     13  C   UNL     1      -2.210   4.246  -3.431  0.00  0.00    +0.000 A 
ATOM     14  C   UNL     1      -3.046   4.675  -2.404  0.00  0.00    +0.000 A 
ATOM     15  C   UNL     1      -3.492   3.781  -1.416  0.00  0.00    +0.000 A 
ATOM     16  C   UNL     1      -4.394   4.303  -0.329  0.00  0.00    +0.000 C 
ENDBRANCH   9  10
ENDBRANCH   1   9
TORSDOF 3
