REMARK  Name = *****
REMARK  2 active torsions:
REMARK  status: ('A' for Active; 'I' for Inactive)
REMARK    1  A    between atoms: C_5  and  C_8
REMARK    2  A    between atoms: C_9  and  C_10
REMARK                            x       y       z     vdW  Elec       q    Type
REMARK                         _______ _______ _______ _____ _____    ______ ____
ROOT
ATOM      1  C   UNL     1      -2.731   1.318  -0.207  0.00  0.00    +0.000 C 
ATOM      2  C   UNL     1      -3.940   0.792  -0.472  0.00  0.00    +0.000 C 
ENDROOT
BRANCH   1   7
ATOM      3  C   UNL     1       1.780  -0.611  -0.763  0.00  0.00    +0.000 C 
ATOM      4  C   UNL     1       1.382  -0.673   0.709  0.00  0.00    +0.000 C 
ATOM      5  S   UNL     1      -0.123  -1.637   0.970  0.00  0.00    +0.000 S 
ATOM      6  C   UNL     1      -1.405  -0.520   0.652  0.00  0.00    +0.000 C 
ATOM      7  C   UNL     1      -1.486   0.551  -0.163  0.00  0.00    +0.000 C 
ATOM      8  S   UNL     1      -0.236   1.238  -1.165  0.00  0.00    +0.000 S 
ATOM      9  C   UNL     1       0.674  -0.214  -1.738  0.00  0.00    +0.000 C 
ENDBRANCH   1   7
BRANCH   2  10
ATOM     10  C   UNL     1      -5.150   1.594  -0.527  0.00  0.00    +0.000 C 
ATOM     11  C   UNL     1      -6.404   1.175  -0.783  0.00  0.00    +0.000 C 
ATOM     12  S   UNL     1      -7.679   2.366  -0.841  0.00  0.00    +0.000 S 
ATOM     13  C   UNL     1      -8.868   1.622   0.308  0.00  0.00    +0.000 C 
ATOM     14  C   UNL     1      -9.267   0.203  -0.079  0.00  0.00    +0.000 C 
ATOM     15  C   UNL     1      -8.116  -0.788   0.030  0.00  0.00    +0.000 C 
ATOM     16  S   UNL     1      -6.794  -0.477  -1.169  0.00  0.00    +0.000 S 
ENDBRANCH   2  10
TORSDOF 2
