REMARK  Name = *****
REMARK  3 active torsions:
REMARK  status: ('A' for Active; 'I' for Inactive)
REMARK    1  A    between atoms: C_1  and  C_2
REMARK    2  A    between atoms: C_10  and  C_11
REMARK    3  A    between atoms: C_11  and  C_12
REMARK                            x       y       z     vdW  Elec       q    Type
REMARK                         _______ _______ _______ _____ _____    ______ ____
ROOT
ATOM      1  C   UNL     1      -3.391  -0.516   0.082  0.00  0.00    +0.000 C 
ATOM      2  C   UNL     1      -1.937  -0.143   0.105  0.00  0.00    +0.000 A 
ATOM      3  C   UNL     1      -0.945  -1.141   0.042  0.00  0.00    +0.000 A 
ATOM      4  C   UNL     1       0.414  -0.767   0.054  0.00  0.00    +0.000 A 
ATOM      5  C   UNL     1       0.721   0.586   0.114  0.00  0.00    +0.000 A 
ATOM      6  C   UNL     1      -0.227   1.604   0.168  0.00  0.00    +0.000 A 
ATOM      7  C   UNL     1      -1.569   1.210   0.160  0.00  0.00    +0.000 A 
ATOM      8  O   UNL     1       2.069   0.767   0.105  0.00  0.00    +0.000 OA
ATOM      9  C   UNL     1       2.631  -0.466   0.043  0.00  0.00    +0.000 A 
ATOM     10  C   UNL     1       1.668  -1.458   0.015  0.00  0.00    +0.000 A 
ENDROOT
BRANCH  10  11
ATOM     11  C   UNL     1       1.899  -2.926  -0.073  0.00  0.00    +0.000 C 
BRANCH  11  12
ATOM     12  C   UNL     1       2.153  -3.405   1.336  0.00  0.00    +0.000 A 
ATOM     13  C   UNL     1       1.087  -3.784   2.167  0.00  0.00    +0.000 A 
ATOM     14  C   UNL     1       1.325  -4.225   3.470  0.00  0.00    +0.000 A 
ATOM     15  C   UNL     1       2.628  -4.292   3.958  0.00  0.00    +0.000 A 
ATOM     16  C   UNL     1       3.695  -3.918   3.145  0.00  0.00    +0.000 A 
ATOM     17  C   UNL     1       3.460  -3.477   1.841  0.00  0.00    +0.000 A 
ENDBRANCH  11  12
ENDBRANCH  10  11
TORSDOF 2
