REMARK  Name = *****
REMARK  5 active torsions:
REMARK  status: ('A' for Active; 'I' for Inactive)
REMARK    1  A    between atoms: C_1  and  C_2
REMARK    2  A    between atoms: C_2  and  O_3
REMARK    3  A    between atoms: O_3  and  C_4
REMARK    4  A    between atoms: C_7  and  C_10
REMARK    5  A    between atoms: C_11  and  C_12
REMARK                            x       y       z     vdW  Elec       q    Type
REMARK                         _______ _______ _______ _____ _____    ______ ____
ROOT
ATOM      1  C   UNL     1       4.415  -1.535  -0.351  0.00  0.00    +0.000 A 
ATOM      2  C   UNL     1       5.239  -0.964   0.617  0.00  0.00    +0.000 A 
ATOM      3  C   UNL     1       6.619  -1.208   0.601  0.00  0.00    +0.000 A 
ATOM      4  C   UNL     1       7.192  -2.034  -0.374  0.00  0.00    +0.000 A 
ATOM      5  C   UNL     1       6.360  -2.591  -1.351  0.00  0.00    +0.000 A 
ATOM      6  C   UNL     1       4.983  -2.347  -1.334  0.00  0.00    +0.000 A 
ENDROOT
BRANCH   4   7
ATOM      7  C   UNL     1       8.639  -2.285  -0.445  0.00  0.00    +0.000 C 
ATOM      8  C   UNL     1       9.430  -2.425   0.631  0.00  0.00    +0.000 C 
BRANCH   8   9
ATOM      9  C   UNL     1      10.875  -2.690   0.558  0.00  0.00    +0.000 A 
ATOM     10  C   UNL     1      11.696  -2.101  -0.413  0.00  0.00    +0.000 A 
ATOM     11  C   UNL     1      13.071  -2.352  -0.430  0.00  0.00    +0.000 A 
ATOM     12  C   UNL     1      13.640  -3.186   0.530  0.00  0.00    +0.000 A 
ATOM     13  C   UNL     1      12.837  -3.764   1.511  0.00  0.00    +0.000 A 
ATOM     14  C   UNL     1      11.463  -3.513   1.527  0.00  0.00    +0.000 A 
ENDBRANCH   8   9
ENDBRANCH   4   7
BRANCH   1  15
ATOM     15  O   UNL     1       3.061  -1.378  -0.452  0.00  0.00    +0.000 OA
BRANCH  15  17
ATOM     16  C   UNL     1       0.940  -0.530   0.226  0.00  0.00    +0.000 C 
ATOM     17  C   UNL     1       2.427  -0.562   0.531  0.00  0.00    +0.000 C 
ENDBRANCH  15  17
ENDBRANCH   1  15
TORSDOF 4
