REMARK  Name = *****
REMARK  1 active torsions:
REMARK  status: ('A' for Active; 'I' for Inactive)
REMARK    1  A    between atoms: C_3  and  C_12
REMARK                            x       y       z     vdW  Elec       q    Type
REMARK                         _______ _______ _______ _____ _____    ______ ____
ROOT
ATOM      1  C   UNL     1       2.103  -1.130  -0.359  0.00  0.00    +0.000 C 
ATOM      2  C   UNL     1       2.689   0.286  -0.453  0.00  0.00    +0.000 C 
ATOM      3  C   UNL     1       1.738   1.486  -0.660  0.00  0.00    +0.000 C 
ATOM      4  S   UNL     1       0.659   1.735   0.817  0.00  0.00    +0.000 S 
ATOM      5  C   UNL     1      -0.554   0.455   0.559  0.00  0.00    +0.000 A 
ATOM      6  C   UNL     1      -1.884   0.845   0.353  0.00  0.00    +0.000 A 
ATOM      7  C   UNL     1      -2.882  -0.107   0.146  0.00  0.00    +0.000 A 
ATOM      8  C   UNL     1      -2.558  -1.459   0.154  0.00  0.00    +0.000 A 
ATOM      9  C   UNL     1      -1.240  -1.858   0.374  0.00  0.00    +0.000 A 
ATOM     10  C   UNL     1      -0.224  -0.908   0.586  0.00  0.00    +0.000 A 
ATOM     11  C   UNL     1       1.185  -1.383   0.834  0.00  0.00    +0.000 C 
ENDROOT
BRANCH   3  12
ATOM     12  C   UNL     1       1.011   1.627  -1.997  0.00  0.00    +0.000 A 
ATOM     13  C   UNL     1       1.216   0.752  -3.075  0.00  0.00    +0.000 A 
ATOM     14  C   UNL     1       0.555   0.934  -4.295  0.00  0.00    +0.000 A 
ATOM     15  C   UNL     1      -0.309   2.010  -4.473  0.00  0.00    +0.000 A 
ATOM     16  C   UNL     1      -0.503   2.912  -3.434  0.00  0.00    +0.000 A 
ATOM     17  C   UNL     1       0.157   2.729  -2.216  0.00  0.00    +0.000 A 
ENDBRANCH   3  12
TORSDOF 1
