REMARK  Name = *****
REMARK  4 active torsions:
REMARK  status: ('A' for Active; 'I' for Inactive)
REMARK    1  A    between atoms: C_2  and  C_9
REMARK    2  A    between atoms: C_9  and  N_10
REMARK    3  A    between atoms: N_10  and  O_11
REMARK    4  A    between atoms: O_11  and  C_12
REMARK                            x       y       z     vdW  Elec       q    Type
REMARK                         _______ _______ _______ _____ _____    ______ ____
ROOT
ATOM      1  N   UNL     1       1.409  -3.904   0.135  0.00  0.00    +0.000 NA
ENDROOT
BRANCH   1   2
ATOM      2  C   UNL     1       0.258  -3.314   0.151  0.00  0.00    +0.000 C 
BRANCH   2   4
ATOM      3  C   UNL     1       1.267  -1.038  -0.044  0.00  0.00    +0.000 A 
ATOM      4  C   UNL     1       0.134  -1.849   0.053  0.00  0.00    +0.000 A 
ATOM      5  C   UNL     1      -1.142  -1.280   0.061  0.00  0.00    +0.000 A 
ATOM      6  C   UNL     1      -1.267   0.103  -0.030  0.00  0.00    +0.000 A 
ATOM      7  C   UNL     1      -0.151   0.924  -0.127  0.00  0.00    +0.000 A 
ATOM      8  C   UNL     1       1.110   0.342  -0.133  0.00  0.00    +0.000 A 
ATOM      9  F   UNL     1       2.193   1.123  -0.226  0.00  0.00    +0.000 F 
ATOM     10  F   UNL     1      -2.488   0.651  -0.023  0.00  0.00    +0.000 F 
ENDBRANCH   2   4
ENDBRANCH   1   2
BRANCH   1  11
ATOM     11  O   UNL     1       1.208  -5.286   0.248  0.00  0.00    +0.000 OA
BRANCH  11  12
ATOM     12  C   UNL     1       2.404  -5.966   0.232  0.00  0.00    +0.000 A 
ATOM     13  C   UNL     1       2.339  -7.314   0.593  0.00  0.00    +0.000 A 
ATOM     14  C   UNL     1       3.497  -8.084   0.596  0.00  0.00    +0.000 A 
ATOM     15  C   UNL     1       4.723  -7.539   0.241  0.00  0.00    +0.000 A 
ATOM     16  C   UNL     1       4.776  -6.201  -0.123  0.00  0.00    +0.000 A 
ATOM     17  C   UNL     1       3.631  -5.408  -0.134  0.00  0.00    +0.000 A 
ATOM     18  F   UNL     1       5.951  -5.662  -0.474  0.00  0.00    +0.000 F 
ATOM     19  F   UNL     1       3.428  -9.375   0.946  0.00  0.00    +0.000 F 
ENDBRANCH  11  12
ENDBRANCH   1  11
TORSDOF 4
