REMARK  Name = *****
REMARK  2 active torsions:
REMARK  status: ('A' for Active; 'I' for Inactive)
REMARK    1  A    between atoms: C_5  and  C_6
REMARK    2  A    between atoms: C_6  and  C_7
REMARK                            x       y       z     vdW  Elec       q    Type
REMARK                         _______ _______ _______ _____ _____    ______ ____
ROOT
ATOM      1  C   UNL     1       3.077   0.001   1.033  0.00  0.00    +0.000 C 
ATOM      2  C   UNL     1       4.444   0.549   0.629  0.00  0.00    +0.000 C 
ATOM      3  C   UNL     1       4.096   1.658  -0.379  0.00  0.00    +0.000 C 
ATOM      4  C   UNL     1       2.784   1.211  -0.986  0.00  0.00    +0.000 C 
ATOM      5  C   UNL     1       2.115   1.832  -1.974  0.00  0.00    +0.000 C 
ATOM      6  C   UNL     1       2.304  -0.043  -0.285  0.00  0.00    +0.000 C 
ATOM      7  C   UNL     1       2.590  -1.274  -1.103  0.00  0.00    +0.000 C 
ATOM      8  C   UNL     1       3.760  -1.914  -1.253  0.00  0.00    +0.000 C 
ATOM      9  C   UNL     1       5.053  -1.545  -0.724  0.00  0.00    +0.000 C 
ATOM     10  C   UNL     1       5.369  -0.493   0.046  0.00  0.00    +0.000 C 
ENDROOT
BRANCH   5  11
ATOM     11  C   UNL     1       2.554   3.077  -2.694  0.00  0.00    +0.000 C 
BRANCH  11  12
ATOM     12  C   UNL     1       2.725   2.852  -4.178  0.00  0.00    +0.000 A 
ATOM     13  C   UNL     1       1.846   3.440  -5.098  0.00  0.00    +0.000 A 
ATOM     14  C   UNL     1       2.011   3.230  -6.469  0.00  0.00    +0.000 A 
ATOM     15  C   UNL     1       3.053   2.429  -6.933  0.00  0.00    +0.000 A 
ATOM     16  C   UNL     1       3.931   1.837  -6.028  0.00  0.00    +0.000 A 
ATOM     17  C   UNL     1       3.769   2.047  -4.658  0.00  0.00    +0.000 A 
ENDBRANCH  11  12
ENDBRANCH   5  11
TORSDOF 2
