REMARK  Name = *****
REMARK  4 active torsions:
REMARK  status: ('A' for Active; 'I' for Inactive)
REMARK    1  A    between atoms: C_1  and  C_2
REMARK    2  A    between atoms: C_4  and  C_8
REMARK    3  A    between atoms: C_8  and  O_10
REMARK    4  A    between atoms: O_10  and  C_11
REMARK                            x       y       z     vdW  Elec       q    Type
REMARK                         _______ _______ _______ _____ _____    ______ ____
ROOT
ATOM      1  C   UNL     1      -1.961   2.495  -0.563  0.00  0.00    +0.000 C 
ATOM      2  O   UNL     1      -3.131   2.496  -0.915  0.00  0.00    +0.000 OA
ENDROOT
BRANCH   1   6
ATOM      3  C   UNL     1       2.340   0.071   0.547  0.00  0.00    +0.000 C 
ATOM      4  C   UNL     1       0.876   0.057   0.218  0.00  0.00    +0.000 A 
ATOM      5  C   UNL     1       0.183   1.259   0.008  0.00  0.00    +0.000 A 
ATOM      6  C   UNL     1      -1.178   1.248  -0.335  0.00  0.00    +0.000 A 
ATOM      7  C   UNL     1      -1.840   0.022  -0.478  0.00  0.00    +0.000 A 
ATOM      8  C   UNL     1      -1.153  -1.176  -0.285  0.00  0.00    +0.000 A 
ATOM      9  C   UNL     1       0.199  -1.158   0.056  0.00  0.00    +0.000 A 
ENDBRANCH   1   6
BRANCH   1  10
ATOM     10  O   UNL     1      -1.169   3.601  -0.312  0.00  0.00    +0.000 OA
BRANCH  10  11
ATOM     11  C   UNL     1      -1.830   4.819  -0.489  0.00  0.00    +0.000 A 
ATOM     12  C   UNL     1      -2.748   5.267   0.459  0.00  0.00    +0.000 A 
ATOM     13  C   UNL     1      -3.348   6.508   0.273  0.00  0.00    +0.000 A 
ATOM     14  C   UNL     1      -3.034   7.302  -0.824  0.00  0.00    +0.000 A 
ATOM     15  C   UNL     1      -2.099   6.841  -1.743  0.00  0.00    +0.000 A 
ATOM     16  C   UNL     1      -1.483   5.604  -1.586  0.00  0.00    +0.000 A 
ATOM     17  F   UNL     1      -1.780   7.605  -2.796  0.00  0.00    +0.000 F 
ATOM     18  F   UNL     1      -4.237   6.950   1.171  0.00  0.00    +0.000 F 
ENDBRANCH  10  11
ENDBRANCH   1  10
TORSDOF 3
