REMARK  Name = *****
REMARK  5 active torsions:
REMARK  status: ('A' for Active; 'I' for Inactive)
REMARK    1  A    between atoms: C_1  and  O_2
REMARK    2  A    between atoms: O_2  and  C_3
REMARK    3  A    between atoms: C_5  and  S_9
REMARK    4  A    between atoms: S_9  and  C_10
REMARK    5  A    between atoms: C_10  and  C_11
REMARK                            x       y       z     vdW  Elec       q    Type
REMARK                         _______ _______ _______ _____ _____    ______ ____
ROOT
ATOM      1  C   UNL     1       2.987   1.107   0.231  0.00  0.00    +0.000 A 
ATOM      2  C   UNL     1       2.447   1.929   1.223  0.00  0.00    +0.000 A 
ATOM      3  C   UNL     1       3.214   2.964   1.777  0.00  0.00    +0.000 A 
ATOM      4  C   UNL     1       4.515   3.187   1.318  0.00  0.00    +0.000 A 
ATOM      5  C   UNL     1       5.057   2.368   0.329  0.00  0.00    +0.000 A 
ATOM      6  C   UNL     1       4.295   1.330  -0.207  0.00  0.00    +0.000 A 
ENDROOT
BRANCH   1   8
ATOM      7  C   UNL     1       1.002  -0.182  -0.006  0.00  0.00    +0.000 C 
ATOM      8  O   UNL     1       2.350   0.065  -0.384  0.00  0.00    +0.000 OA
ENDBRANCH   1   8
BRANCH   3   9
ATOM      9  S   UNL     1       2.546   4.030   3.043  0.00  0.00    +0.000 S 
BRANCH   9  10
ATOM     10  C   UNL     1       2.326   2.807   4.377  0.00  0.00    +0.000 C 
BRANCH  10  11
ATOM     11  C   UNL     1       1.885   3.463   5.661  0.00  0.00    +0.000 A 
ATOM     12  C   UNL     1       0.524   3.687   5.917  0.00  0.00    +0.000 A 
ATOM     13  C   UNL     1       0.117   4.303   7.102  0.00  0.00    +0.000 A 
ATOM     14  C   UNL     1       1.066   4.705   8.040  0.00  0.00    +0.000 A 
ATOM     15  C   UNL     1       2.421   4.497   7.794  0.00  0.00    +0.000 A 
ATOM     16  C   UNL     1       2.830   3.882   6.609  0.00  0.00    +0.000 A 
ENDBRANCH  10  11
ENDBRANCH   9  10
ENDBRANCH   3   9
TORSDOF 4
