REMARK  Name = *****
REMARK  4 active torsions:
REMARK  status: ('A' for Active; 'I' for Inactive)
REMARK    1  A    between atoms: C_2  and  C_3
REMARK    2  A    between atoms: C_2  and  S_10
REMARK    3  A    between atoms: C_3  and  C_4
REMARK    4  A    between atoms: S_10  and  C_11
REMARK                            x       y       z     vdW  Elec       q    Type
REMARK                         _______ _______ _______ _____ _____    ______ ____
ROOT
ATOM      1  C   UNL     1       0.827   0.350  -0.240  0.00  0.00    +0.000 C 
ATOM      2  C   UNL     1       2.079  -0.135  -0.192  0.00  0.00    +0.000 C 
ENDROOT
BRANCH   2   3
ATOM      3  C   UNL     1       3.269   0.720   0.201  0.00  0.00    +0.000 C 
BRANCH   3   4
ATOM      4  C   UNL     1       3.182   1.290   1.602  0.00  0.00    +0.000 A 
ATOM      5  C   UNL     1       3.296   0.449   2.718  0.00  0.00    +0.000 A 
ATOM      6  C   UNL     1       3.216   0.971   4.010  0.00  0.00    +0.000 A 
ATOM      7  C   UNL     1       3.021   2.338   4.199  0.00  0.00    +0.000 A 
ATOM      8  C   UNL     1       2.907   3.184   3.097  0.00  0.00    +0.000 A 
ATOM      9  C   UNL     1       2.987   2.663   1.804  0.00  0.00    +0.000 A 
ENDBRANCH   3   4
ENDBRANCH   2   3
BRANCH   2  10
ATOM     10  S   UNL     1       2.336  -1.822  -0.576  0.00  0.00    +0.000 S 
BRANCH  10  11
ATOM     11  C   UNL     1       3.422  -1.651  -1.983  0.00  0.00    +0.000 A 
ATOM     12  C   UNL     1       2.998  -1.010  -3.152  0.00  0.00    +0.000 A 
ATOM     13  C   UNL     1       3.861  -0.892  -4.244  0.00  0.00    +0.000 A 
ATOM     14  C   UNL     1       5.149  -1.422  -4.175  0.00  0.00    +0.000 A 
ATOM     15  C   UNL     1       5.574  -2.072  -3.017  0.00  0.00    +0.000 A 
ATOM     16  C   UNL     1       4.711  -2.190  -1.925  0.00  0.00    +0.000 A 
ENDBRANCH  10  11
ENDBRANCH   2  10
TORSDOF 4
