REMARK  Name = *****
REMARK  5 active torsions:
REMARK  status: ('A' for Active; 'I' for Inactive)
REMARK    1  A    between atoms: C_1  and  C_2
REMARK    2  A    between atoms: C_2  and  N_3
REMARK    3  A    between atoms: N_3  and  C_4
REMARK    4  A    between atoms: C_7  and  C_10
REMARK    5  A    between atoms: C_11  and  C_13
REMARK                            x       y       z     vdW  Elec       q    Type
REMARK                         _______ _______ _______ _____ _____    ______ ____
ROOT
ATOM      1  N   UNL     1       2.906  -0.799  -1.403  0.00  0.00    +0.000 N 
ATOM      2  C   UNL     1       4.204  -1.332  -1.232  0.00  0.00    +0.000 C 
ATOM      3  O   UNL     1       4.799  -1.200  -0.159  0.00  0.00    +0.000 OA
ENDROOT
BRANCH   1   4
ATOM      4  C   UNL     1       1.897  -1.406  -2.223  0.00  0.00    +0.000 A 
ATOM      5  C   UNL     1       1.884  -2.788  -2.458  0.00  0.00    +0.000 A 
ATOM      6  C   UNL     1       0.889  -3.377  -3.247  0.00  0.00    +0.000 A 
ATOM      7  C   UNL     1      -0.127  -2.599  -3.804  0.00  0.00    +0.000 A 
ATOM      8  C   UNL     1      -0.124  -1.221  -3.573  0.00  0.00    +0.000 A 
ATOM      9  C   UNL     1       0.871  -0.634  -2.782  0.00  0.00    +0.000 A 
ATOM     10  C   UNL     1      -1.181  -3.217  -4.675  0.00  0.00    +0.000 C 
ENDBRANCH   1   4
BRANCH   2  11
ATOM     11  C   UNL     1       4.855  -1.935  -2.397  0.00  0.00    +0.000 A 
ATOM     12  C   UNL     1       4.712  -1.648  -3.746  0.00  0.00    +0.000 A 
ATOM     13  C   UNL     1       5.545  -2.462  -4.571  0.00  0.00    +0.000 A 
ATOM     14  C   UNL     1       6.301  -3.317  -3.813  0.00  0.00    +0.000 A 
ATOM     15  S   UNL     1       6.040  -3.159  -2.151  0.00  0.00    +0.000 S 
ATOM     16 CL   UNL     1       7.437  -4.466  -4.393  0.00  0.00    +0.000 Cl
ENDBRANCH   2  11
BRANCH   1  18
ATOM     17  C   UNL     1       1.768  -0.483   0.791  0.00  0.00    +0.000 C 
ATOM     18  C   UNL     1       2.463   0.174  -0.395  0.00  0.00    +0.000 C 
ENDBRANCH   1  18
TORSDOF 3
