REMARK  Name = *****
REMARK  4 active torsions:
REMARK  status: ('A' for Active; 'I' for Inactive)
REMARK    1  A    between atoms: C_1  and  O_2
REMARK    2  A    between atoms: O_2  and  C_3
REMARK    3  A    between atoms: C_3  and  C_9
REMARK    4  A    between atoms: C_10  and  C_11
REMARK                            x       y       z     vdW  Elec       q    Type
REMARK                         _______ _______ _______ _____ _____    ______ ____
ROOT
ATOM      1  C   UNL     1       2.694  -0.946  -0.986  0.00  0.00    +0.000 C 
ATOM      2  C   UNL     1       2.245  -2.368  -1.270  0.00  0.00    +0.000 C 
ATOM      3  C   UNL     1       3.596  -2.128  -0.669  0.00  0.00    +0.000 C 
ATOM      4  C   UNL     1       3.634  -2.791   0.678  0.00  0.00    +0.000 C 
ATOM      5  C   UNL     1       2.505  -3.822   0.615  0.00  0.00    +0.000 C 
ATOM      6  C   UNL     1       1.448  -3.191  -0.296  0.00  0.00    +0.000 C 
ENDROOT
BRANCH   1   8
ATOM      7  C   UNL     1       0.905   0.395  -0.100  0.00  0.00    +0.000 C 
ATOM      8  O   UNL     1       2.104  -0.317   0.181  0.00  0.00    +0.000 OA
ENDBRANCH   1   8
BRANCH   1   9
ATOM      9  C   UNL     1       3.129  -0.129  -2.141  0.00  0.00    +0.000 C 
ATOM     10  C   UNL     1       4.072   0.827  -2.092  0.00  0.00    +0.000 C 
BRANCH  10  11
ATOM     11  C   UNL     1       4.515   1.631  -3.238  0.00  0.00    +0.000 A 
ATOM     12  C   UNL     1       3.639   2.052  -4.247  0.00  0.00    +0.000 A 
ATOM     13  C   UNL     1       4.099   2.841  -5.305  0.00  0.00    +0.000 A 
ATOM     14  C   UNL     1       5.436   3.227  -5.360  0.00  0.00    +0.000 A 
ATOM     15  C   UNL     1       6.314   2.830  -4.353  0.00  0.00    +0.000 A 
ATOM     16  C   UNL     1       5.854   2.041  -3.296  0.00  0.00    +0.000 A 
ENDBRANCH  10  11
ENDBRANCH   1   9
TORSDOF 3
