REMARK  Name = *****
REMARK  3 active torsions:
REMARK  status: ('A' for Active; 'I' for Inactive)
REMARK    1  A    between atoms: C_4  and  C_7
REMARK    2  A    between atoms: C_7  and  S_8
REMARK    3  A    between atoms: S_8  and  C_9
REMARK                            x       y       z     vdW  Elec       q    Type
REMARK                         _______ _______ _______ _____ _____    ______ ____
ROOT
ATOM      1  S   UNL     1      -3.689  -1.272  -0.801  0.00  0.00    +0.000 S 
ENDROOT
BRANCH   1   2
ATOM      2  C   UNL     1      -5.399  -0.746  -0.808  0.00  0.00    +0.000 A 
ATOM      3  C   UNL     1      -6.203  -1.179   0.257  0.00  0.00    +0.000 A 
ATOM      4  C   UNL     1      -7.549  -0.814   0.332  0.00  0.00    +0.000 A 
ATOM      5  C   UNL     1      -8.110  -0.016  -0.662  0.00  0.00    +0.000 A 
ATOM      6  C   UNL     1      -7.327   0.414  -1.732  0.00  0.00    +0.000 A 
ATOM      7  C   UNL     1      -5.977   0.050  -1.811  0.00  0.00    +0.000 A 
ATOM      8 BR   UNL     1      -5.003   0.674  -3.321  0.00  0.00    +0.000 Br
ENDBRANCH   1   2
BRANCH   1   9
ATOM      9  C   UNL     1      -2.945   0.214  -0.054  0.00  0.00    +0.000 C 
BRANCH   9  13
ATOM     10  C   UNL     1       1.335  -0.191   0.290  0.00  0.00    +0.000 A 
ATOM     11  C   UNL     1       0.774   0.306  -0.885  0.00  0.00    +0.000 A 
ATOM     12  C   UNL     1      -0.611   0.438  -0.996  0.00  0.00    +0.000 A 
ATOM     13  C   UNL     1      -1.449   0.080   0.071  0.00  0.00    +0.000 A 
ATOM     14  C   UNL     1      -0.872  -0.429   1.244  0.00  0.00    +0.000 A 
ATOM     15  C   UNL     1       0.513  -0.560   1.353  0.00  0.00    +0.000 A 
ENDBRANCH   9  13
ENDBRANCH   1   9
TORSDOF 3
