REMARK  Name = *****
REMARK  3 active torsions:
REMARK  status: ('A' for Active; 'I' for Inactive)
REMARK    1  A    between atoms: C_1  and  C_2
REMARK    2  A    between atoms: C_5  and  C_8
REMARK    3  A    between atoms: N_10  and  C_11
REMARK                            x       y       z     vdW  Elec       q    Type
REMARK                         _______ _______ _______ _____ _____    ______ ____
ROOT
ATOM      1  C   UNL     1      -3.553  -0.330   0.216  0.00  0.00    +0.000 C 
ATOM      2  C   UNL     1      -4.577   0.227  -0.733  0.00  0.00    +0.000 C 
ATOM      3  N   UNL     1      -4.565   0.647   0.667  0.00  0.00    +0.000 N 
ENDROOT
BRANCH   1   8
ATOM      4  C   UNL     1       2.165   0.793  -0.267  0.00  0.00    +0.000 C 
ATOM      5  C   UNL     1       0.693   0.533  -0.153  0.00  0.00    +0.000 A 
ATOM      6  C   UNL     1       0.054   0.618   1.086  0.00  0.00    +0.000 A 
ATOM      7  C   UNL     1      -1.312   0.345   1.198  0.00  0.00    +0.000 A 
ATOM      8  C   UNL     1      -2.087  -0.015   0.083  0.00  0.00    +0.000 A 
ATOM      9  C   UNL     1      -1.420  -0.125  -1.149  0.00  0.00    +0.000 A 
ATOM     10  C   UNL     1      -0.052   0.144  -1.269  0.00  0.00    +0.000 A 
ENDBRANCH   1   8
BRANCH   3  11
ATOM     11  C   UNL     1      -4.249   1.987   1.008  0.00  0.00    +0.000 A 
ATOM     12  C   UNL     1      -3.464   2.870   0.254  0.00  0.00    +0.000 A 
ATOM     13  C   UNL     1      -3.227   4.178   0.691  0.00  0.00    +0.000 A 
ATOM     14  C   UNL     1      -3.778   4.630   1.887  0.00  0.00    +0.000 A 
ATOM     15  C   UNL     1      -4.567   3.774   2.648  0.00  0.00    +0.000 A 
ATOM     16  C   UNL     1      -4.799   2.468   2.208  0.00  0.00    +0.000 A 
ENDBRANCH   3  11
TORSDOF 2
