REMARK  Name = *****
REMARK  4 active torsions:
REMARK  status: ('A' for Active; 'I' for Inactive)
REMARK    1  A    between atoms: C_4  and  O_7
REMARK    2  A    between atoms: O_7  and  C_8
REMARK    3  A    between atoms: C_8  and  O_10
REMARK    4  A    between atoms: O_10  and  C_11
REMARK                            x       y       z     vdW  Elec       q    Type
REMARK                         _______ _______ _______ _____ _____    ______ ____
ROOT
ATOM      1  C   UNL     1       3.178  -2.052   0.193  0.00  0.00    +0.000 C 
ATOM      2  O   UNL     1       2.676  -2.762   1.051  0.00  0.00    +0.000 OA
ENDROOT
BRANCH   1   3
ATOM      3  O   UNL     1       2.638  -0.917  -0.318  0.00  0.00    +0.000 OA
BRANCH   3   7
ATOM      4  C   UNL     1      -1.290   0.686  -0.299  0.00  0.00    +0.000 C 
ATOM      5  C   UNL     1      -1.139  -0.819  -0.095  0.00  0.00    +0.000 C 
ATOM      6  C   UNL     1       0.245  -1.307  -0.510  0.00  0.00    +0.000 C 
ATOM      7  C   UNL     1       1.356  -0.536   0.210  0.00  0.00    +0.000 C 
ATOM      8  C   UNL     1       1.200   0.971  -0.012  0.00  0.00    +0.000 C 
ATOM      9  C   UNL     1      -0.182   1.464   0.405  0.00  0.00    +0.000 C 
ENDBRANCH   3   7
ENDBRANCH   1   3
BRANCH   1  10
ATOM     10  O   UNL     1       4.371  -2.259  -0.417  0.00  0.00    +0.000 OA
BRANCH  10  11
ATOM     11  C   UNL     1       5.093  -3.431  -0.005  0.00  0.00    +0.000 C 
ATOM     12  C   UNL     1       5.888  -3.134   1.270  0.00  0.00    +0.000 C 
ATOM     13  C   UNL     1       6.793  -4.300   1.655  0.00  0.00    +0.000 C 
ATOM     14  C   UNL     1       7.718  -4.696   0.508  0.00  0.00    +0.000 C 
ATOM     15  C   UNL     1       6.938  -4.984  -0.772  0.00  0.00    +0.000 C 
ATOM     16  C   UNL     1       6.034  -3.816  -1.151  0.00  0.00    +0.000 C 
ENDBRANCH  10  11
ENDBRANCH   1  10
TORSDOF 4
