REMARK  Name = *****
REMARK  2 active torsions:
REMARK  status: ('A' for Active; 'I' for Inactive)
REMARK    1  A    between atoms: C_5  and  C_8
REMARK    2  A    between atoms: C_9  and  C_10
REMARK                            x       y       z     vdW  Elec       q    Type
REMARK                         _______ _______ _______ _____ _____    ______ ____
ROOT
ATOM      1  C   UNL     1      -0.965  -1.130   2.272  0.00  0.00    +0.000 C 
ATOM      2  C   UNL     1      -1.700  -0.984   3.386  0.00  0.00    +0.000 C 
ENDROOT
BRANCH   1   7
ATOM      3  C   UNL     1      -0.535  -1.194  -0.765  0.00  0.00    +0.000 C 
ATOM      4  C   UNL     1       0.869  -0.730  -0.447  0.00  0.00    +0.000 C 
ATOM      5  C   UNL     1       0.860   0.762  -0.431  0.00  0.00    +0.000 C 
ATOM      6  C   UNL     1       0.839   0.004   0.857  0.00  0.00    +0.000 C 
ATOM      7  C   UNL     1      -0.590   0.016   1.377  0.00  0.00    +0.000 C 
ATOM      8  C   UNL     1      -1.257  -0.003  -0.051  0.00  0.00    +0.000 C 
ATOM      9  C   UNL     1      -0.550   1.215  -0.735  0.00  0.00    +0.000 C 
ENDBRANCH   1   7
BRANCH   2  10
ATOM     10  C   UNL     1      -2.072  -2.093   4.276  0.00  0.00    +0.000 A 
ATOM     11  C   UNL     1      -1.179  -3.122   4.600  0.00  0.00    +0.000 A 
ATOM     12  C   UNL     1      -1.559  -4.143   5.475  0.00  0.00    +0.000 A 
ATOM     13  C   UNL     1      -2.831  -4.140   6.042  0.00  0.00    +0.000 A 
ATOM     14  C   UNL     1      -3.723  -3.113   5.740  0.00  0.00    +0.000 A 
ATOM     15  C   UNL     1      -3.343  -2.091   4.866  0.00  0.00    +0.000 A 
ENDBRANCH   2  10
TORSDOF 2
