REMARK  Name = *****
REMARK  1 active torsions:
REMARK  status: ('A' for Active; 'I' for Inactive)
REMARK    1  A    between atoms: C_6  and  C_10
REMARK                            x       y       z     vdW  Elec       q    Type
REMARK                         _______ _______ _______ _____ _____    ______ ____
ROOT
ATOM      1  C   UNL     1      -2.558   0.021  -0.195  0.00  0.00    +0.000 C 
ATOM      2  C   UNL     1      -1.648   1.247  -0.021  0.00  0.00    +0.000 C 
ATOM      3  C   UNL     1      -0.311   0.660   0.408  0.00  0.00    +0.000 C 
ATOM      4  C   UNL     1       0.926   1.513   0.153  0.00  0.00    +0.000 C 
ATOM      5  C   UNL     1       2.182   0.680   0.220  0.00  0.00    +0.000 C 
ATOM      6  C   UNL     1       2.191  -0.670   0.202  0.00  0.00    +0.000 C 
ATOM      7  C   UNL     1       0.925  -1.498   0.063  0.00  0.00    +0.000 C 
ATOM      8  C   UNL     1      -0.244  -0.632  -0.402  0.00  0.00    +0.000 C 
ATOM      9  C   UNL     1      -1.639  -1.211  -0.212  0.00  0.00    +0.000 C 
ENDROOT
BRANCH   6  10
ATOM     10  C   UNL     1       3.471  -1.397   0.289  0.00  0.00    +0.000 A 
ATOM     11  C   UNL     1       4.309  -1.227   1.399  0.00  0.00    +0.000 A 
ATOM     12  C   UNL     1       5.520  -1.918   1.489  0.00  0.00    +0.000 A 
ATOM     13  C   UNL     1       5.906  -2.784   0.469  0.00  0.00    +0.000 A 
ATOM     14  C   UNL     1       5.082  -2.960  -0.642  0.00  0.00    +0.000 A 
ATOM     15  C   UNL     1       3.870  -2.270  -0.731  0.00  0.00    +0.000 A 
ENDBRANCH   6  10
TORSDOF 1
