REMARK  Name = *****
REMARK  3 active torsions:
REMARK  status: ('A' for Active; 'I' for Inactive)
REMARK    1  A    between atoms: C_4  and  C_7
REMARK    2  A    between atoms: C_8  and  C_9
REMARK    3  A    between atoms: C_14  and  C_15
REMARK                            x       y       z     vdW  Elec       q    Type
REMARK                         _______ _______ _______ _____ _____    ______ ____
ROOT
ATOM      1  C   UNL     1      -0.834  -2.821  -0.034  0.00  0.00    +0.000 C 
ATOM      2  C   UNL     1      -1.180  -3.971  -0.061  0.00  0.00    +0.000 C 
ENDROOT
BRANCH   1   6
ATOM      3  C   UNL     1       0.388   1.283   0.367  0.00  0.00    +0.000 C 
ATOM      4  C   UNL     1       1.381   0.313  -0.263  0.00  0.00    +0.000 C 
ATOM      5  C   UNL     1       1.046  -1.134   0.106  0.00  0.00    +0.000 C 
ATOM      6  C   UNL     1      -0.425  -1.455  -0.008  0.00  0.00    +0.000 C 
ATOM      7  C   UNL     1      -1.357  -0.490  -0.106  0.00  0.00    +0.000 C 
ATOM      8  C   UNL     1      -1.042   0.977  -0.080  0.00  0.00    +0.000 C 
ENDBRANCH   1   6
BRANCH   2   9
ATOM      9  C   UNL     1      -1.594  -5.343  -0.096  0.00  0.00    +0.000 A 
ATOM     10  C   UNL     1      -0.691  -6.317   0.350  0.00  0.00    +0.000 A 
ATOM     11  C   UNL     1      -1.042  -7.669   0.337  0.00  0.00    +0.000 A 
ATOM     12  C   UNL     1      -2.298  -8.060  -0.122  0.00  0.00    +0.000 A 
ATOM     13  C   UNL     1      -3.205  -7.098  -0.568  0.00  0.00    +0.000 A 
ATOM     14  C   UNL     1      -2.858  -5.739  -0.557  0.00  0.00    +0.000 A 
BRANCH  14  15
ATOM     15  C   UNL     1      -3.853  -4.754  -1.039  0.00  0.00    +0.000 C 
ATOM     16  O   UNL     1      -4.961  -5.095  -1.440  0.00  0.00    +0.000 OA
ENDBRANCH  14  15
ENDBRANCH   2   9
TORSDOF 3
