REMARK  Name = *****
REMARK  5 active torsions:
REMARK  status: ('A' for Active; 'I' for Inactive)
REMARK    1  A    between atoms: C_1  and  C_2
REMARK    2  A    between atoms: C_3  and  C_17
REMARK    3  A    between atoms: C_4  and  O_8
REMARK    4  A    between atoms: O_8  and  C_9
REMARK    5  A    between atoms: C_9  and  C_11
REMARK                            x       y       z     vdW  Elec       q    Type
REMARK                         _______ _______ _______ _____ _____    ______ ____
ROOT
ATOM      1  O   UNL     1      -1.125  -2.174  -1.294  0.00  0.00    +0.000 OA
ENDROOT
BRANCH   1   5
ATOM      2  C   UNL     1       1.899   1.235   0.686  0.00  0.00    +0.000 C 
ATOM      3  C   UNL     1       0.540   0.729   0.286  0.00  0.00    +0.000 A 
ATOM      4  C   UNL     1       0.365  -0.552  -0.282  0.00  0.00    +0.000 A 
ATOM      5  C   UNL     1      -0.936  -0.949  -0.636  0.00  0.00    +0.000 A 
ATOM      6  C   UNL     1      -2.041  -0.118  -0.443  0.00  0.00    +0.000 A 
ATOM      7  C   UNL     1      -1.862   1.129   0.143  0.00  0.00    +0.000 A 
ATOM      8  C   UNL     1      -0.581   1.548   0.506  0.00  0.00    +0.000 A 
ATOM      9  C   UNL     1       1.542  -1.448  -0.556  0.00  0.00    +0.000 C 
ENDBRANCH   1   5
BRANCH   1  10
ATOM     10  C   UNL     1      -1.752  -3.144  -0.534  0.00  0.00    +0.000 C 
ATOM     11  O   UNL     1      -2.147  -3.043   0.618  0.00  0.00    +0.000 OA
BRANCH  10  12
ATOM     12  C   UNL     1      -1.892  -4.393  -1.335  0.00  0.00    +0.000 A 
ATOM     13  C   UNL     1      -1.404  -4.513  -2.645  0.00  0.00    +0.000 A 
ATOM     14  C   UNL     1      -1.564  -5.711  -3.346  0.00  0.00    +0.000 A 
ATOM     15  C   UNL     1      -2.209  -6.792  -2.747  0.00  0.00    +0.000 A 
ATOM     16  C   UNL     1      -2.697  -6.681  -1.446  0.00  0.00    +0.000 A 
ATOM     17  C   UNL     1      -2.539  -5.486  -0.742  0.00  0.00    +0.000 A 
ENDBRANCH  10  12
ENDBRANCH   1  10
TORSDOF 3
