REMARK  Name = *****
REMARK  3 active torsions:
REMARK  status: ('A' for Active; 'I' for Inactive)
REMARK    1  A    between atoms: C_1  and  C_2
REMARK    2  A    between atoms: C_7  and  C_8
REMARK    3  A    between atoms: N_9  and  C_10
REMARK                            x       y       z     vdW  Elec       q    Type
REMARK                         _______ _______ _______ _____ _____    ______ ____
ROOT
ATOM      1  C   UNL     1       0.896  -2.576   0.038  0.00  0.00    +0.000 C 
ATOM      2  N   UNL     1       0.257  -3.657   0.367  0.00  0.00    +0.000 NA
ENDROOT
BRANCH   1   9
ATOM      3  C   UNL     1       2.418  -0.108  -0.676  0.00  0.00    +0.000 C 
ATOM      4  C   UNL     1       0.973  -0.077  -0.262  0.00  0.00    +0.000 A 
ATOM      5  C   UNL     1       0.310   1.161  -0.209  0.00  0.00    +0.000 A 
ATOM      6  C   UNL     1      -1.031   1.241   0.170  0.00  0.00    +0.000 A 
ATOM      7  C   UNL     1      -1.732   0.086   0.504  0.00  0.00    +0.000 A 
ATOM      8  C   UNL     1      -1.092  -1.151   0.457  0.00  0.00    +0.000 A 
ATOM      9  C   UNL     1       0.255  -1.240   0.076  0.00  0.00    +0.000 A 
ENDBRANCH   1   9
BRANCH   2  10
ATOM     10  C   UNL     1       0.984  -4.850   0.285  0.00  0.00    +0.000 A 
ATOM     11  C   UNL     1       1.765  -5.280   1.361  0.00  0.00    +0.000 A 
ATOM     12  C   UNL     1       2.478  -6.480   1.283  0.00  0.00    +0.000 A 
ATOM     13  C   UNL     1       2.398  -7.255   0.128  0.00  0.00    +0.000 A 
ATOM     14  C   UNL     1       1.610  -6.845  -0.945  0.00  0.00    +0.000 A 
ATOM     15  C   UNL     1       0.900  -5.644  -0.862  0.00  0.00    +0.000 A 
ATOM     16 CL   UNL     1       3.274  -8.733   0.029  0.00  0.00    +0.000 Cl
ENDBRANCH   2  10
TORSDOF 2
