REMARK  Name = *****
REMARK  5 active torsions:
REMARK  status: ('A' for Active; 'I' for Inactive)
REMARK    1  A    between atoms: C_1  and  C_2
REMARK    2  A    between atoms: C_2  and  C_3
REMARK    3  A    between atoms: C_8  and  O_9
REMARK    4  A    between atoms: O_9  and  C_10
REMARK    5  A    between atoms: C_10  and  C_11
REMARK                            x       y       z     vdW  Elec       q    Type
REMARK                         _______ _______ _______ _____ _____    ______ ____
ROOT
ATOM      1  C   UNL     1       2.986   0.106  -1.776  0.00  0.00    +0.000 C 
ATOM      2  C   UNL     1       4.035  -1.025  -1.835  0.00  0.00    +0.000 C 
ATOM      3  C   UNL     1       4.964  -0.932  -3.044  0.00  0.00    +0.000 C 
ATOM      4  C   UNL     1       5.612   0.443  -3.165  0.00  0.00    +0.000 C 
ATOM      5  C   UNL     1       4.598   1.582  -3.090  0.00  0.00    +0.000 C 
ATOM      6  C   UNL     1       3.713   1.465  -1.844  0.00  0.00    +0.000 C 
ENDROOT
BRANCH   1   8
ATOM      7  C   UNL     1       0.689   0.839  -2.766  0.00  0.00    +0.000 C 
ATOM      8  C   UNL     1       1.867  -0.114  -2.813  0.00  0.00    +0.000 C 
ATOM      9  F   UNL     1       1.364  -1.372  -2.618  0.00  0.00    +0.000 F 
ATOM     10  F   UNL     1       2.366  -0.114  -4.076  0.00  0.00    +0.000 F 
ENDBRANCH   1   8
BRANCH   6  11
ATOM     11  O   UNL     1       2.752   2.513  -1.758  0.00  0.00    +0.000 OA
BRANCH  11  12
ATOM     12  C   UNL     1       3.298   3.793  -1.441  0.00  0.00    +0.000 C 
BRANCH  12  13
ATOM     13  C   UNL     1       2.175   4.749  -1.123  0.00  0.00    +0.000 A 
ATOM     14  C   UNL     1       1.116   4.363  -0.288  0.00  0.00    +0.000 A 
ATOM     15  C   UNL     1       0.096   5.261   0.031  0.00  0.00    +0.000 A 
ATOM     16  C   UNL     1       0.129   6.560  -0.473  0.00  0.00    +0.000 A 
ATOM     17  C   UNL     1       1.181   6.961  -1.294  0.00  0.00    +0.000 A 
ATOM     18  C   UNL     1       2.201   6.062  -1.614  0.00  0.00    +0.000 A 
ENDBRANCH  12  13
ENDBRANCH  11  12
ENDBRANCH   6  11
TORSDOF 4
