REMARK  Name = *****
REMARK  4 active torsions:
REMARK  status: ('A' for Active; 'I' for Inactive)
REMARK    1  A    between atoms: C_4  and  O_7
REMARK    2  A    between atoms: O_7  and  C_8
REMARK    3  A    between atoms: C_8  and  O_10
REMARK    4  A    between atoms: O_10  and  C_11
REMARK                            x       y       z     vdW  Elec       q    Type
REMARK                         _______ _______ _______ _____ _____    ______ ____
ROOT
ATOM      1  C   UNL     1      -3.341   0.214  -1.249  0.00  0.00    +0.000 C 
ATOM      2  O   UNL     1      -3.214  -0.978  -1.497  0.00  0.00    +0.000 OA
ENDROOT
BRANCH   1   3
ATOM      3  O   UNL     1      -2.416   1.026  -0.605  0.00  0.00    +0.000 OA
BRANCH   3   7
ATOM      4  C   UNL     1       1.173  -0.748   0.567  0.00  0.00    +0.000 A 
ATOM      5  C   UNL     1       0.884  -0.620  -0.794  0.00  0.00    +0.000 A 
ATOM      6  C   UNL     1      -0.317  -0.040  -1.201  0.00  0.00    +0.000 A 
ATOM      7  C   UNL     1      -1.227   0.390  -0.236  0.00  0.00    +0.000 A 
ATOM      8  C   UNL     1      -0.940   0.287   1.124  0.00  0.00    +0.000 A 
ATOM      9  C   UNL     1       0.264  -0.292   1.524  0.00  0.00    +0.000 A 
ENDBRANCH   3   7
ENDBRANCH   1   3
BRANCH   1  10
ATOM     10  O   UNL     1      -4.437   1.006  -1.561  0.00  0.00    +0.000 OA
BRANCH  10  11
ATOM     11  C   UNL     1      -5.443   0.310  -2.230  0.00  0.00    +0.000 A 
ATOM     12  C   UNL     1      -6.427  -0.351  -1.495  0.00  0.00    +0.000 A 
ATOM     13  C   UNL     1      -7.456  -1.006  -2.173  0.00  0.00    +0.000 A 
ATOM     14  C   UNL     1      -7.495  -0.980  -3.569  0.00  0.00    +0.000 A 
ATOM     15  C   UNL     1      -6.516  -0.299  -4.296  0.00  0.00    +0.000 A 
ATOM     16  C   UNL     1      -5.485   0.358  -3.623  0.00  0.00    +0.000 A 
ATOM     17 CL   UNL     1      -8.767  -1.787  -4.401  0.00  0.00    +0.000 Cl
ENDBRANCH  10  11
ENDBRANCH   1  10
TORSDOF 4
