REMARK  Name = *****
REMARK  4 active torsions:
REMARK  status: ('A' for Active; 'I' for Inactive)
REMARK    1  A    between atoms: C_4  and  C_10
REMARK    2  A    between atoms: C_5  and  C_7
REMARK    3  A    between atoms: C_7  and  C_8
REMARK    4  A    between atoms: C_11  and  C_12
REMARK                            x       y       z     vdW  Elec       q    Type
REMARK                         _______ _______ _______ _____ _____    ______ ____
ROOT
ATOM      1  C   UNL     1      -0.714  -1.061   0.051  0.00  0.00    +0.000 A 
ATOM      2  C   UNL     1      -1.432   0.131   0.065  0.00  0.00    +0.000 A 
ATOM      3  C   UNL     1      -0.759   1.350  -0.018  0.00  0.00    +0.000 A 
ATOM      4  C   UNL     1       0.637   1.384  -0.114  0.00  0.00    +0.000 A 
ATOM      5  C   UNL     1       1.374   0.185  -0.117  0.00  0.00    +0.000 A 
ATOM      6  C   UNL     1       0.678  -1.036  -0.041  0.00  0.00    +0.000 A 
ENDROOT
BRANCH   4   7
ATOM      7  C   UNL     1       1.278   2.661  -0.226  0.00  0.00    +0.000 C 
ATOM      8  C   UNL     1       1.814   3.730  -0.346  0.00  0.00    +0.000 C 
BRANCH   8   9
ATOM      9  C   UNL     1       2.452   4.997  -0.526  0.00  0.00    +0.000 A 
ATOM     10  C   UNL     1       1.804   6.170  -0.130  0.00  0.00    +0.000 A 
ATOM     11  C   UNL     1       2.416   7.410  -0.334  0.00  0.00    +0.000 A 
ATOM     12  C   UNL     1       3.675   7.470  -0.931  0.00  0.00    +0.000 A 
ATOM     13  C   UNL     1       4.329   6.302  -1.320  0.00  0.00    +0.000 A 
ATOM     14  C   UNL     1       3.716   5.063  -1.118  0.00  0.00    +0.000 A 
ATOM     15 CL   UNL     1       4.424   8.997  -1.193  0.00  0.00    +0.000 Cl
ENDBRANCH   8   9
ENDBRANCH   4   7
BRANCH   5  16
ATOM     16  C   UNL     1       2.881   0.166  -0.246  0.00  0.00    +0.000 C 
BRANCH  16  17
ATOM     17  C   UNL     1       3.330   0.182  -1.646  0.00  0.00    +0.000 C 
ATOM     18  N   UNL     1       3.709   0.186  -2.744  0.00  0.00    +0.000 NA
ENDBRANCH  16  17
ENDBRANCH   5  16
TORSDOF 4
