REMARK  Name = *****
REMARK  4 active torsions:
REMARK  status: ('A' for Active; 'I' for Inactive)
REMARK    1  A    between atoms: C_1  and  C_2
REMARK    2  A    between atoms: C_5  and  S_8
REMARK    3  A    between atoms: S_8  and  S_9
REMARK    4  A    between atoms: S_9  and  C_10
REMARK                            x       y       z     vdW  Elec       q    Type
REMARK                         _______ _______ _______ _____ _____    ______ ____
ROOT
ATOM      1  S   UNL     1      -3.437   0.075  -0.189  0.00  0.00    +0.000 S 
ENDROOT
BRANCH   1   6
ATOM      2  C   UNL     1       2.622   0.449   0.359  0.00  0.00    +0.000 C 
ATOM      3  C   UNL     1       1.131   0.381   0.209  0.00  0.00    +0.000 A 
ATOM      4  C   UNL     1       0.297   1.034   1.124  0.00  0.00    +0.000 A 
ATOM      5  C   UNL     1      -1.093   0.946   1.005  0.00  0.00    +0.000 A 
ATOM      6  C   UNL     1      -1.665   0.197  -0.027  0.00  0.00    +0.000 A 
ATOM      7  C   UNL     1      -0.835  -0.474  -0.929  0.00  0.00    +0.000 A 
ATOM      8  C   UNL     1       0.554  -0.385  -0.810  0.00  0.00    +0.000 A 
ENDBRANCH   1   6
BRANCH   1   9
ATOM      9  S   UNL     1      -3.902   1.892  -1.036  0.00  0.00    +0.000 S 
BRANCH   9  10
ATOM     10  C   UNL     1      -3.536   1.591  -2.754  0.00  0.00    +0.000 A 
ATOM     11  C   UNL     1      -4.438   0.894  -3.564  0.00  0.00    +0.000 A 
ATOM     12  C   UNL     1      -4.144   0.664  -4.909  0.00  0.00    +0.000 A 
ATOM     13  C   UNL     1      -2.949   1.134  -5.452  0.00  0.00    +0.000 A 
ATOM     14  C   UNL     1      -2.047   1.835  -4.652  0.00  0.00    +0.000 A 
ATOM     15  C   UNL     1      -2.341   2.065  -3.307  0.00  0.00    +0.000 A 
ENDBRANCH   9  10
ENDBRANCH   1   9
TORSDOF 3
