REMARK  Name = *****
REMARK  3 active torsions:
REMARK  status: ('A' for Active; 'I' for Inactive)
REMARK    1  A    between atoms: C_5  and  C_6
REMARK    2  A    between atoms: C_5  and  S_8
REMARK    3  A    between atoms: S_8  and  C_10
REMARK                            x       y       z     vdW  Elec       q    Type
REMARK                         _______ _______ _______ _____ _____    ______ ____
ROOT
ATOM      1  C   UNL     1      -1.023   1.348   2.758  0.00  0.00    +0.000 C 
ATOM      2  C   UNL     1      -0.094   2.494   3.105  0.00  0.00    +0.000 C 
ATOM      3  S   UNL     1       1.045   2.720   1.706  0.00  0.00    +0.000 S 
ATOM      4  C   UNL     1      -0.104   2.295   0.447  0.00  0.00    +0.000 C 
ATOM      5  C   UNL     1       0.128   2.456  -0.872  0.00  0.00    +0.000 C 
ATOM      6  S   UNL     1      -1.608   1.623   1.062  0.00  0.00    +0.000 S 
ENDROOT
BRANCH   5   7
ATOM      7  C   UNL     1      -0.810   2.087  -1.880  0.00  0.00    +0.000 C 
ATOM      8  N   UNL     1      -1.595   1.804  -2.689  0.00  0.00    +0.000 NA
ENDBRANCH   5   7
BRANCH   5   9
ATOM      9  S   UNL     1       1.676   3.141  -1.464  0.00  0.00    +0.000 S 
ATOM     10  O   UNL     1       1.951   2.484  -2.786  0.00  0.00    +0.000 OA
BRANCH   9  11
ATOM     11  C   UNL     1       1.101   4.811  -1.875  0.00  0.00    +0.000 A 
ATOM     12  C   UNL     1       1.057   5.791  -0.877  0.00  0.00    +0.000 A 
ATOM     13  C   UNL     1       0.606   7.078  -1.176  0.00  0.00    +0.000 A 
ATOM     14  C   UNL     1       0.204   7.392  -2.474  0.00  0.00    +0.000 A 
ATOM     15  C   UNL     1       0.254   6.423  -3.474  0.00  0.00    +0.000 A 
ATOM     16  C   UNL     1       0.704   5.135  -3.177  0.00  0.00    +0.000 A 
ENDBRANCH   9  11
ENDBRANCH   5   9
TORSDOF 3
