REMARK  Name = *****
REMARK  2 active torsions:
REMARK  status: ('A' for Active; 'I' for Inactive)
REMARK    1  A    between atoms: C_6  and  C_7
REMARK    2  A    between atoms: C_7  and  N_8
REMARK                            x       y       z     vdW  Elec       q    Type
REMARK                         _______ _______ _______ _____ _____    ______ ____
ROOT
ATOM      1  N   UNL     1       5.176   1.968  -0.026  0.00  0.00    +0.000 N 
ATOM      2  C   UNL     1       5.502   2.042  -1.355  0.00  0.00    +0.000 A 
ATOM      3  C   UNL     1       5.960   3.349  -1.489  0.00  0.00    +0.000 A 
ATOM      4  C   UNL     1       6.389   3.809  -2.743  0.00  0.00    +0.000 A 
ATOM      5  C   UNL     1       6.342   2.927  -3.831  0.00  0.00    +0.000 A 
ATOM      6  C   UNL     1       5.877   1.620  -3.668  0.00  0.00    +0.000 A 
ATOM      7  C   UNL     1       5.444   1.142  -2.425  0.00  0.00    +0.000 A 
ATOM      8 CL   UNL     1       5.834   0.564  -5.029  0.00  0.00    +0.000 Cl
ATOM      9  N   UNL     1       5.903   3.984  -0.279  0.00  0.00    +0.000 NA
ATOM     10  N   UNL     1       5.429   3.127   0.615  0.00  0.00    +0.000 NA
ENDROOT
BRANCH   1  11
ATOM     11  C   UNL     1       4.668   0.827   0.715  0.00  0.00    +0.000 C 
BRANCH  11  17
ATOM     12  C   UNL     1       2.243   1.563   0.748  0.00  0.00    +0.000 A 
ATOM     13  C   UNL     1       0.887   1.330   0.510  0.00  0.00    +0.000 A 
ATOM     14  C   UNL     1       0.478   0.110  -0.023  0.00  0.00    +0.000 A 
ATOM     15  C   UNL     1       1.414  -0.879  -0.318  0.00  0.00    +0.000 A 
ATOM     16  C   UNL     1       2.771  -0.646  -0.081  0.00  0.00    +0.000 A 
ATOM     17  C   UNL     1       3.202   0.582   0.447  0.00  0.00    +0.000 A 
ATOM     18 CL   UNL     1      -1.192  -0.180  -0.314  0.00  0.00    +0.000 Cl
ENDBRANCH  11  17
ENDBRANCH   1  11
TORSDOF 2
