REMARK  Name = *****
REMARK  3 active torsions:
REMARK  status: ('A' for Active; 'I' for Inactive)
REMARK    1  A    between atoms: N_2  and  C_3
REMARK    2  A    between atoms: C_8  and  C_9
REMARK    3  A    between atoms: C_10  and  C_11
REMARK                            x       y       z     vdW  Elec       q    Type
REMARK                         _______ _______ _______ _____ _____    ______ ____
ROOT
ATOM      1  C   UNL     1      -0.427   2.548   0.237  0.00  0.00    +0.000 C 
ATOM      2  C   UNL     1      -1.599   2.838  -0.351  0.00  0.00    +0.000 C 
ENDROOT
BRANCH   2   3
ATOM      3  C   UNL     1      -2.282   4.132  -0.215  0.00  0.00    +0.000 A 
ATOM      4  C   UNL     1      -3.679   4.139  -0.097  0.00  0.00    +0.000 A 
ATOM      5  C   UNL     1      -4.381   5.344   0.007  0.00  0.00    +0.000 A 
ATOM      6  C   UNL     1      -3.697   6.559  -0.014  0.00  0.00    +0.000 A 
ATOM      7  C   UNL     1      -2.310   6.568  -0.145  0.00  0.00    +0.000 A 
ATOM      8  C   UNL     1      -1.615   5.364  -0.248  0.00  0.00    +0.000 A 
ATOM      9  F   UNL     1      -0.281   5.417  -0.394  0.00  0.00    +0.000 F 
ENDBRANCH   2   3
BRANCH   1  15
ATOM     10  C   UNL     1      -0.323   0.031   0.516  0.00  0.00    +0.000 A 
ATOM     11  C   UNL     1       0.357  -1.180   0.354  0.00  0.00    +0.000 A 
ATOM     12  C   UNL     1       1.615  -1.187  -0.245  0.00  0.00    +0.000 A 
ATOM     13  C   UNL     1       2.187   0.011  -0.673  0.00  0.00    +0.000 A 
ATOM     14  C   UNL     1       1.501   1.219  -0.506  0.00  0.00    +0.000 A 
ATOM     15  C   UNL     1       0.231   1.245   0.085  0.00  0.00    +0.000 A 
BRANCH  10  17
ATOM     16  C   UNL     1      -2.612  -0.074   1.666  0.00  0.00    +0.000 C 
ATOM     17  N   UNL     1      -1.566  -0.007   1.140  0.00  0.00    +0.000 NA
ENDBRANCH  10  17
ENDBRANCH   1  15
TORSDOF 3
