REMARK  Name = *****
REMARK  1 active torsions:
REMARK  status: ('A' for Active; 'I' for Inactive)
REMARK    1  A    between atoms: N_10  and  C_11
REMARK                            x       y       z     vdW  Elec       q    Type
REMARK                         _______ _______ _______ _____ _____    ______ ____
ROOT
ATOM      1  C   UNL     1      -1.944   0.390  -0.372  0.00  0.00    +0.000 C 
ATOM      2  C   UNL     1      -0.461   0.409  -0.183  0.00  0.00    +0.000 A 
ATOM      3  C   UNL     1       0.362   1.529  -0.163  0.00  0.00    +0.000 A 
ATOM      4  C   UNL     1       1.732   1.353   0.049  0.00  0.00    +0.000 A 
ATOM      5  C   UNL     1       2.263   0.070   0.241  0.00  0.00    +0.000 A 
ATOM      6  C   UNL     1       1.429  -1.049   0.215  0.00  0.00    +0.000 A 
ATOM      7  C   UNL     1       0.071  -0.861  -0.005  0.00  0.00    +0.000 A 
ATOM      8  S   UNL     1      -1.154  -2.147  -0.115  0.00  0.00    +0.000 S 
ATOM      9  O   UNL     1      -1.119  -2.872   1.196  0.00  0.00    +0.000 OA
ATOM     10  N   UNL     1      -2.390  -0.991  -0.143  0.00  0.00    +0.000 N 
ENDROOT
BRANCH  10  11
ATOM     11  C   UNL     1      -3.759  -1.310  -0.128  0.00  0.00    +0.000 A 
ATOM     12  C   UNL     1      -4.226  -2.594   0.213  0.00  0.00    +0.000 A 
ATOM     13  C   UNL     1      -5.590  -2.916   0.222  0.00  0.00    +0.000 A 
ATOM     14  C   UNL     1      -6.529  -1.952  -0.113  0.00  0.00    +0.000 A 
ATOM     15  C   UNL     1      -6.113  -0.671  -0.449  0.00  0.00    +0.000 A 
ATOM     16  C   UNL     1      -4.746  -0.358  -0.453  0.00  0.00    +0.000 A 
ATOM     17 CL   UNL     1      -8.204  -2.339  -0.108  0.00  0.00    +0.000 Cl
ENDBRANCH  10  11
TORSDOF 1
