REMARK  Name = *****
REMARK  2 active torsions:
REMARK  status: ('A' for Active; 'I' for Inactive)
REMARK    1  A    between atoms: C_2  and  S_10
REMARK    2  A    between atoms: S_10  and  C_11
REMARK                            x       y       z     vdW  Elec       q    Type
REMARK                         _______ _______ _______ _____ _____    ______ ____
ROOT
ATOM      1  C   UNL     1       1.755   1.210   0.259  0.00  0.00    +0.000 C 
ATOM      2  C   UNL     1       2.567  -0.023  -0.191  0.00  0.00    +0.000 C 
ATOM      3  C   UNL     1       1.698  -1.253   0.148  0.00  0.00    +0.000 C 
ATOM      4  C   UNL     1       0.320  -0.681  -0.001  0.00  0.00    +0.000 A 
ATOM      5  C   UNL     1      -0.877  -1.363  -0.133  0.00  0.00    +0.000 A 
ATOM      6  C   UNL     1      -2.056  -0.619  -0.216  0.00  0.00    +0.000 A 
ATOM      7  C   UNL     1      -2.024   0.784  -0.151  0.00  0.00    +0.000 A 
ATOM      8  C   UNL     1      -0.812   1.462  -0.004  0.00  0.00    +0.000 A 
ATOM      9  C   UNL     1       0.353   0.717   0.064  0.00  0.00    +0.000 A 
ENDROOT
BRANCH   2  10
ATOM     10  S   UNL     1       4.215  -0.139   0.592  0.00  0.00    +0.000 S 
BRANCH  10  11
ATOM     11  C   UNL     1       4.974   1.343  -0.044  0.00  0.00    +0.000 A 
ATOM     12  C   UNL     1       5.404   2.328   0.851  0.00  0.00    +0.000 A 
ATOM     13  C   UNL     1       6.005   3.496   0.378  0.00  0.00    +0.000 A 
ATOM     14  C   UNL     1       6.188   3.682  -0.991  0.00  0.00    +0.000 A 
ATOM     15  C   UNL     1       5.775   2.698  -1.888  0.00  0.00    +0.000 A 
ATOM     16  C   UNL     1       5.174   1.529  -1.415  0.00  0.00    +0.000 A 
ENDBRANCH  10  11
ENDBRANCH   2  10
TORSDOF 2
