REMARK  Name = *****
REMARK  4 active torsions:
REMARK  status: ('A' for Active; 'I' for Inactive)
REMARK    1  A    between atoms: C_3  and  O_9
REMARK    2  A    between atoms: O_9  and  C_10
REMARK    3  A    between atoms: C_10  and  C_12
REMARK    4  A    between atoms: C_12  and  C_13
REMARK                            x       y       z     vdW  Elec       q    Type
REMARK                         _______ _______ _______ _____ _____    ______ ____
ROOT
ATOM      1  O   UNL     1      -1.058  -3.313  -0.516  0.00  0.00    +0.000 OA
ENDROOT
BRANCH   1   4
ATOM      2  C   UNL     1      -0.914  -0.353  -2.684  0.00  0.00    +0.000 A 
ATOM      3  C   UNL     1      -1.094  -1.666  -2.254  0.00  0.00    +0.000 A 
ATOM      4  C   UNL     1      -0.898  -1.979  -0.907  0.00  0.00    +0.000 A 
ATOM      5  C   UNL     1      -0.491  -1.009   0.019  0.00  0.00    +0.000 A 
ATOM      6  C   UNL     1      -0.312   0.307  -0.424  0.00  0.00    +0.000 A 
ATOM      7  C   UNL     1      -0.527   0.631  -1.771  0.00  0.00    +0.000 A 
ATOM      8 CL   UNL     1       0.185   1.582   0.632  0.00  0.00    +0.000 Cl
ATOM      9 CL   UNL     1      -0.206  -1.465   1.665  0.00  0.00    +0.000 Cl
ENDBRANCH   1   4
BRANCH   1  10
ATOM     10  C   UNL     1      -2.356  -3.590  -0.080  0.00  0.00    +0.000 C 
ATOM     11  O   UNL     1      -3.305  -2.819  -0.141  0.00  0.00    +0.000 OA
BRANCH  10  12
ATOM     12  C   UNL     1      -2.386  -5.029   0.394  0.00  0.00    +0.000 C 
BRANCH  12  13
ATOM     13  C   UNL     1      -3.614  -5.313   1.205  0.00  0.00    +0.000 A 
ATOM     14  C   UNL     1      -4.859  -5.718   0.766  0.00  0.00    +0.000 A 
ATOM     15  C   UNL     1      -5.780  -5.896   1.838  0.00  0.00    +0.000 A 
ATOM     16  C   UNL     1      -5.207  -5.626   3.060  0.00  0.00    +0.000 A 
ATOM     17  S   UNL     1      -3.570  -5.160   2.913  0.00  0.00    +0.000 S 
ENDBRANCH  12  13
ENDBRANCH  10  12
ENDBRANCH   1  10
TORSDOF 4
