REMARK  Name = *****
REMARK  3 active torsions:
REMARK  status: ('A' for Active; 'I' for Inactive)
REMARK    1  A    between atoms: C_4  and  C_7
REMARK    2  A    between atoms: C_7  and  C_11
REMARK    3  A    between atoms: C_11  and  C_12
REMARK                            x       y       z     vdW  Elec       q    Type
REMARK                         _______ _______ _______ _____ _____    ______ ____
ROOT
ATOM      1  C   UNL     1      -2.795   1.088  -0.180  0.00  0.00    +0.000 C 
ATOM      2  C   UNL     1      -2.945   2.414  -0.046  0.00  0.00    +0.000 C 
ATOM      3  F   UNL     1      -4.176   2.937   0.139  0.00  0.00    +0.000 F 
ATOM      4  F   UNL     1      -1.879   3.242  -0.097  0.00  0.00    +0.000 F 
ENDROOT
BRANCH   1   8
ATOM      5  C   UNL     1       1.102  -0.576  -0.705  0.00  0.00    +0.000 A 
ATOM      6  C   UNL     1       0.518  -0.556   0.561  0.00  0.00    +0.000 A 
ATOM      7  C   UNL     1      -0.756  -0.012   0.734  0.00  0.00    +0.000 A 
ATOM      8  C   UNL     1      -1.452   0.516  -0.360  0.00  0.00    +0.000 A 
ATOM      9  C   UNL     1      -0.856   0.497  -1.627  0.00  0.00    +0.000 A 
ATOM     10  C   UNL     1       0.416  -0.051  -1.798  0.00  0.00    +0.000 A 
ENDBRANCH   1   8
BRANCH   1  11
ATOM     11  C   UNL     1      -3.950   0.124  -0.100  0.00  0.00    +0.000 C 
BRANCH  11  12
ATOM     12  C   UNL     1      -4.385  -0.393  -1.455  0.00  0.00    +0.000 A 
ATOM     13  C   UNL     1      -3.897  -1.615  -1.943  0.00  0.00    +0.000 A 
ATOM     14  C   UNL     1      -4.279  -2.074  -3.204  0.00  0.00    +0.000 A 
ATOM     15  C   UNL     1      -5.145  -1.311  -3.978  0.00  0.00    +0.000 A 
ATOM     16  C   UNL     1      -5.635  -0.096  -3.516  0.00  0.00    +0.000 A 
ATOM     17  C   UNL     1      -5.254   0.366  -2.256  0.00  0.00    +0.000 A 
ATOM     18  F   UNL     1      -5.509  -1.752  -5.189  0.00  0.00    +0.000 F 
ENDBRANCH  11  12
ENDBRANCH   1  11
TORSDOF 3
