REMARK  Name = *****
REMARK  3 active torsions:
REMARK  status: ('A' for Active; 'I' for Inactive)
REMARK    1  A    between atoms: C_6  and  C_7
REMARK    2  A    between atoms: C_8  and  C_9
REMARK    3  A    between atoms: C_12  and  C_15
REMARK                            x       y       z     vdW  Elec       q    Type
REMARK                         _______ _______ _______ _____ _____    ______ ____
ROOT
ATOM      1  C   UNL     1       2.611   4.909  -0.719  0.00  0.00    +0.000 A 
ATOM      2  N   UNL     1       1.847   5.995  -0.473  0.00  0.00    +0.000 NA
ATOM      3  C   UNL     1       2.430   7.204  -0.644  0.00  0.00    +0.000 A 
ATOM      4  C   UNL     1       3.747   7.382  -1.046  0.00  0.00    +0.000 A 
ATOM      5  C   UNL     1       4.506   6.234  -1.301  0.00  0.00    +0.000 A 
ATOM      6  C   UNL     1       3.933   4.975  -1.132  0.00  0.00    +0.000 A 
ENDROOT
BRANCH   4   7
ATOM      7  C   UNL     1       4.297   8.762  -1.232  0.00  0.00    +0.000 C 
ATOM      8  F   UNL     1       3.754   9.674  -0.379  0.00  0.00    +0.000 F 
ATOM      9  F   UNL     1       5.643   8.830  -1.040  0.00  0.00    +0.000 F 
ATOM     10  F   UNL     1       4.074   9.243  -2.485  0.00  0.00    +0.000 F 
ENDBRANCH   4   7
BRANCH   1  12
ATOM     11  C   UNL     1       1.400   2.604  -0.361  0.00  0.00    +0.000 C 
ATOM     12  C   UNL     1       1.957   3.656  -0.525  0.00  0.00    +0.000 C 
BRANCH  11  18
ATOM     13  C   UNL     1      -0.670   1.330  -0.072  0.00  0.00    +0.000 A 
ATOM     14  C   UNL     1      -1.331   0.115   0.119  0.00  0.00    +0.000 A 
ATOM     15  C   UNL     1      -0.592  -1.060   0.214  0.00  0.00    +0.000 A 
ATOM     16  C   UNL     1       0.796  -1.043   0.123  0.00  0.00    +0.000 A 
ATOM     17  C   UNL     1       1.458   0.172  -0.068  0.00  0.00    +0.000 A 
ATOM     18  C   UNL     1       0.725   1.359  -0.166  0.00  0.00    +0.000 A 
ATOM     19  F   UNL     1      -1.226  -2.225   0.397  0.00  0.00    +0.000 F 
ENDBRANCH  11  18
ENDBRANCH   1  12
TORSDOF 3
