REMARK  Name = *****
REMARK  4 active torsions:
REMARK  status: ('A' for Active; 'I' for Inactive)
REMARK    1  A    between atoms: C_4  and  N_7
REMARK    2  A    between atoms: N_7  and  C_8
REMARK    3  A    between atoms: C_8  and  C_10
REMARK    4  A    between atoms: C_15  and  S_16
REMARK                            x       y       z     vdW  Elec       q    Type
REMARK                         _______ _______ _______ _____ _____    ______ ____
ROOT
ATOM      1  C   UNL     1      -3.804  -0.550  -0.580  0.00  0.00    +0.000 C 
ATOM      2  S   UNL     1      -3.540  -1.461  -1.962  0.00  0.00    +0.000 S 
ENDROOT
BRANCH   1   3
ATOM      3  C   UNL     1      -5.205  -0.177  -0.229  0.00  0.00    +0.000 A 
ATOM      4  C   UNL     1      -5.964  -1.119   0.483  0.00  0.00    +0.000 A 
ATOM      5  C   UNL     1      -7.268  -0.812   0.868  0.00  0.00    +0.000 A 
ATOM      6  C   UNL     1      -7.810   0.432   0.553  0.00  0.00    +0.000 A 
ATOM      7  C   UNL     1      -7.051   1.373  -0.149  0.00  0.00    +0.000 A 
ATOM      8  C   UNL     1      -5.741   1.081  -0.552  0.00  0.00    +0.000 A 
BRANCH   8   9
ATOM      9  S   UNL     1      -4.840   2.354  -1.423  0.00  0.00    +0.000 S 
ATOM     10  H   UNL     1      -3.597   1.897  -1.732  0.00  0.00    +0.000 HD
ENDBRANCH   8   9
ENDBRANCH   1   3
BRANCH   1  11
ATOM     11  N   UNL     1      -2.897  -0.022   0.329  0.00  0.00    +0.000 N 
ATOM     12  H   UNL     1      -3.313   0.555   1.010  0.00  0.00    +0.000 HD
BRANCH  11  16
ATOM     13  C   UNL     1       1.282  -0.230   0.948  0.00  0.00    +0.000 A 
ATOM     14  C   UNL     1       0.699  -1.085   0.018  0.00  0.00    +0.000 A 
ATOM     15  C   UNL     1      -0.682  -1.045  -0.216  0.00  0.00    +0.000 A 
ATOM     16  C   UNL     1      -1.495  -0.146   0.472  0.00  0.00    +0.000 A 
ATOM     17  C   UNL     1      -0.894   0.701   1.418  0.00  0.00    +0.000 A 
ATOM     18  C   UNL     1       0.483   0.664   1.652  0.00  0.00    +0.000 A 
ENDBRANCH  11  16
ENDBRANCH   1  11
TORSDOF 4
