REMARK  Name = *****
REMARK  4 active torsions:
REMARK  status: ('A' for Active; 'I' for Inactive)
REMARK    1  A    between atoms: C_1  and  C_2
REMARK    2  A    between atoms: C_5  and  O_8
REMARK    3  A    between atoms: O_8  and  C_9
REMARK    4  A    between atoms: C_9  and  C_11
REMARK                            x       y       z     vdW  Elec       q    Type
REMARK                         _______ _______ _______ _____ _____    ______ ____
ROOT
ATOM      1  C   UNL     1      -5.348   0.666  -0.291  0.00  0.00    +0.000 A 
ATOM      2  C   UNL     1      -6.119   1.823  -0.351  0.00  0.00    +0.000 A 
ATOM      3  C   UNL     1      -7.485   1.761  -0.097  0.00  0.00    +0.000 A 
ATOM      4  C   UNL     1      -8.083   0.546   0.210  0.00  0.00    +0.000 A 
ATOM      5  C   UNL     1      -7.316  -0.611   0.264  0.00  0.00    +0.000 A 
ATOM      6  C   UNL     1      -5.949  -0.554   0.012  0.00  0.00    +0.000 A 
ATOM      7  F   UNL     1      -5.227  -1.682   0.045  0.00  0.00    +0.000 F 
ATOM      8  F   UNL     1      -7.892  -1.784   0.555  0.00  0.00    +0.000 F 
ATOM      9  F   UNL     1      -9.399   0.489   0.456  0.00  0.00    +0.000 F 
ATOM     10  F   UNL     1      -8.224   2.878  -0.143  0.00  0.00    +0.000 F 
ATOM     11  F   UNL     1      -5.555   3.008  -0.623  0.00  0.00    +0.000 F 
ENDROOT
BRANCH   1  12
ATOM     12  C   UNL     1      -3.918   0.738  -0.587  0.00  0.00    +0.000 C 
ATOM     13  O   UNL     1      -3.476   1.245  -1.602  0.00  0.00    +0.000 OA
BRANCH  12  14
ATOM     14  O   UNL     1      -3.244   0.187   0.481  0.00  0.00    +0.000 OA
BRANCH  14  19
ATOM     15  C   UNL     1       2.417   0.033   0.020  0.00  0.00    +0.000 C 
ATOM     16  C   UNL     1       0.920   0.089   0.108  0.00  0.00    +0.000 A 
ATOM     17  C   UNL     1       0.268   1.307   0.347  0.00  0.00    +0.000 A 
ATOM     18  C   UNL     1      -1.122   1.356   0.457  0.00  0.00    +0.000 A 
ATOM     19  C   UNL     1      -1.856   0.180   0.321  0.00  0.00    +0.000 A 
ATOM     20  C   UNL     1      -1.227  -1.045   0.119  0.00  0.00    +0.000 A 
ATOM     21  C   UNL     1       0.164  -1.088   0.010  0.00  0.00    +0.000 A 
ENDBRANCH  14  19
ENDBRANCH  12  14
ENDBRANCH   1  12
TORSDOF 3
