REMARK  Name = *****
REMARK  3 active torsions:
REMARK  status: ('A' for Active; 'I' for Inactive)
REMARK    1  A    between atoms: C_1  and  C_2
REMARK    2  A    between atoms: C_4  and  C_8
REMARK    3  A    between atoms: C_9  and  C_10
REMARK                            x       y       z     vdW  Elec       q    Type
REMARK                         _______ _______ _______ _____ _____    ______ ____
ROOT
ATOM      1  C   UNL     1       1.730  -4.335  -2.295  0.00  0.00    +0.000 C 
ATOM      2  C   UNL     1       1.210  -5.417  -2.340  0.00  0.00    +0.000 C 
ENDROOT
BRANCH   1   6
ATOM      3  C   UNL     1       1.923  -0.086  -0.121  0.00  0.00    +0.000 C 
ATOM      4  C   UNL     1       2.440  -0.998  -1.193  0.00  0.00    +0.000 A 
ATOM      5  N   UNL     1       1.882  -2.228  -1.283  0.00  0.00    +0.000 NA
ATOM      6  C   UNL     1       2.352  -3.050  -2.246  0.00  0.00    +0.000 A 
ATOM      7  C   UNL     1       3.358  -2.707  -3.135  0.00  0.00    +0.000 A 
ATOM      8  C   UNL     1       3.920  -1.440  -3.028  0.00  0.00    +0.000 A 
ATOM      9  C   UNL     1       3.457  -0.571  -2.044  0.00  0.00    +0.000 A 
ENDBRANCH   1   6
BRANCH   2  10
ATOM     10  C   UNL     1       0.590  -6.704  -2.396  0.00  0.00    +0.000 A 
ATOM     11  C   UNL     1       1.326  -7.850  -2.086  0.00  0.00    +0.000 A 
ATOM     12  C   UNL     1       0.720  -9.107  -2.144  0.00  0.00    +0.000 A 
ATOM     13  C   UNL     1      -0.622  -9.218  -2.510  0.00  0.00    +0.000 A 
ATOM     14  C   UNL     1      -1.359  -8.075  -2.819  0.00  0.00    +0.000 A 
ATOM     15  C   UNL     1      -0.754  -6.818  -2.762  0.00  0.00    +0.000 A 
ENDBRANCH   2  10
TORSDOF 2
