REMARK  Name = *****
REMARK  3 active torsions:
REMARK  status: ('A' for Active; 'I' for Inactive)
REMARK    1  A    between atoms: C_4  and  S_7
REMARK    2  A    between atoms: S_7  and  C_9
REMARK    3  A    between atoms: C_9  and  C_10
REMARK                            x       y       z     vdW  Elec       q    Type
REMARK                         _______ _______ _______ _____ _____    ______ ____
ROOT
ATOM      1  S   UNL     1      -3.122   0.822  -0.192  0.00  0.00    +0.000 S 
ATOM      2  O   UNL     1      -3.142   1.555  -1.504  0.00  0.00    +0.000 OA
ENDROOT
BRANCH   1   6
ATOM      3  C   UNL     1       1.177  -0.753   0.320  0.00  0.00    +0.000 A 
ATOM      4  C   UNL     1       0.786  -0.192  -0.895  0.00  0.00    +0.000 A 
ATOM      5  C   UNL     1      -0.515   0.289  -1.056  0.00  0.00    +0.000 A 
ATOM      6  C   UNL     1      -1.432   0.206  -0.003  0.00  0.00    +0.000 A 
ATOM      7  C   UNL     1      -1.030  -0.347   1.218  0.00  0.00    +0.000 A 
ATOM      8  C   UNL     1       0.271  -0.829   1.377  0.00  0.00    +0.000 A 
ENDBRANCH   1   6
BRANCH   1   9
ATOM      9  C   UNL     1      -3.914  -0.803  -0.455  0.00  0.00    +0.000 C 
BRANCH   9  10
ATOM     10  C   UNL     1      -5.415  -0.686  -0.550  0.00  0.00    +0.000 A 
ATOM     11  C   UNL     1      -6.018  -0.246  -1.739  0.00  0.00    +0.000 A 
ATOM     12  C   UNL     1      -7.407  -0.127  -1.829  0.00  0.00    +0.000 A 
ATOM     13  C   UNL     1      -8.201  -0.444  -0.730  0.00  0.00    +0.000 A 
ATOM     14  C   UNL     1      -7.618  -0.876   0.459  0.00  0.00    +0.000 A 
ATOM     15  C   UNL     1      -6.229  -0.995   0.551  0.00  0.00    +0.000 A 
ATOM     16 CL   UNL     1      -9.912  -0.298  -0.840  0.00  0.00    +0.000 Cl
ENDBRANCH   9  10
ENDBRANCH   1   9
TORSDOF 3
