REMARK  Name = *****
REMARK  3 active torsions:
REMARK  status: ('A' for Active; 'I' for Inactive)
REMARK    1  A    between atoms: C_4  and  C_7
REMARK    2  A    between atoms: C_7  and  C_8
REMARK    3  A    between atoms: C_9  and  C_10
REMARK                            x       y       z     vdW  Elec       q    Type
REMARK                         _______ _______ _______ _____ _____    ______ ____
ROOT
ATOM      1  C   UNL     1      -2.828   0.401  -0.139  0.00  0.00    +0.000 C 
ENDROOT
BRANCH   1   5
ATOM      2  C   UNL     1       1.400  -0.296   0.373  0.00  0.00    +0.000 A 
ATOM      3  C   UNL     1       0.913   0.165  -0.849  0.00  0.00    +0.000 A 
ATOM      4  C   UNL     1      -0.454   0.393  -1.016  0.00  0.00    +0.000 A 
ATOM      5  C   UNL     1      -1.347   0.167   0.041  0.00  0.00    +0.000 A 
ATOM      6  C   UNL     1      -0.846  -0.302   1.264  0.00  0.00    +0.000 A 
ATOM      7  C   UNL     1       0.521  -0.530   1.429  0.00  0.00    +0.000 A 
ENDBRANCH   1   5
BRANCH   1   8
ATOM      8  C   UNL     1      -3.588  -0.882  -0.335  0.00  0.00    +0.000 C 
ATOM      9  C   UNL     1      -4.599  -1.280   0.456  0.00  0.00    +0.000 C 
BRANCH   9  10
ATOM     10  C   UNL     1      -5.354  -2.491   0.318  0.00  0.00    +0.000 A 
ATOM     11  C   UNL     1      -6.439  -2.765   1.127  0.00  0.00    +0.000 A 
ATOM     12  S   UNL     1      -7.167  -4.271   0.763  0.00  0.00    +0.000 S 
ATOM     13  C   UNL     1      -6.034  -4.576  -0.480  0.00  0.00    +0.000 A 
ATOM     14  C   UNL     1      -5.123  -3.550  -0.613  0.00  0.00    +0.000 A 
ENDBRANCH   9  10
ENDBRANCH   1   8
TORSDOF 3
