REMARK  Name = *****
REMARK  7 active torsions:
REMARK  status: ('A' for Active; 'I' for Inactive)
REMARK    1  A    between atoms: C_1  and  C_2
REMARK    2  A    between atoms: C_4  and  C_17
REMARK    3  A    between atoms: C_5  and  S_9
REMARK    4  A    between atoms: C_6  and  C_8
REMARK    5  A    between atoms: S_9  and  S_10
REMARK    6  A    between atoms: S_10  and  C_11
REMARK    7  A    between atoms: N_15  and  C_16
REMARK                            x       y       z     vdW  Elec       q    Type
REMARK                         _______ _______ _______ _____ _____    ______ ____
ROOT
ATOM      1  C   UNL     1       2.207   1.928   0.047  0.00  0.00    +0.000 C 
ATOM      2  C   UNL     1       1.150   0.864   0.043  0.00  0.00    +0.000 A 
ATOM      3  C   UNL     1       1.473  -0.470  -0.205  0.00  0.00    +0.000 A 
ATOM      4  C   UNL     1       0.482  -1.471  -0.227  0.00  0.00    +0.000 A 
ATOM      5  C   UNL     1      -0.867  -1.126   0.038  0.00  0.00    +0.000 A 
ATOM      6  C   UNL     1      -1.207   0.235   0.225  0.00  0.00    +0.000 A 
ATOM      7  C   UNL     1      -0.188   1.206   0.241  0.00  0.00    +0.000 A 
ATOM      8  C   UNL     1      -2.611   0.734   0.460  0.00  0.00    +0.000 C 
ATOM      9  C   UNL     1       0.932  -2.881  -0.512  0.00  0.00    +0.000 C 
ENDROOT
BRANCH   5  10
ATOM     10  S   UNL     1      -2.149  -2.394   0.075  0.00  0.00    +0.000 S 
BRANCH  10  11
ATOM     11  S   UNL     1      -1.760  -3.396   1.829  0.00  0.00    +0.000 S 
BRANCH  11  12
ATOM     12  C   UNL     1      -2.651  -2.470   2.983  0.00  0.00    +0.000 A 
ATOM     13  N   UNL     1      -3.330  -1.360   2.809  0.00  0.00    +0.000 NA
ATOM     14  N   UNL     1      -3.845  -1.031   4.040  0.00  0.00    +0.000 NA
ATOM     15  N   UNL     1      -3.503  -1.928   4.955  0.00  0.00    +0.000 NA
ATOM     16  N   UNL     1      -2.758  -2.833   4.295  0.00  0.00    +0.000 N 
ATOM     17  C   UNL     1      -2.242  -3.986   4.978  0.00  0.00    +0.000 C 
ENDBRANCH  11  12
ENDBRANCH  10  11
ENDBRANCH   5  10
TORSDOF 3
