REMARK  Name = *****
REMARK  1 active torsions:
REMARK  status: ('A' for Active; 'I' for Inactive)
REMARK    1  A    between atoms: C_9  and  C_11
REMARK                            x       y       z     vdW  Elec       q    Type
REMARK                         _______ _______ _______ _____ _____    ______ ____
ROOT
ATOM      1  C   UNL     1       2.509  -0.609  -0.373  0.00  0.00    +0.000 C 
ATOM      2  C   UNL     1       2.479   0.665   0.461  0.00  0.00    +0.000 C 
ATOM      3  C   UNL     1       1.244   1.497   0.123  0.00  0.00    +0.000 C 
ATOM      4  C   UNL     1      -0.028   0.686   0.079  0.00  0.00    +0.000 A 
ATOM      5  C   UNL     1      -0.003  -0.712  -0.049  0.00  0.00    +0.000 A 
ATOM      6  C   UNL     1       1.295  -1.481  -0.059  0.00  0.00    +0.000 C 
ATOM      7  C   UNL     1      -1.213  -1.415  -0.108  0.00  0.00    +0.000 A 
ATOM      8  C   UNL     1      -2.434  -0.737  -0.070  0.00  0.00    +0.000 A 
ATOM      9  C   UNL     1      -2.484   0.660   0.036  0.00  0.00    +0.000 A 
ATOM     10  C   UNL     1      -1.265   1.355   0.106  0.00  0.00    +0.000 A 
ENDROOT
BRANCH   9  11
ATOM     11  C   UNL     1      -3.772   1.375   0.070  0.00  0.00    +0.000 A 
ATOM     12  C   UNL     1      -4.787   1.001   0.966  0.00  0.00    +0.000 A 
ATOM     13  C   UNL     1      -6.009   1.679   0.999  0.00  0.00    +0.000 A 
ATOM     14  C   UNL     1      -6.237   2.745   0.134  0.00  0.00    +0.000 A 
ATOM     15  C   UNL     1      -5.246   3.134  -0.763  0.00  0.00    +0.000 A 
ATOM     16  C   UNL     1      -4.025   2.455  -0.794  0.00  0.00    +0.000 A 
ENDBRANCH   9  11
TORSDOF 1
