REMARK  Name = *****
REMARK  3 active torsions:
REMARK  status: ('A' for Active; 'I' for Inactive)
REMARK    1  A    between atoms: C_3  and  S_8
REMARK    2  A    between atoms: S_8  and  S_9
REMARK    3  A    between atoms: S_9  and  C_10
REMARK                            x       y       z     vdW  Elec       q    Type
REMARK                         _______ _______ _______ _____ _____    ______ ____
ROOT
ATOM      1  C   UNL     1       0.138  -1.237  -0.579  0.00  0.00    +0.000 A 
ATOM      2  C   UNL     1      -1.251  -1.250  -0.437  0.00  0.00    +0.000 A 
ATOM      3  C   UNL     1      -1.918  -0.123   0.059  0.00  0.00    +0.000 A 
ATOM      4  C   UNL     1      -1.184   1.020   0.401  0.00  0.00    +0.000 A 
ATOM      5  C   UNL     1       0.205   1.032   0.258  0.00  0.00    +0.000 A 
ATOM      6  C   UNL     1       0.852  -0.097  -0.230  0.00  0.00    +0.000 A 
ATOM      7  F   UNL     1       2.184  -0.086  -0.366  0.00  0.00    +0.000 F 
ENDROOT
BRANCH   3   8
ATOM      8  S   UNL     1      -3.691  -0.124   0.245  0.00  0.00    +0.000 S 
BRANCH   8   9
ATOM      9  S   UNL     1      -3.921  -1.186   1.994  0.00  0.00    +0.000 S 
BRANCH   9  10
ATOM     10  C   UNL     1      -3.591   0.050   3.201  0.00  0.00    +0.000 A 
ATOM     11  N   UNL     1      -3.650   1.343   2.959  0.00  0.00    +0.000 NA
ATOM     12  C   UNL     1      -3.347   2.048   4.107  0.00  0.00    +0.000 A 
ATOM     13  C   UNL     1      -3.062   1.284   5.217  0.00  0.00    +0.000 A 
ATOM     14  S   UNL     1      -3.180  -0.378   4.816  0.00  0.00    +0.000 S 
ENDBRANCH   9  10
ENDBRANCH   8   9
ENDBRANCH   3   8
TORSDOF 3
