REMARK  Name = *****
REMARK  4 active torsions:
REMARK  status: ('A' for Active; 'I' for Inactive)
REMARK    1  A    between atoms: C_1  and  C_2
REMARK    2  A    between atoms: C_4  and  S_8
REMARK    3  A    between atoms: S_8  and  C_9
REMARK    4  A    between atoms: C_9  and  C_11
REMARK                            x       y       z     vdW  Elec       q    Type
REMARK                         _______ _______ _______ _____ _____    ______ ____
ROOT
ATOM      1  S   UNL     1      -2.237   2.419  -1.188  0.00  0.00    +0.000 S 
ENDROOT
BRANCH   1   5
ATOM      2  C   UNL     1       2.332  -0.282  -1.029  0.00  0.00    +0.000 C 
ATOM      3  C   UNL     1       0.902  -0.141  -0.597  0.00  0.00    +0.000 A 
ATOM      4  C   UNL     1       0.122   0.939  -1.036  0.00  0.00    +0.000 A 
ATOM      5  C   UNL     1      -1.204   1.087  -0.608  0.00  0.00    +0.000 A 
ATOM      6  C   UNL     1      -1.754   0.129   0.249  0.00  0.00    +0.000 A 
ATOM      7  C   UNL     1      -0.985  -0.949   0.690  0.00  0.00    +0.000 A 
ATOM      8  C   UNL     1       0.338  -1.081   0.272  0.00  0.00    +0.000 A 
ENDBRANCH   1   5
BRANCH   1   9
ATOM      9  C   UNL     1      -1.260   3.851  -0.871  0.00  0.00    +0.000 C 
ATOM     10  O   UNL     1      -0.351   3.851  -0.049  0.00  0.00    +0.000 OA
BRANCH   9  11
ATOM     11  C   UNL     1      -1.556   5.086  -1.658  0.00  0.00    +0.000 A 
ATOM     12  C   UNL     1      -0.579   6.094  -1.676  0.00  0.00    +0.000 A 
ATOM     13  C   UNL     1      -0.784   7.274  -2.394  0.00  0.00    +0.000 A 
ATOM     14  C   UNL     1      -1.972   7.463  -3.097  0.00  0.00    +0.000 A 
ATOM     15  C   UNL     1      -2.955   6.475  -3.080  0.00  0.00    +0.000 A 
ATOM     16  C   UNL     1      -2.751   5.291  -2.364  0.00  0.00    +0.000 A 
ENDBRANCH   9  11
ENDBRANCH   1   9
TORSDOF 3
