REMARK  Name = *****
REMARK  4 active torsions:
REMARK  status: ('A' for Active; 'I' for Inactive)
REMARK    1  A    between atoms: C_1  and  O_2
REMARK    2  A    between atoms: O_2  and  C_3
REMARK    3  A    between atoms: C_7  and  C_9
REMARK    4  A    between atoms: C_10  and  C_11
REMARK                            x       y       z     vdW  Elec       q    Type
REMARK                         _______ _______ _______ _____ _____    ______ ____
ROOT
ATOM      1  C   UNL     1       6.086   1.641  -2.791  0.00  0.00    +0.000 C 
ATOM      2  C   UNL     1       6.890   2.598  -3.282  0.00  0.00    +0.000 C 
ENDROOT
BRANCH   2   3
ATOM      3  C   UNL     1       8.166   2.328  -3.960  0.00  0.00    +0.000 A 
ATOM      4  C   UNL     1       8.339   1.238  -4.824  0.00  0.00    +0.000 A 
ATOM      5  C   UNL     1       9.560   1.041  -5.469  0.00  0.00    +0.000 A 
ATOM      6  C   UNL     1      10.618   1.927  -5.274  0.00  0.00    +0.000 A 
ATOM      7  C   UNL     1      10.451   3.023  -4.430  0.00  0.00    +0.000 A 
ATOM      8  C   UNL     1       9.229   3.224  -3.781  0.00  0.00    +0.000 A 
ATOM      9 CL   UNL     1       9.761  -0.306  -6.523  0.00  0.00    +0.000 Cl
ENDBRANCH   2   3
BRANCH   1  14
ATOM     10  C   UNL     1       3.215   1.258  -0.375  0.00  0.00    +0.000 A 
ATOM     11  C   UNL     1       2.373   2.299  -0.766  0.00  0.00    +0.000 A 
ATOM     12  C   UNL     1       2.741   3.135  -1.823  0.00  0.00    +0.000 A 
ATOM     13  C   UNL     1       3.952   2.937  -2.489  0.00  0.00    +0.000 A 
ATOM     14  C   UNL     1       4.817   1.909  -2.098  0.00  0.00    +0.000 A 
ATOM     15  C   UNL     1       4.428   1.068  -1.046  0.00  0.00    +0.000 A 
BRANCH  10  17
ATOM     16  C   UNL     1       1.745   0.502   1.335  0.00  0.00    +0.000 C 
ATOM     17  O   UNL     1       2.974   0.365   0.633  0.00  0.00    +0.000 OA
ENDBRANCH  10  17
ENDBRANCH   1  14
TORSDOF 3
