REMARK  Name = *****
REMARK  5 active torsions:
REMARK  status: ('A' for Active; 'I' for Inactive)
REMARK    1  A    between atoms: C_3  and  C_17
REMARK    2  A    between atoms: C_6  and  C_7
REMARK    3  A    between atoms: C_7  and  C_8
REMARK    4  A    between atoms: C_8  and  C_9
REMARK    5  A    between atoms: C_12  and  C_15
REMARK                            x       y       z     vdW  Elec       q    Type
REMARK                         _______ _______ _______ _____ _____    ______ ____
ROOT
ATOM      1  C   UNL     1       1.758   2.273  -0.244  0.00  0.00    +0.000 C 
ENDROOT
BRANCH   1   7
ATOM      2  C   UNL     1       0.228   0.470  -1.134  0.00  0.00    +0.000 A 
ATOM      3  C   UNL     1      -0.620  -0.622  -0.944  0.00  0.00    +0.000 A 
ATOM      4  C   UNL     1      -0.870  -1.090   0.348  0.00  0.00    +0.000 A 
ATOM      5  C   UNL     1      -0.274  -0.473   1.451  0.00  0.00    +0.000 A 
ATOM      6  C   UNL     1       0.574   0.620   1.256  0.00  0.00    +0.000 A 
ATOM      7  C   UNL     1       0.827   1.103  -0.035  0.00  0.00    +0.000 A 
BRANCH   4   8
ATOM      8  C   UNL     1      -1.765  -2.245   0.559  0.00  0.00    +0.000 C 
ATOM      9  O   UNL     1      -2.310  -2.828  -0.370  0.00  0.00    +0.000 OA
ENDBRANCH   4   8
ENDBRANCH   1   7
BRANCH   1  10
ATOM     10  C   UNL     1       3.208   1.818  -0.422  0.00  0.00    +0.000 C 
BRANCH  10  11
ATOM     11  C   UNL     1       4.138   2.990  -0.626  0.00  0.00    +0.000 A 
ATOM     12  C   UNL     1       4.721   3.631   0.476  0.00  0.00    +0.000 A 
ATOM     13  C   UNL     1       5.564   4.728   0.291  0.00  0.00    +0.000 A 
ATOM     14  C   UNL     1       5.824   5.192  -1.000  0.00  0.00    +0.000 A 
ATOM     15  C   UNL     1       5.246   4.567  -2.106  0.00  0.00    +0.000 A 
ATOM     16  C   UNL     1       4.403   3.469  -1.917  0.00  0.00    +0.000 A 
BRANCH  14  17
ATOM     17  C   UNL     1       6.713   6.353  -1.206  0.00  0.00    +0.000 C 
ATOM     18  O   UNL     1       7.242   6.945  -0.273  0.00  0.00    +0.000 OA
ENDBRANCH  14  17
ENDBRANCH  10  11
ENDBRANCH   1  10
TORSDOF 5
