REMARK  Name = *****
REMARK  3 active torsions:
REMARK  status: ('A' for Active; 'I' for Inactive)
REMARK    1  A    between atoms: C_4  and  S_6
REMARK    2  A    between atoms: S_6  and  C_7
REMARK    3  A    between atoms: C_7  and  C_8
REMARK                            x       y       z     vdW  Elec       q    Type
REMARK                         _______ _______ _______ _____ _____    ______ ____
ROOT
ATOM      1  C   UNL     1       0.943  -3.858  -0.416  0.00  0.00    +0.000 C 
ENDROOT
BRANCH   1   2
ATOM      2  C   UNL     1       0.804  -5.351  -0.244  0.00  0.00    +0.000 A 
ATOM      3  C   UNL     1      -0.282  -6.034  -0.814  0.00  0.00    +0.000 A 
ATOM      4  C   UNL     1      -0.419  -7.414  -0.646  0.00  0.00    +0.000 A 
ATOM      5  C   UNL     1       0.525  -8.117   0.098  0.00  0.00    +0.000 A 
ATOM      6  C   UNL     1       1.604  -7.453   0.679  0.00  0.00    +0.000 A 
ATOM      7  C   UNL     1       1.742  -6.074   0.510  0.00  0.00    +0.000 A 
ATOM      8 CL   UNL     1       0.356  -9.817   0.306  0.00  0.00    +0.000 Cl
ENDBRANCH   1   2
BRANCH   1   9
ATOM      9  S   UNL     1       0.154  -2.954   0.949  0.00  0.00    +0.000 S 
BRANCH   9  13
ATOM     10  C   UNL     1       1.485   0.766   0.189  0.00  0.00    +0.000 A 
ATOM     11  C   UNL     1       0.373   0.925  -0.608  0.00  0.00    +0.000 A 
ATOM     12  S   UNL     1      -0.606  -0.478  -0.630  0.00  0.00    +0.000 S 
ATOM     13  C   UNL     1       0.456  -1.309   0.420  0.00  0.00    +0.000 A 
ATOM     14  C   UNL     1       1.530  -0.528   0.789  0.00  0.00    +0.000 A 
ENDBRANCH   9  13
ENDBRANCH   1   9
TORSDOF 3
