REMARK  Name = *****
REMARK  4 active torsions:
REMARK  status: ('A' for Active; 'I' for Inactive)
REMARK    1  A    between atoms: C_4  and  C_7
REMARK    2  A    between atoms: C_7  and  C_8
REMARK    3  A    between atoms: C_8  and  C_9
REMARK    4  A    between atoms: C_12  and  N_15
REMARK                            x       y       z     vdW  Elec       q    Type
REMARK                         _______ _______ _______ _____ _____    ______ ____
ROOT
ATOM      1  C   UNL     1      -3.572  -0.729  -0.620  0.00  0.00    +0.000 C 
ENDROOT
BRANCH   1   2
ATOM      2  C   UNL     1      -5.060  -0.484  -0.684  0.00  0.00    +0.000 A 
ATOM      3  C   UNL     1      -5.617   0.229  -1.752  0.00  0.00    +0.000 A 
ATOM      4  C   UNL     1      -6.995   0.471  -1.800  0.00  0.00    +0.000 A 
ATOM      5  C   UNL     1      -7.840   0.015  -0.777  0.00  0.00    +0.000 A 
ATOM      6  C   UNL     1      -7.276  -0.700   0.286  0.00  0.00    +0.000 A 
ATOM      7  C   UNL     1      -5.900  -0.944   0.338  0.00  0.00    +0.000 A 
BRANCH   5   8
ATOM      8  N   UNL     1      -9.207   0.210  -0.784  0.00  0.00    +0.000 NA
ATOM      9  O   UNL     1      -9.569   1.215  -1.407  0.00  0.00    +0.000 OA
ENDBRANCH   5   8
ENDBRANCH   1   2
BRANCH   1  10
ATOM     10  C   UNL     1      -2.837   0.427   0.064  0.00  0.00    +0.000 C 
BRANCH  10  14
ATOM     11  C   UNL     1       1.402  -0.340   0.257  0.00  0.00    +0.000 A 
ATOM     12  C   UNL     1       0.857   0.288  -0.862  0.00  0.00    +0.000 A 
ATOM     13  C   UNL     1      -0.514   0.542  -0.922  0.00  0.00    +0.000 A 
ATOM     14  C   UNL     1      -1.352   0.173   0.138  0.00  0.00    +0.000 A 
ATOM     15  C   UNL     1      -0.795  -0.463   1.256  0.00  0.00    +0.000 A 
ATOM     16  C   UNL     1       0.577  -0.715   1.315  0.00  0.00    +0.000 A 
ENDBRANCH  10  14
ENDBRANCH   1  10
TORSDOF 4
