REMARK  Name = *****
REMARK  2 active torsions:
REMARK  status: ('A' for Active; 'I' for Inactive)
REMARK    1  A    between atoms: C_4  and  C_7
REMARK    2  A    between atoms: C_7  and  C_8
REMARK                            x       y       z     vdW  Elec       q    Type
REMARK                         _______ _______ _______ _____ _____    ______ ____
ROOT
ATOM      1  C   UNL     1      -3.093  -0.745   0.003  0.00  0.00    +0.000 A 
ATOM      2  C   UNL     1      -3.473  -1.163   1.220  0.00  0.00    +0.000 A 
ATOM      3  C   UNL     1      -4.012  -2.507   1.263  0.00  0.00    +0.000 A 
ATOM      4  C   UNL     1      -4.456  -3.067   2.392  0.00  0.00    +0.000 A 
ATOM      5  C   UNL     1      -5.018  -4.376   2.599  0.00  0.00    +0.000 A 
ATOM      6  C   UNL     1      -5.221  -5.358   1.716  0.00  0.00    +0.000 A 
ATOM      7  C   UNL     1      -4.938  -5.387   0.307  0.00  0.00    +0.000 A 
ATOM      8  C   UNL     1      -4.413  -4.442  -0.480  0.00  0.00    +0.000 A 
ATOM      9  C   UNL     1      -3.978  -3.101  -0.087  0.00  0.00    +0.000 A 
ATOM     10  P   UNL     1      -3.328  -2.010  -1.250  0.00  0.00    +0.000 P 
ENDROOT
BRANCH   1  11
ATOM     11  C   UNL     1      -2.471   0.582  -0.322  0.00  0.00    +0.000 C 
BRANCH  11  15
ATOM     12  C   UNL     1      -5.376   3.624  -1.302  0.00  0.00    +0.000 A 
ATOM     13  C   UNL     1      -4.915   3.497   0.006  0.00  0.00    +0.000 A 
ATOM     14  C   UNL     1      -3.974   2.515   0.324  0.00  0.00    +0.000 A 
ATOM     15  C   UNL     1      -3.480   1.655  -0.668  0.00  0.00    +0.000 A 
ATOM     16  C   UNL     1      -3.956   1.790  -1.980  0.00  0.00    +0.000 A 
ATOM     17  C   UNL     1      -4.898   2.770  -2.295  0.00  0.00    +0.000 A 
ENDBRANCH  11  15
ENDBRANCH   1  11
TORSDOF 2
