REMARK  Name = *****
REMARK  5 active torsions:
REMARK  status: ('A' for Active; 'I' for Inactive)
REMARK    1  A    between atoms: C_1  and  C_2
REMARK    2  A    between atoms: C_3  and  C_17
REMARK    3  A    between atoms: C_5  and  C_8
REMARK    4  A    between atoms: C_8  and  C_10
REMARK    5  A    between atoms: C_10  and  C_11
REMARK                            x       y       z     vdW  Elec       q    Type
REMARK                         _______ _______ _______ _____ _____    ______ ____
ROOT
ATOM      1  C   UNL     1      -3.082  -1.627   0.473  0.00  0.00    +0.000 C 
ATOM      2  O   UNL     1      -3.012  -2.807   0.124  0.00  0.00    +0.000 OA
ENDROOT
BRANCH   1   7
ATOM      3  C   UNL     1       1.704   1.648  -0.051  0.00  0.00    +0.000 C 
ATOM      4  C   UNL     1       0.474   0.791   0.080  0.00  0.00    +0.000 A 
ATOM      5  C   UNL     1       0.525  -0.601  -0.123  0.00  0.00    +0.000 A 
ATOM      6  C   UNL     1      -0.653  -1.357   0.008  0.00  0.00    +0.000 A 
ATOM      7  C   UNL     1      -1.874  -0.753   0.344  0.00  0.00    +0.000 A 
ATOM      8  C   UNL     1      -1.914   0.628   0.544  0.00  0.00    +0.000 A 
ATOM      9  C   UNL     1      -0.750   1.390   0.412  0.00  0.00    +0.000 A 
ATOM     10  C   UNL     1       1.808  -1.298  -0.485  0.00  0.00    +0.000 C 
ENDBRANCH   1   7
BRANCH   1  11
ATOM     11  C   UNL     1      -4.370  -1.061   1.041  0.00  0.00    +0.000 C 
BRANCH  11  12
ATOM     12  C   UNL     1      -5.210  -0.301   0.042  0.00  0.00    +0.000 A 
ATOM     13  C   UNL     1      -5.460  -0.818  -1.237  0.00  0.00    +0.000 A 
ATOM     14  C   UNL     1      -6.257  -0.117  -2.143  0.00  0.00    +0.000 A 
ATOM     15  C   UNL     1      -6.825   1.101  -1.777  0.00  0.00    +0.000 A 
ATOM     16  C   UNL     1      -6.603   1.616  -0.502  0.00  0.00    +0.000 A 
ATOM     17  C   UNL     1      -5.806   0.916   0.406  0.00  0.00    +0.000 A 
ENDBRANCH  11  12
ENDBRANCH   1  11
TORSDOF 3
