REMARK  Name = *****
REMARK  4 active torsions:
REMARK  status: ('A' for Active; 'I' for Inactive)
REMARK    1  A    between atoms: C_6  and  C_7
REMARK    2  A    between atoms: C_7  and  C_8
REMARK    3  A    between atoms: C_7  and  N_17
REMARK    4  A    between atoms: C_8  and  C_9
REMARK                            x       y       z     vdW  Elec       q    Type
REMARK                         _______ _______ _______ _____ _____    ______ ____
ROOT
ATOM      1  C   UNL     1      -3.434   0.122   0.145  0.00  0.00    +0.000 C 
ENDROOT
BRANCH   1   7
ATOM      2  C   UNL     1      -1.213  -0.071  -1.051  0.00  0.00    +0.000 A 
ATOM      3  C   UNL     1       0.179   0.021  -1.094  0.00  0.00    +0.000 A 
ATOM      4  C   UNL     1       0.874   0.420   0.039  0.00  0.00    +0.000 A 
ATOM      5  C   UNL     1       0.203   0.736   1.213  0.00  0.00    +0.000 A 
ATOM      6  C   UNL     1      -1.190   0.649   1.257  0.00  0.00    +0.000 A 
ATOM      7  C   UNL     1      -1.918   0.230   0.129  0.00  0.00    +0.000 A 
ATOM      8  F   UNL     1       2.210   0.507  -0.002  0.00  0.00    +0.000 F 
ENDBRANCH   1   7
BRANCH   1   9
ATOM      9  N   UNL     1      -4.025   1.467   0.126  0.00  0.00    +0.000 N 
ATOM     10  H   UNL     1      -3.755   1.969   0.973  0.00  0.00    +0.000 HD
ATOM     11  H   UNL     1      -5.041   1.392   0.085  0.00  0.00    +0.000 HD
ATOM     12  H   UNL     1      -3.688   1.975  -0.692  0.00  0.00    +0.000 HD
ENDBRANCH   1   9
BRANCH   1  13
ATOM     13  C   UNL     1      -4.004  -0.719   1.320  0.00  0.00    +0.000 C 
BRANCH  13  14
ATOM     14  C   UNL     1      -3.526  -2.160   1.351  0.00  0.00    +0.000 A 
ATOM     15  C   UNL     1      -2.760  -2.698   2.401  0.00  0.00    +0.000 A 
ATOM     16  C   UNL     1      -2.340  -4.032   2.371  0.00  0.00    +0.000 A 
ATOM     17  C   UNL     1      -2.686  -4.843   1.295  0.00  0.00    +0.000 A 
ATOM     18  C   UNL     1      -3.452  -4.338   0.251  0.00  0.00    +0.000 A 
ATOM     19  C   UNL     1      -3.873  -3.007   0.281  0.00  0.00    +0.000 A 
ATOM     20 CL   UNL     1      -2.170  -6.483   1.260  0.00  0.00    +0.000 Cl
ATOM     21 CL   UNL     1      -2.306  -1.770   3.788  0.00  0.00    +0.000 Cl
ENDBRANCH  13  14
ENDBRANCH   1  13
TORSDOF 4
