REMARK  Name = *****
REMARK  2 active torsions:
REMARK  status: ('A' for Active; 'I' for Inactive)
REMARK    1  A    between atoms: C_1  and  C_2
REMARK    2  A    between atoms: C_5  and  C_8
REMARK                            x       y       z     vdW  Elec       q    Type
REMARK                         _______ _______ _______ _____ _____    ______ ____
ROOT
ATOM      1  C   UNL     1      -3.303   0.031   0.012  0.00  0.00    +0.000 A 
ATOM      2  C   UNL     1      -3.876   0.204  -1.195  0.00  0.00    +0.000 A 
ATOM      3  C   UNL     1      -5.271   0.261  -1.574  0.00  0.00    +0.000 A 
ATOM      4  C   UNL     1      -6.346   0.146  -0.788  0.00  0.00    +0.000 A 
ATOM      5  C   UNL     1      -7.716   0.213  -1.262  0.00  0.00    +0.000 A 
ATOM      6  C   UNL     1      -8.505   0.055  -0.187  0.00  0.00    +0.000 A 
ATOM      7  C   UNL     1      -7.672  -0.115   0.991  0.00  0.00    +0.000 A 
ATOM      8  C   UNL     1      -6.369  -0.064   0.652  0.00  0.00    +0.000 A 
ATOM      9  C   UNL     1      -5.284  -0.194   1.581  0.00  0.00    +0.000 A 
ATOM     10  C   UNL     1      -3.976  -0.151   1.292  0.00  0.00    +0.000 A 
ENDROOT
BRANCH   1  15
ATOM     11  C   UNL     1       2.494   0.027  -0.030  0.00  0.00    +0.000 C 
ATOM     12  C   UNL     1       0.994   0.031  -0.051  0.00  0.00    +0.000 A 
ATOM     13  C   UNL     1       0.287   1.231   0.098  0.00  0.00    +0.000 A 
ATOM     14  C   UNL     1      -1.110   1.233   0.112  0.00  0.00    +0.000 A 
ATOM     15  C   UNL     1      -1.818   0.032  -0.016  0.00  0.00    +0.000 A 
ATOM     16  C   UNL     1      -1.114  -1.170  -0.144  0.00  0.00    +0.000 A 
ATOM     17  C   UNL     1       0.283  -1.171  -0.158  0.00  0.00    +0.000 A 
ENDBRANCH   1  15
TORSDOF 1
