REMARK  Name = *****
REMARK  3 active torsions:
REMARK  status: ('A' for Active; 'I' for Inactive)
REMARK    1  A    between atoms: C_1  and  C_2
REMARK    2  A    between atoms: C_2  and  C_18
REMARK    3  A    between atoms: C_10  and  C_12
REMARK                            x       y       z     vdW  Elec       q    Type
REMARK                         _______ _______ _______ _____ _____    ______ ____
ROOT
ATOM      1  C   UNL     1       0.901  -0.084  -0.284  0.00  0.00    +0.000 C 
ATOM      2  C   UNL     1       2.409  -0.101   0.009  0.00  0.00    +0.000 C 
ATOM      3  C   UNL     1       2.845  -1.375   0.695  0.00  0.00    +0.000 A 
ATOM      4  C   UNL     1       2.462  -2.653   0.252  0.00  0.00    +0.000 A 
ATOM      5  C   UNL     1       2.927  -3.798   0.900  0.00  0.00    +0.000 A 
ATOM      6  C   UNL     1       3.788  -3.679   1.986  0.00  0.00    +0.000 A 
ATOM      7  C   UNL     1       4.185  -2.414   2.417  0.00  0.00    +0.000 A 
ATOM      8  C   UNL     1       3.720  -1.263   1.776  0.00  0.00    +0.000 A 
ATOM      9  N   UNL     1       4.156  -0.022   2.238  0.00  0.00    +0.000 NA
ATOM     10  C   UNL     1       3.591   1.045   1.782  0.00  0.00    +0.000 C 
ATOM     11  O   UNL     1       2.631   1.075   0.834  0.00  0.00    +0.000 OA
ENDROOT
BRANCH  10  12
ATOM     12  C   UNL     1       3.924   2.411   2.260  0.00  0.00    +0.000 A 
ATOM     13  C   UNL     1       4.938   2.564   3.216  0.00  0.00    +0.000 A 
ATOM     14  C   UNL     1       5.281   3.834   3.685  0.00  0.00    +0.000 A 
ATOM     15  C   UNL     1       4.614   4.959   3.204  0.00  0.00    +0.000 A 
ATOM     16  C   UNL     1       3.603   4.817   2.255  0.00  0.00    +0.000 A 
ATOM     17  C   UNL     1       3.257   3.548   1.783  0.00  0.00    +0.000 A 
ENDBRANCH  10  12
BRANCH   2  18
ATOM     18  C   UNL     1       3.204   0.104  -1.292  0.00  0.00    +0.000 C 
ATOM     19  F   UNL     1       2.828  -0.805  -2.234  0.00  0.00    +0.000 F 
ENDBRANCH   2  18
TORSDOF 2
