REMARK  Name = *****
REMARK  4 active torsions:
REMARK  status: ('A' for Active; 'I' for Inactive)
REMARK    1  A    between atoms: C_4  and  C_9
REMARK    2  A    between atoms: C_5  and  C_7
REMARK    3  A    between atoms: C_10  and  C_11
REMARK    4  A    between atoms: C_16  and  C_17
REMARK                            x       y       z     vdW  Elec       q    Type
REMARK                         _______ _______ _______ _____ _____    ______ ____
ROOT
ATOM      1  C   UNL     1      -0.564   0.041  -0.048  0.00  0.00    +0.000 C 
ATOM      2  C   UNL     1       0.636  -0.003  -0.038  0.00  0.00    +0.000 C 
ENDROOT
BRANCH   1   6
ATOM      3  C   UNL     1      -4.803   0.049  -0.020  0.00  0.00    +0.000 A 
ATOM      4  C   UNL     1      -4.090  -1.148  -0.012  0.00  0.00    +0.000 A 
ATOM      5  C   UNL     1      -2.694  -1.131  -0.023  0.00  0.00    +0.000 A 
ATOM      6  C   UNL     1      -1.997   0.084  -0.043  0.00  0.00    +0.000 A 
ATOM      7  C   UNL     1      -2.718   1.287  -0.051  0.00  0.00    +0.000 A 
ATOM      8  C   UNL     1      -4.120   1.265  -0.040  0.00  0.00    +0.000 A 
BRANCH   7   9
ATOM      9  C   UNL     1      -2.034   2.601  -0.069  0.00  0.00    +0.000 C 
ATOM     10  O   UNL     1      -2.657   3.658  -0.074  0.00  0.00    +0.000 OA
ENDBRANCH   7   9
ENDBRANCH   1   6
BRANCH   2  11
ATOM     11  C   UNL     1       2.068  -0.048  -0.006  0.00  0.00    +0.000 A 
ATOM     12  C   UNL     1       2.767   1.166  -0.007  0.00  0.00    +0.000 A 
ATOM     13  C   UNL     1       4.161   1.180   0.024  0.00  0.00    +0.000 A 
ATOM     14  C   UNL     1       4.866  -0.020   0.053  0.00  0.00    +0.000 A 
ATOM     15  C   UNL     1       4.177  -1.233   0.054  0.00  0.00    +0.000 A 
ATOM     16  C   UNL     1       2.769  -1.265   0.029  0.00  0.00    +0.000 A 
BRANCH  16  17
ATOM     17  C   UNL     1       2.049  -2.590   0.013  0.00  0.00    +0.000 C 
ATOM     18  F   UNL     1       1.073  -2.692   0.959  0.00  0.00    +0.000 F 
ATOM     19  F   UNL     1       1.446  -2.846  -1.182  0.00  0.00    +0.000 F 
ATOM     20  F   UNL     1       2.876  -3.653   0.237  0.00  0.00    +0.000 F 
ENDBRANCH  16  17
ENDBRANCH   2  11
TORSDOF 4
