REMARK  Name = *****
REMARK  3 active torsions:
REMARK  status: ('A' for Active; 'I' for Inactive)
REMARK    1  A    between atoms: C_4  and  C_6
REMARK    2  A    between atoms: C_6  and  C_9
REMARK    3  A    between atoms: C_9  and  C_12
REMARK                            x       y       z     vdW  Elec       q    Type
REMARK                         _______ _______ _______ _____ _____    ______ ____
ROOT
ATOM      1  C   UNL     1      -0.238  -2.748   0.243  0.00  0.00    +0.000 C 
ATOM      2  C   UNL     1      -1.501  -2.993   0.482  0.00  0.00    +0.000 C 
ATOM      3  O   UNL     1      -2.636  -3.212   0.699  0.00  0.00    +0.000 OA
ENDROOT
BRANCH   1   7
ATOM      4  C   UNL     1       0.176   0.958  -0.247  0.00  0.00    +0.000 A 
ATOM      5  C   UNL     1       1.499   0.670  -0.475  0.00  0.00    +0.000 A 
ATOM      6  S   UNL     1       1.819  -1.000  -0.355  0.00  0.00    +0.000 S 
ATOM      7  C   UNL     1       0.171  -1.383   0.012  0.00  0.00    +0.000 A 
ATOM      8  C   UNL     1      -0.584  -0.215   0.031  0.00  0.00    +0.000 A 
ENDBRANCH   1   7
BRANCH   1   9
ATOM      9  C   UNL     1       0.654  -3.915   0.230  0.00  0.00    +0.000 C 
ATOM     10  C   UNL     1       1.213  -4.224   1.371  0.00  0.00    +0.000 C 
ATOM     11  O   UNL     1       1.714  -4.504   2.398  0.00  0.00    +0.000 OA
BRANCH   9  12
ATOM     12  C   UNL     1       0.952  -4.722  -0.929  0.00  0.00    +0.000 A 
ATOM     13  C   UNL     1       1.754  -5.853  -1.038  0.00  0.00    +0.000 A 
ATOM     14  C   UNL     1       1.810  -6.387  -2.358  0.00  0.00    +0.000 A 
ATOM     15  C   UNL     1       1.052  -5.656  -3.239  0.00  0.00    +0.000 A 
ATOM     16  S   UNL     1       0.282  -4.339  -2.479  0.00  0.00    +0.000 S 
ENDBRANCH   9  12
ENDBRANCH   1   9
TORSDOF 3
