REMARK  Name = *****
REMARK  6 active torsions:
REMARK  status: ('A' for Active; 'I' for Inactive)
REMARK    1  A    between atoms: C_1  and  C_2
REMARK    2  A    between atoms: C_4  and  S_10
REMARK    3  A    between atoms: C_5  and  C_9
REMARK    4  A    between atoms: S_10  and  C_11
REMARK    5  A    between atoms: C_11  and  C_12
REMARK    6  A    between atoms: C_15  and  C_17
REMARK                            x       y       z     vdW  Elec       q    Type
REMARK                         _______ _______ _______ _____ _____    ______ ____
ROOT
ATOM      1  C   UNL     1       0.864   0.020  -0.017  0.00  0.00    +0.000 C 
ATOM      2  C   UNL     1       2.365   0.064  -0.073  0.00  0.00    +0.000 A 
ATOM      3  C   UNL     1       3.017   1.298  -0.233  0.00  0.00    +0.000 A 
ATOM      4  C   UNL     1       4.417   1.386  -0.286  0.00  0.00    +0.000 A 
ATOM      5  C   UNL     1       5.193   0.217  -0.201  0.00  0.00    +0.000 A 
ATOM      6  C   UNL     1       4.541  -1.017  -0.043  0.00  0.00    +0.000 A 
ATOM      7  C   UNL     1       3.146  -1.094   0.023  0.00  0.00    +0.000 A 
ATOM      8 CL   UNL     1       2.431  -2.653   0.221  0.00  0.00    +0.000 Cl
ATOM      9  C   UNL     1       6.696   0.241  -0.277  0.00  0.00    +0.000 C 
ENDROOT
BRANCH   4  10
ATOM     10  S   UNL     1       5.157   3.004  -0.491  0.00  0.00    +0.000 S 
BRANCH  10  11
ATOM     11  C   UNL     1       4.840   3.674   1.180  0.00  0.00    +0.000 C 
BRANCH  11  12
ATOM     12  C   UNL     1       5.436   5.028   1.341  0.00  0.00    +0.000 A 
ATOM     13  N   UNL     1       4.651   6.102   1.507  0.00  0.00    +0.000 NA
ATOM     14  O   UNL     1       5.508   7.179   1.645  0.00  0.00    +0.000 OA
ATOM     15  C   UNL     1       6.794   6.748   1.571  0.00  0.00    +0.000 A 
ATOM     16  C   UNL     1       6.806   5.388   1.386  0.00  0.00    +0.000 A 
ATOM     17  C   UNL     1       7.839   7.778   1.704  0.00  0.00    +0.000 C 
ENDBRANCH  11  12
ENDBRANCH  10  11
ENDBRANCH   4  10
TORSDOF 3
