REMARK  Name = *****
REMARK  5 active torsions:
REMARK  status: ('A' for Active; 'I' for Inactive)
REMARK    1  A    between atoms: C_1  and  C_2
REMARK    2  A    between atoms: C_4  and  C_17
REMARK    3  A    between atoms: C_5  and  C_8
REMARK    4  A    between atoms: C_8  and  C_9
REMARK    5  A    between atoms: C_9  and  C_11
REMARK                            x       y       z     vdW  Elec       q    Type
REMARK                         _______ _______ _______ _____ _____    ______ ____
ROOT
ATOM      1  C   UNL     1      -2.343  -2.000   0.050  0.00  0.00    +0.000 C 
ENDROOT
BRANCH   1   6
ATOM      2  C   UNL     1       2.508   1.248  -0.010  0.00  0.00    +0.000 C 
ATOM      3  C   UNL     1       1.254   0.426   0.033  0.00  0.00    +0.000 A 
ATOM      4  C   UNL     1      -0.002   1.042  -0.031  0.00  0.00    +0.000 A 
ATOM      5  C   UNL     1      -1.188   0.286  -0.034  0.00  0.00    +0.000 A 
ATOM      6  C   UNL     1      -1.109  -1.120   0.036  0.00  0.00    +0.000 A 
ATOM      7  C   UNL     1       0.156  -1.731   0.073  0.00  0.00    +0.000 A 
ATOM      8  C   UNL     1       1.323  -0.967   0.068  0.00  0.00    +0.000 A 
ATOM      9  C   UNL     1      -2.507   1.005  -0.106  0.00  0.00    +0.000 C 
ENDBRANCH   1   6
BRANCH   1  10
ATOM     10  C   UNL     1      -2.914  -2.309  -1.325  0.00  0.00    +0.000 C 
ATOM     11  O   UNL     1      -2.361  -1.985  -2.375  0.00  0.00    +0.000 OA
BRANCH  10  12
ATOM     12  C   UNL     1      -4.211  -3.053  -1.401  0.00  0.00    +0.000 A 
ATOM     13  C   UNL     1      -4.851  -3.571  -0.267  0.00  0.00    +0.000 A 
ATOM     14  C   UNL     1      -6.062  -4.259  -0.395  0.00  0.00    +0.000 A 
ATOM     15  C   UNL     1      -6.640  -4.434  -1.652  0.00  0.00    +0.000 A 
ATOM     16  C   UNL     1      -6.009  -3.925  -2.785  0.00  0.00    +0.000 A 
ATOM     17  C   UNL     1      -4.800  -3.239  -2.661  0.00  0.00    +0.000 A 
ENDBRANCH  10  12
ENDBRANCH   1  10
TORSDOF 3
