REMARK  Name = *****
REMARK  4 active torsions:
REMARK  status: ('A' for Active; 'I' for Inactive)
REMARK    1  A    between atoms: C_1  and  C_2
REMARK    2  A    between atoms: C_7  and  C_8
REMARK    3  A    between atoms: C_9  and  C_10
REMARK    4  A    between atoms: C_11  and  N_15
REMARK                            x       y       z     vdW  Elec       q    Type
REMARK                         _______ _______ _______ _____ _____    ______ ____
ROOT
ATOM      1  C   UNL     1       2.307  -2.601  -0.319  0.00  0.00    +0.000 C 
ATOM      2  C   UNL     1       1.735  -3.656  -0.368  0.00  0.00    +0.000 C 
ENDROOT
BRANCH   1   9
ATOM      3  C   UNL     1       0.767  -0.103  -0.113  0.00  0.00    +0.000 C 
ATOM      4  C   UNL     1       2.271  -0.130  -0.161  0.00  0.00    +0.000 A 
ATOM      5  C   UNL     1       2.987   1.076  -0.107  0.00  0.00    +0.000 A 
ATOM      6  C   UNL     1       4.383   1.080  -0.152  0.00  0.00    +0.000 A 
ATOM      7  C   UNL     1       5.080  -0.121  -0.251  0.00  0.00    +0.000 A 
ATOM      8  C   UNL     1       4.382  -1.327  -0.306  0.00  0.00    +0.000 A 
ATOM      9  C   UNL     1       2.983  -1.339  -0.261  0.00  0.00    +0.000 A 
ENDBRANCH   1   9
BRANCH   2  10
ATOM     10  C   UNL     1       1.056  -4.899  -0.421  0.00  0.00    +0.000 C 
ATOM     11  C   UNL     1      -0.171  -5.081  -0.934  0.00  0.00    +0.000 C 
ATOM     12  C   UNL     1      -0.576  -6.528  -0.870  0.00  0.00    +0.000 C 
ATOM     13  C   UNL     1       0.744  -7.233  -0.565  0.00  0.00    +0.000 C 
ATOM     14  C   UNL     1       1.638  -6.180   0.088  0.00  0.00    +0.000 C 
BRANCH  11  15
ATOM     15  N   UNL     1      -0.959  -4.141  -1.540  0.00  0.00    +0.000 NA
ATOM     16  C   UNL     1      -1.864  -3.818  -0.865  0.00  0.00    +0.000 C 
ATOM     17  O   UNL     1      -2.777  -3.505  -0.192  0.00  0.00    +0.000 OA
ENDBRANCH  11  15
ENDBRANCH   2  10
TORSDOF 3
