REMARK  Name = *****
REMARK  7 active torsions:
REMARK  status: ('A' for Active; 'I' for Inactive)
REMARK    1  A    between atoms: C_1  and  O_2
REMARK    2  A    between atoms: O_2  and  C_3
REMARK    3  A    between atoms: C_3  and  C_5
REMARK    4  A    between atoms: C_8  and  O_11
REMARK    5  A    between atoms: O_11  and  C_12
REMARK    6  A    between atoms: C_12  and  O_14
REMARK    7  A    between atoms: O_14  and  C_15
REMARK                            x       y       z     vdW  Elec       q    Type
REMARK                         _______ _______ _______ _____ _____    ______ ____
ROOT
ATOM      1  C   UNL     1       4.511  -1.214  -0.343  0.00  0.00    +0.000 A 
ATOM      2  C   UNL     1       4.950   0.115  -0.240  0.00  0.00    +0.000 A 
ATOM      3  C   UNL     1       6.306   0.424  -0.369  0.00  0.00    +0.000 A 
ATOM      4  C   UNL     1       7.220  -0.606  -0.584  0.00  0.00    +0.000 A 
ATOM      5  C   UNL     1       6.803  -1.929  -0.710  0.00  0.00    +0.000 A 
ATOM      6  C   UNL     1       5.446  -2.235  -0.582  0.00  0.00    +0.000 A 
ENDROOT
BRANCH   1   7
ATOM      7  C   UNL     1       3.053  -1.483  -0.204  0.00  0.00    +0.000 C 
ATOM      8  O   UNL     1       2.222  -0.610  -0.013  0.00  0.00    +0.000 OA
BRANCH   7  10
ATOM      9  C   UNL     1       1.413  -3.145  -0.205  0.00  0.00    +0.000 C 
ATOM     10  O   UNL     1       2.796  -2.810  -0.324  0.00  0.00    +0.000 OA
ENDBRANCH   7  10
ENDBRANCH   1   7
BRANCH   4  11
ATOM     11  O   UNL     1       8.575  -0.321  -0.773  0.00  0.00    +0.000 OA
BRANCH  11  12
ATOM     12  C   UNL     1       9.247   0.047   0.386  0.00  0.00    +0.000 C 
ATOM     13  O   UNL     1       8.768   0.111   1.510  0.00  0.00    +0.000 OA
BRANCH  12  14
ATOM     14  O   UNL     1      10.558   0.326   0.028  0.00  0.00    +0.000 OA
BRANCH  14  15
ATOM     15  C   UNL     1      11.346   0.734   1.104  0.00  0.00    +0.000 A 
ATOM     16  C   UNL     1      12.040  -0.220   1.846  0.00  0.00    +0.000 A 
ATOM     17  C   UNL     1      12.865   0.199   2.888  0.00  0.00    +0.000 A 
ATOM     18  C   UNL     1      13.000   1.561   3.169  0.00  0.00    +0.000 A 
ATOM     19  C   UNL     1      12.315   2.509   2.405  0.00  0.00    +0.000 A 
ATOM     20  C   UNL     1      11.488   2.097   1.361  0.00  0.00    +0.000 A 
ENDBRANCH  14  15
ENDBRANCH  12  14
ENDBRANCH  11  12
ENDBRANCH   4  11
TORSDOF 6
