REMARK  Name = *****
REMARK  3 active torsions:
REMARK  status: ('A' for Active; 'I' for Inactive)
REMARK    1  A    between atoms: C_3  and  O_8
REMARK    2  A    between atoms: O_8  and  C_9
REMARK    3  A    between atoms: C_9  and  C_11
REMARK                            x       y       z     vdW  Elec       q    Type
REMARK                         _______ _______ _______ _____ _____    ______ ____
ROOT
ATOM      1  C   UNL     1      -1.251   3.661   0.549  0.00  0.00    +0.000 C 
ATOM      2  O   UNL     1      -0.032   3.701   0.490  0.00  0.00    +0.000 OA
ENDROOT
BRANCH   1   3
ATOM      3  C   UNL     1      -2.112   4.864   0.369  0.00  0.00    +0.000 A 
ATOM      4  C   UNL     1      -3.514   4.809   0.415  0.00  0.00    +0.000 A 
ATOM      5  C   UNL     1      -4.268   5.973   0.238  0.00  0.00    +0.000 A 
ATOM      6  C   UNL     1      -3.623   7.185   0.017  0.00  0.00    +0.000 A 
ATOM      7  C   UNL     1      -2.236   7.258  -0.033  0.00  0.00    +0.000 A 
ATOM      8  C   UNL     1      -1.479   6.098   0.143  0.00  0.00    +0.000 A 
ATOM      9  F   UNL     1      -4.349   8.297  -0.152  0.00  0.00    +0.000 F 
ENDBRANCH   1   3
BRANCH   1  10
ATOM     10  O   UNL     1      -2.042   2.551   0.781  0.00  0.00    +0.000 OA
BRANCH  10  13
ATOM     11  C   UNL     1      -0.560  -0.747   0.121  0.00  0.00    +0.000 A 
ATOM     12  C   UNL     1      -1.246   0.454  -0.070  0.00  0.00    +0.000 A 
ATOM     13  C   UNL     1      -1.308   1.379   0.973  0.00  0.00    +0.000 A 
ATOM     14  C   UNL     1      -0.729   1.115   2.212  0.00  0.00    +0.000 A 
ATOM     15  C   UNL     1      -0.050  -0.084   2.384  0.00  0.00    +0.000 A 
ATOM     16  C   UNL     1       0.042  -1.015   1.352  0.00  0.00    +0.000 A 
ATOM     17  F   UNL     1       0.520  -0.355   3.566  0.00  0.00    +0.000 F 
ENDBRANCH  10  13
ENDBRANCH   1  10
TORSDOF 3
