REMARK  Name = *****
REMARK  5 active torsions:
REMARK  status: ('A' for Active; 'I' for Inactive)
REMARK    1  A    between atoms: C_1  and  C_2
REMARK    2  A    between atoms: C_4  and  C_8
REMARK    3  A    between atoms: C_5  and  C_7
REMARK    4  A    between atoms: C_8  and  C_9
REMARK    5  A    between atoms: C_9  and  C_10
REMARK                            x       y       z     vdW  Elec       q    Type
REMARK                         _______ _______ _______ _____ _____    ______ ____
ROOT
ATOM      1  C   UNL     1      -1.611   2.457   0.037  0.00  0.00    +0.000 C 
ENDROOT
BRANCH   1   5
ATOM      2  C   UNL     1       1.388  -1.569   1.121  0.00  0.00    +0.000 C 
ATOM      3  C   UNL     1       0.584  -0.481   0.532  0.00  0.00    +0.000 A 
ATOM      4  C   UNL     1      -0.183   0.530   1.065  0.00  0.00    +0.000 A 
ATOM      5  C   UNL     1      -0.716   1.264  -0.033  0.00  0.00    +0.000 A 
ATOM      6  C   UNL     1      -0.229   0.637  -1.168  0.00  0.00    +0.000 A 
ATOM      7  O   UNL     1       0.558  -0.420  -0.826  0.00  0.00    +0.000 OA
ATOM      8  C   UNL     1      -0.389   0.875  -2.617  0.00  0.00    +0.000 C 
ENDBRANCH   1   5
BRANCH   1   9
ATOM      9  C   UNL     1      -0.825   3.771  -0.002  0.00  0.00    +0.000 C 
BRANCH   9  10
ATOM     10  C   UNL     1      -1.739   4.970   0.053  0.00  0.00    +0.000 A 
ATOM     11  C   UNL     1      -2.128   5.511   1.286  0.00  0.00    +0.000 A 
ATOM     12  C   UNL     1      -2.990   6.607   1.336  0.00  0.00    +0.000 A 
ATOM     13  C   UNL     1      -3.474   7.169   0.156  0.00  0.00    +0.000 A 
ATOM     14  C   UNL     1      -3.097   6.635  -1.075  0.00  0.00    +0.000 A 
ATOM     15  C   UNL     1      -2.236   5.538  -1.127  0.00  0.00    +0.000 A 
ENDBRANCH   9  10
ENDBRANCH   1   9
TORSDOF 3
