REMARK  Name = *****
REMARK  4 active torsions:
REMARK  status: ('A' for Active; 'I' for Inactive)
REMARK    1  A    between atoms: C_1  and  C_2
REMARK    2  A    between atoms: C_5  and  C_8
REMARK    3  A    between atoms: C_8  and  O_10
REMARK    4  A    between atoms: O_10  and  C_11
REMARK                            x       y       z     vdW  Elec       q    Type
REMARK                         _______ _______ _______ _____ _____    ______ ____
ROOT
ATOM      1  C   UNL     1      -2.959  -0.403   0.947  0.00  0.00    +0.000 C 
ATOM      2  O   UNL     1      -3.599  -1.405   0.664  0.00  0.00    +0.000 OA
ENDROOT
BRANCH   1   7
ATOM      3  C   UNL     1       2.503   0.308  -0.885  0.00  0.00    +0.000 C 
ATOM      4  C   UNL     1       1.082   0.151  -0.430  0.00  0.00    +0.000 A 
ATOM      5  C   UNL     1       0.473   1.144   0.347  0.00  0.00    +0.000 A 
ATOM      6  C   UNL     1      -0.840   0.987   0.802  0.00  0.00    +0.000 A 
ATOM      7  C   UNL     1      -1.558  -0.175   0.493  0.00  0.00    +0.000 A 
ATOM      8  C   UNL     1      -0.944  -1.176  -0.272  0.00  0.00    +0.000 A 
ATOM      9  C   UNL     1       0.368  -1.016  -0.724  0.00  0.00    +0.000 A 
ENDBRANCH   1   7
BRANCH   1  10
ATOM     10  O   UNL     1      -3.384   0.670   1.709  0.00  0.00    +0.000 OA
BRANCH  10  11
ATOM     11  C   UNL     1      -4.688   0.539   2.193  0.00  0.00    +0.000 A 
ATOM     12  C   UNL     1      -4.958  -0.314   3.262  0.00  0.00    +0.000 A 
ATOM     13  C   UNL     1      -6.259  -0.380   3.754  0.00  0.00    +0.000 A 
ATOM     14  C   UNL     1      -7.271   0.406   3.197  0.00  0.00    +0.000 A 
ATOM     15  C   UNL     1      -6.980   1.271   2.139  0.00  0.00    +0.000 A 
ATOM     16  C   UNL     1      -5.681   1.345   1.638  0.00  0.00    +0.000 A 
ATOM     17 CL   UNL     1      -6.624  -1.431   5.067  0.00  0.00    +0.000 Cl
ENDBRANCH  10  11
ENDBRANCH   1  10
TORSDOF 3
