REMARK  Name = *****
REMARK  3 active torsions:
REMARK  status: ('A' for Active; 'I' for Inactive)
REMARK    1  A    between atoms: C_4  and  C_7
REMARK    2  A    between atoms: C_7  and  O_8
REMARK    3  A    between atoms: O_8  and  C_9
REMARK                            x       y       z     vdW  Elec       q    Type
REMARK                         _______ _______ _______ _____ _____    ______ ____
ROOT
ATOM      1  C   UNL     1      -2.886   0.390  -0.232  0.00  0.00    +0.000 C 
ATOM      2  F   UNL     1      -3.315   1.093  -1.318  0.00  0.00    +0.000 F 
ATOM      3  F   UNL     1      -3.514  -0.819  -0.276  0.00  0.00    +0.000 F 
ENDROOT
BRANCH   1   7
ATOM      4  C   UNL     1       1.414  -0.004  -0.103  0.00  0.00    +0.000 A 
ATOM      5  C   UNL     1       0.607  -0.987   0.465  0.00  0.00    +0.000 A 
ATOM      6  C   UNL     1      -0.782  -0.861   0.422  0.00  0.00    +0.000 A 
ATOM      7  C   UNL     1      -1.380   0.250  -0.195  0.00  0.00    +0.000 A 
ATOM      8  C   UNL     1      -0.554   1.238  -0.756  0.00  0.00    +0.000 A 
ATOM      9  C   UNL     1       0.835   1.109  -0.712  0.00  0.00    +0.000 A 
ENDBRANCH   1   7
BRANCH   1  10
ATOM     10  O   UNL     1      -3.293   1.080   0.952  0.00  0.00    +0.000 OA
BRANCH  10  11
ATOM     11  C   UNL     1      -4.625   1.290   1.167  0.00  0.00    +0.000 A 
ATOM     12  C   UNL     1      -5.670   0.934   0.314  0.00  0.00    +0.000 A 
ATOM     13  C   UNL     1      -6.995   1.208   0.671  0.00  0.00    +0.000 A 
ATOM     14  C   UNL     1      -7.281   1.840   1.880  0.00  0.00    +0.000 A 
ATOM     15  C   UNL     1      -6.243   2.202   2.733  0.00  0.00    +0.000 A 
ATOM     16  C   UNL     1      -4.922   1.928   2.376  0.00  0.00    +0.000 A 
ENDBRANCH  10  11
ENDBRANCH   1  10
TORSDOF 3
