REMARK  Name = *****
REMARK  3 active torsions:
REMARK  status: ('A' for Active; 'I' for Inactive)
REMARK    1  A    between atoms: C_4  and  C_7
REMARK    2  A    between atoms: C_7  and  C_8
REMARK    3  A    between atoms: C_8  and  C_10
REMARK                            x       y       z     vdW  Elec       q    Type
REMARK                         _______ _______ _______ _____ _____    ______ ____
ROOT
ATOM      1  C   UNL     1      -2.967   0.554  -0.003  0.00  0.00    +0.000 C 
ATOM      2 CL   UNL     1      -4.036  -0.856   0.284  0.00  0.00    +0.000 Cl
ENDROOT
BRANCH   1   6
ATOM      3  C   UNL     1       1.145  -0.634   0.626  0.00  0.00    +0.000 A 
ATOM      4  C   UNL     1       0.444   0.031   1.629  0.00  0.00    +0.000 A 
ATOM      5  C   UNL     1      -0.883   0.410   1.421  0.00  0.00    +0.000 A 
ATOM      6  C   UNL     1      -1.525   0.137   0.201  0.00  0.00    +0.000 A 
ATOM      7  C   UNL     1      -0.810  -0.552  -0.793  0.00  0.00    +0.000 A 
ATOM      8  C   UNL     1       0.518  -0.929  -0.582  0.00  0.00    +0.000 A 
ENDBRANCH   1   6
BRANCH   1   9
ATOM      9  C   UNL     1      -3.255   1.141  -1.384  0.00  0.00    +0.000 C 
ATOM     10  O   UNL     1      -3.614   0.465  -2.350  0.00  0.00    +0.000 OA
BRANCH   9  11
ATOM     11  C   UNL     1      -3.085   2.613  -1.587  0.00  0.00    +0.000 A 
ATOM     12  C   UNL     1      -2.305   3.412  -0.742  0.00  0.00    +0.000 A 
ATOM     13  C   UNL     1      -2.189   4.784  -0.982  0.00  0.00    +0.000 A 
ATOM     14  C   UNL     1      -2.846   5.365  -2.066  0.00  0.00    +0.000 A 
ATOM     15  C   UNL     1      -3.616   4.577  -2.917  0.00  0.00    +0.000 A 
ATOM     16  C   UNL     1      -3.733   3.206  -2.682  0.00  0.00    +0.000 A 
ENDBRANCH   9  11
ENDBRANCH   1   9
TORSDOF 3
