REMARK  Name = *****
REMARK  1 active torsions:
REMARK  status: ('A' for Active; 'I' for Inactive)
REMARK    1  A    between atoms: C_6  and  C_11
REMARK                            x       y       z     vdW  Elec       q    Type
REMARK                         _______ _______ _______ _____ _____    ______ ____
ROOT
ATOM      1  C   UNL     1       2.669   0.084   0.041  0.00  0.00    +0.000 A 
ATOM      2  C   UNL     1       1.892   1.177  -0.057  0.00  0.00    +0.000 A 
ATOM      3  C   UNL     1       0.515   0.709  -0.059  0.00  0.00    +0.000 A 
ATOM      4  C   UNL     1      -0.552   1.508  -0.143  0.00  0.00    +0.000 A 
ATOM      5  C   UNL     1      -1.950   1.135  -0.149  0.00  0.00    +0.000 A 
ATOM      6  C   UNL     1      -2.549  -0.073  -0.073  0.00  0.00    +0.000 A 
ATOM      7  C   UNL     1      -1.874  -1.366   0.030  0.00  0.00    +0.000 A 
ATOM      8  C   UNL     1      -0.570  -1.668   0.082  0.00  0.00    +0.000 A 
ATOM      9  C   UNL     1       0.524  -0.742   0.046  0.00  0.00    +0.000 A 
ATOM     10  C   UNL     1       1.824  -1.096   0.104  0.00  0.00    +0.000 A 
ENDROOT
BRANCH   6  11
ATOM     11  C   UNL     1      -3.990  -0.028  -0.118  0.00  0.00    +0.000 A 
ATOM     12  C   UNL     1      -4.818   0.263  -1.190  0.00  0.00    +0.000 A 
ATOM     13  C   UNL     1      -6.202   0.211  -0.855  0.00  0.00    +0.000 A 
ATOM     14  C   UNL     1      -6.397  -0.120   0.466  0.00  0.00    +0.000 A 
ATOM     15  S   UNL     1      -4.921  -0.368   1.292  0.00  0.00    +0.000 S 
ENDBRANCH   6  11
TORSDOF 1
