REMARK  Name = *****
REMARK  4 active torsions:
REMARK  status: ('A' for Active; 'I' for Inactive)
REMARK    1  A    between atoms: C_1  and  O_2
REMARK    2  A    between atoms: O_2  and  C_3
REMARK    3  A    between atoms: C_4  and  C_10
REMARK    4  A    between atoms: C_11  and  C_12
REMARK                            x       y       z     vdW  Elec       q    Type
REMARK                         _______ _______ _______ _____ _____    ______ ____
ROOT
ATOM      1  C   UNL     1       3.176  -0.868   0.898  0.00  0.00    +0.000 A 
ATOM      2  C   UNL     1       2.688  -2.013   1.546  0.00  0.00    +0.000 A 
ATOM      3  C   UNL     1       3.307  -2.453   2.723  0.00  0.00    +0.000 A 
ATOM      4  C   UNL     1       4.408  -1.767   3.234  0.00  0.00    +0.000 A 
ATOM      5  C   UNL     1       4.909  -0.644   2.579  0.00  0.00    +0.000 A 
ATOM      6  C   UNL     1       4.297  -0.201   1.405  0.00  0.00    +0.000 A 
ATOM      7 CL   UNL     1       5.164  -2.319   4.677  0.00  0.00    +0.000 Cl
ENDROOT
BRANCH   1   9
ATOM      8  C   UNL     1       1.316   0.024  -0.207  0.00  0.00    +0.000 C 
ATOM      9  O   UNL     1       2.686  -0.369  -0.281  0.00  0.00    +0.000 OA
ENDBRANCH   1   9
BRANCH   2  10
ATOM     10  C   UNL     1       1.587  -2.778   1.039  0.00  0.00    +0.000 C 
ATOM     11  C   UNL     1       0.652  -3.412   0.633  0.00  0.00    +0.000 C 
BRANCH  11  12
ATOM     12  C   UNL     1      -0.477  -4.146   0.152  0.00  0.00    +0.000 A 
ATOM     13  C   UNL     1      -0.458  -5.544   0.155  0.00  0.00    +0.000 A 
ATOM     14  C   UNL     1      -1.564  -6.257  -0.311  0.00  0.00    +0.000 A 
ATOM     15  C   UNL     1      -2.679  -5.567  -0.775  0.00  0.00    +0.000 A 
ATOM     16  C   UNL     1      -2.709  -4.177  -0.783  0.00  0.00    +0.000 A 
ATOM     17  C   UNL     1      -1.604  -3.462  -0.317  0.00  0.00    +0.000 A 
ATOM     18  F   UNL     1      -3.740  -6.252  -1.222  0.00  0.00    +0.000 F 
ENDBRANCH  11  12
ENDBRANCH   2  10
TORSDOF 3
