REMARK  Name = *****
REMARK  2 active torsions:
REMARK  status: ('A' for Active; 'I' for Inactive)
REMARK    1  A    between atoms: N_9  and  C_10
REMARK    2  A    between atoms: C_10  and  C_11
REMARK                            x       y       z     vdW  Elec       q    Type
REMARK                         _______ _______ _______ _____ _____    ______ ____
ROOT
ATOM      1  C   UNL     1       0.967  -2.494   1.890  0.00  0.00    +0.000 A 
ATOM      2  C   UNL     1       1.663  -1.518   2.606  0.00  0.00    +0.000 A 
ATOM      3  C   UNL     1       1.870  -0.237   2.081  0.00  0.00    +0.000 A 
ATOM      4  C   UNL     1       1.342   0.019   0.810  0.00  0.00    +0.000 A 
ATOM      5  C   UNL     1       0.650  -0.940   0.077  0.00  0.00    +0.000 A 
ATOM      6  C   UNL     1       0.453  -2.219   0.617  0.00  0.00    +0.000 A 
ATOM      7  N   UNL     1       0.268  -0.415  -1.127  0.00  0.00    +0.000 NA
ATOM      8  N   UNL     1       0.698   0.837  -1.185  0.00  0.00    +0.000 NA
ATOM      9  N   UNL     1       1.321   1.112  -0.019  0.00  0.00    +0.000 N 
ENDROOT
BRANCH   9  10
ATOM     10  C   UNL     1       1.932   2.414   0.190  0.00  0.00    +0.000 C 
BRANCH  10  11
ATOM     11  C   UNL     1       0.918   3.536   0.141  0.00  0.00    +0.000 A 
ATOM     12  C   UNL     1       0.109   3.837   1.254  0.00  0.00    +0.000 A 
ATOM     13  C   UNL     1      -0.856   4.849   1.199  0.00  0.00    +0.000 A 
ATOM     14  C   UNL     1      -1.039   5.581   0.031  0.00  0.00    +0.000 A 
ATOM     15  C   UNL     1      -0.251   5.304  -1.081  0.00  0.00    +0.000 A 
ATOM     16  C   UNL     1       0.717   4.294  -1.030  0.00  0.00    +0.000 A 
ATOM     17 CL   UNL     1       1.653   4.049  -2.464  0.00  0.00    +0.000 Cl
ATOM     18 CL   UNL     1       0.267   2.998   2.758  0.00  0.00    +0.000 Cl
ENDBRANCH  10  11
ENDBRANCH   9  10
TORSDOF 2
