REMARK  Name = *****
REMARK  4 active torsions:
REMARK  status: ('A' for Active; 'I' for Inactive)
REMARK    1  A    between atoms: C_1  and  C_2
REMARK    2  A    between atoms: C_5  and  S_8
REMARK    3  A    between atoms: S_8  and  C_9
REMARK    4  A    between atoms: C_9  and  C_11
REMARK                            x       y       z     vdW  Elec       q    Type
REMARK                         _______ _______ _______ _____ _____    ______ ____
ROOT
ATOM      1  S   UNL     1      -3.854   0.246  -1.232  0.00  0.00    +0.000 S 
ENDROOT
BRANCH   1   6
ATOM      2  C   UNL     1       1.640   0.003   1.399  0.00  0.00    +0.000 C 
ATOM      3  C   UNL     1       0.288   0.094   0.756  0.00  0.00    +0.000 A 
ATOM      4  C   UNL     1      -0.873  -0.072   1.520  0.00  0.00    +0.000 A 
ATOM      5  C   UNL     1      -2.132  -0.023   0.916  0.00  0.00    +0.000 A 
ATOM      6  C   UNL     1      -2.247   0.190  -0.460  0.00  0.00    +0.000 A 
ATOM      7  C   UNL     1      -1.089   0.333  -1.230  0.00  0.00    +0.000 A 
ATOM      8  C   UNL     1       0.170   0.282  -0.626  0.00  0.00    +0.000 A 
ENDBRANCH   1   6
BRANCH   1   9
ATOM      9  C   UNL     1      -4.106   1.962  -1.204  0.00  0.00    +0.000 C 
ATOM     10  C   UNL     1      -4.016   2.702  -2.317  0.00  0.00    +0.000 C 
BRANCH   9  11
ATOM     11  C   UNL     1      -4.476   2.573   0.083  0.00  0.00    +0.000 A 
ATOM     12  C   UNL     1      -5.724   2.313   0.667  0.00  0.00    +0.000 A 
ATOM     13  C   UNL     1      -6.072   2.901   1.885  0.00  0.00    +0.000 A 
ATOM     14  C   UNL     1      -5.178   3.755   2.528  0.00  0.00    +0.000 A 
ATOM     15  C   UNL     1      -3.936   4.024   1.956  0.00  0.00    +0.000 A 
ATOM     16  C   UNL     1      -3.587   3.438   0.737  0.00  0.00    +0.000 A 
ENDBRANCH   9  11
ENDBRANCH   1   9
TORSDOF 3
