REMARK  Name = *****
REMARK  4 active torsions:
REMARK  status: ('A' for Active; 'I' for Inactive)
REMARK    1  A    between atoms: C_4  and  C_7
REMARK    2  A    between atoms: C_7  and  O_9
REMARK    3  A    between atoms: O_9  and  C_10
REMARK    4  A    between atoms: C_10  and  C_11
REMARK                            x       y       z     vdW  Elec       q    Type
REMARK                         _______ _______ _______ _____ _____    ______ ____
ROOT
ATOM      1  O   UNL     1       3.326  -1.873  -0.110  0.00  0.00    +0.000 OA
ENDROOT
BRANCH   1   2
ATOM      2  C   UNL     1       2.933  -0.594  -0.363  0.00  0.00    +0.000 C 
ATOM      3  O   UNL     1       3.620   0.252  -0.918  0.00  0.00    +0.000 OA
BRANCH   2   7
ATOM      4  C   UNL     1      -1.338   0.286  -0.156  0.00  0.00    +0.000 C 
ATOM      5  C   UNL     1      -0.876  -1.125   0.189  0.00  0.00    +0.000 C 
ATOM      6  C   UNL     1       0.540  -1.396  -0.312  0.00  0.00    +0.000 C 
ATOM      7  C   UNL     1       1.539  -0.349   0.200  0.00  0.00    +0.000 C 
ATOM      8  C   UNL     1       1.060   1.069  -0.147  0.00  0.00    +0.000 C 
ATOM      9  C   UNL     1      -0.356   1.334   0.356  0.00  0.00    +0.000 C 
ENDBRANCH   2   7
ENDBRANCH   1   2
BRANCH   1  10
ATOM     10  C   UNL     1       4.640  -2.229  -0.553  0.00  0.00    +0.000 C 
BRANCH  10  11
ATOM     11  C   UNL     1       5.556  -2.313   0.642  0.00  0.00    +0.000 A 
ATOM     12  C   UNL     1       5.720  -3.524   1.332  0.00  0.00    +0.000 A 
ATOM     13  C   UNL     1       6.558  -3.593   2.446  0.00  0.00    +0.000 A 
ATOM     14  C   UNL     1       7.222  -2.450   2.876  0.00  0.00    +0.000 A 
ATOM     15  C   UNL     1       7.062  -1.238   2.216  0.00  0.00    +0.000 A 
ATOM     16  C   UNL     1       6.226  -1.167   1.100  0.00  0.00    +0.000 A 
ATOM     17  F   UNL     1       8.025  -2.518   3.946  0.00  0.00    +0.000 F 
ENDBRANCH  10  11
ENDBRANCH   1  10
TORSDOF 4
