REMARK  Name = *****
REMARK  1 active torsions:
REMARK  status: ('A' for Active; 'I' for Inactive)
REMARK    1  A    between atoms: C_9  and  C_12
REMARK                            x       y       z     vdW  Elec       q    Type
REMARK                         _______ _______ _______ _____ _____    ______ ____
ROOT
ATOM      1  C   UNL     1      -2.495   0.689  -0.354  0.00  0.00    +0.000 C 
ATOM      2  C   UNL     1      -1.250   1.515  -0.051  0.00  0.00    +0.000 C 
ATOM      3  C   UNL     1       0.021   0.701  -0.072  0.00  0.00    +0.000 A 
ATOM      4  C   UNL     1       0.002  -0.699   0.040  0.00  0.00    +0.000 A 
ATOM      5  C   UNL     1      -1.296  -1.465   0.106  0.00  0.00    +0.000 C 
ATOM      6  C   UNL     1      -2.493  -0.591   0.465  0.00  0.00    +0.000 C 
ATOM      7  F   UNL     1      -3.635  -1.282   0.193  0.00  0.00    +0.000 F 
ATOM      8  C   UNL     1       1.215  -1.411   0.036  0.00  0.00    +0.000 A 
ATOM      9  C   UNL     1       2.455  -0.756  -0.052  0.00  0.00    +0.000 A 
ATOM     10  C   UNL     1       2.451   0.643  -0.142  0.00  0.00    +0.000 A 
ATOM     11  C   UNL     1       1.253   1.363  -0.148  0.00  0.00    +0.000 A 
ENDROOT
BRANCH   9  12
ATOM     12  C   UNL     1       3.718  -1.515  -0.052  0.00  0.00    +0.000 A 
ATOM     13  C   UNL     1       3.918  -2.590  -0.935  0.00  0.00    +0.000 A 
ATOM     14  C   UNL     1       5.116  -3.311  -0.936  0.00  0.00    +0.000 A 
ATOM     15  C   UNL     1       6.136  -2.968  -0.053  0.00  0.00    +0.000 A 
ATOM     16  C   UNL     1       5.960  -1.907   0.830  0.00  0.00    +0.000 A 
ATOM     17  C   UNL     1       4.761  -1.188   0.830  0.00  0.00    +0.000 A 
ENDBRANCH   9  12
TORSDOF 1
