REMARK  Name = *****
REMARK  1 active torsions:
REMARK  status: ('A' for Active; 'I' for Inactive)
REMARK    1  A    between atoms: C_4  and  C_7
REMARK                            x       y       z     vdW  Elec       q    Type
REMARK                         _______ _______ _______ _____ _____    ______ ____
ROOT
ATOM      1  C   UNL     1      -2.847   0.475  -0.226  0.00  0.00    +0.000 A 
ATOM      2  C   UNL     1      -3.394   1.041  -1.325  0.00  0.00    +0.000 A 
ATOM      3  C   UNL     1      -4.837   1.039  -1.138  0.00  0.00    +0.000 A 
ATOM      4  C   UNL     1      -5.708   1.521  -2.030  0.00  0.00    +0.000 A 
ATOM      5  C   UNL     1      -7.149   1.556  -1.928  0.00  0.00    +0.000 A 
ATOM      6  C   UNL     1      -7.945   1.130  -0.938  0.00  0.00    +0.000 A 
ATOM      7  C   UNL     1      -7.601   0.510   0.321  0.00  0.00    +0.000 A 
ATOM      8  C   UNL     1      -6.391   0.202   0.804  0.00  0.00    +0.000 A 
ATOM      9  C   UNL     1      -5.130   0.432   0.153  0.00  0.00    +0.000 A 
ATOM     10  C   UNL     1      -3.934   0.103   0.680  0.00  0.00    +0.000 A 
ENDROOT
BRANCH   1  14
ATOM     11  C   UNL     1       1.340  -0.138   0.393  0.00  0.00    +0.000 A 
ATOM     12  C   UNL     1       0.884   1.076  -0.117  0.00  0.00    +0.000 A 
ATOM     13  C   UNL     1      -0.483   1.279  -0.322  0.00  0.00    +0.000 A 
ATOM     14  C   UNL     1      -1.409   0.271  -0.020  0.00  0.00    +0.000 A 
ATOM     15  C   UNL     1      -0.936  -0.944   0.495  0.00  0.00    +0.000 A 
ATOM     16  C   UNL     1       0.431  -1.148   0.699  0.00  0.00    +0.000 A 
ENDBRANCH   1  14
TORSDOF 1
