REMARK  Name = *****
REMARK  5 active torsions:
REMARK  status: ('A' for Active; 'I' for Inactive)
REMARK    1  A    between atoms: C_1  and  O_2
REMARK    2  A    between atoms: O_2  and  C_3
REMARK    3  A    between atoms: C_3  and  C_5
REMARK    4  A    between atoms: C_10  and  C_11
REMARK    5  A    between atoms: C_12  and  C_13
REMARK                            x       y       z     vdW  Elec       q    Type
REMARK                         _______ _______ _______ _____ _____    ______ ____
ROOT
ATOM      1  C   UNL     1       4.532   1.066   0.766  0.00  0.00    +0.000 A 
ATOM      2  C   UNL     1       5.197   1.102  -0.471  0.00  0.00    +0.000 A 
ATOM      3  C   UNL     1       6.591   1.083  -0.524  0.00  0.00    +0.000 A 
ATOM      4  C   UNL     1       7.328   1.018   0.655  0.00  0.00    +0.000 A 
ATOM      5  C   UNL     1       6.674   0.962   1.888  0.00  0.00    +0.000 A 
ATOM      6  C   UNL     1       5.272   0.980   1.959  0.00  0.00    +0.000 A 
ENDROOT
BRANCH   1   7
ATOM      7  C   UNL     1       3.051   1.096   0.720  0.00  0.00    +0.000 C 
ATOM      8  O   UNL     1       2.395   0.507  -0.125  0.00  0.00    +0.000 OA
BRANCH   7  10
ATOM      9  C   UNL     1       1.144   2.061   1.652  0.00  0.00    +0.000 C 
ATOM     10  O   UNL     1       2.566   1.943   1.662  0.00  0.00    +0.000 OA
ENDBRANCH   7  10
ENDBRANCH   1   7
BRANCH   6  11
ATOM     11  C   UNL     1       4.666   0.856   3.289  0.00  0.00    +0.000 C 
ATOM     12  C   UNL     1       4.200  -0.319   3.738  0.00  0.00    +0.000 C 
BRANCH  12  13
ATOM     13  C   UNL     1       3.586  -0.481   5.066  0.00  0.00    +0.000 A 
ATOM     14  C   UNL     1       2.569   0.401   5.469  0.00  0.00    +0.000 A 
ATOM     15  C   UNL     1       1.945   0.258   6.712  0.00  0.00    +0.000 A 
ATOM     16  C   UNL     1       2.322  -0.775   7.566  0.00  0.00    +0.000 A 
ATOM     17  C   UNL     1       3.320  -1.668   7.177  0.00  0.00    +0.000 A 
ATOM     18  C   UNL     1       3.946  -1.527   5.934  0.00  0.00    +0.000 A 
ATOM     19 CL   UNL     1       5.182  -2.670   5.531  0.00  0.00    +0.000 Cl
ENDBRANCH  12  13
ENDBRANCH   6  11
TORSDOF 4
