REMARK  Name = *****
REMARK  5 active torsions:
REMARK  status: ('A' for Active; 'I' for Inactive)
REMARK    1  A    between atoms: C_1  and  C_2
REMARK    2  A    between atoms: C_3  and  C_15
REMARK    3  A    between atoms: N_6  and  C_7
REMARK    4  A    between atoms: C_7  and  C_8
REMARK    5  A    between atoms: C_7  and  C_9
REMARK                            x       y       z     vdW  Elec       q    Type
REMARK                         _______ _______ _______ _____ _____    ______ ____
ROOT
ATOM      1  C   UNL     1       1.369   2.787   1.000  0.00  0.00    +0.000 C 
ATOM      2  C   UNL     1      -0.038   2.785   1.600  0.00  0.00    +0.000 C 
ENDROOT
BRANCH   1   8
ATOM      3  C   UNL     1       1.028  -0.422  -0.513  0.00  0.00    +0.000 C 
ATOM      4  C   UNL     1       2.402   0.159  -0.201  0.00  0.00    +0.000 C 
ATOM      5  C   UNL     1       3.501  -0.907   0.086  0.00  0.00    +0.000 C 
ATOM      6  S   UNL     1       3.544  -0.464   1.852  0.00  0.00    +0.000 S 
ATOM      7  C   UNL     1       2.569   0.769   1.181  0.00  0.00    +0.000 C 
ATOM      8  N   UNL     1       2.184   1.835   1.762  0.00  0.00    +0.000 NA
ATOM      9  C   UNL     1       4.839  -0.681  -0.601  0.00  0.00    +0.000 C 
ENDBRANCH   1   8
BRANCH   1  10
ATOM     10  C   UNL     1       1.950   4.190   1.036  0.00  0.00    +0.000 A 
ATOM     11  C   UNL     1       1.781   5.051  -0.061  0.00  0.00    +0.000 A 
ATOM     12  C   UNL     1       2.284   6.353  -0.029  0.00  0.00    +0.000 A 
ATOM     13  C   UNL     1       2.959   6.814   1.099  0.00  0.00    +0.000 A 
ATOM     14  C   UNL     1       3.130   5.974   2.197  0.00  0.00    +0.000 A 
ATOM     15  C   UNL     1       2.627   4.672   2.167  0.00  0.00    +0.000 A 
ENDBRANCH   1  10
TORSDOF 2
