REMARK  Name = *****
REMARK  5 active torsions:
REMARK  status: ('A' for Active; 'I' for Inactive)
REMARK    1  A    between atoms: C_1  and  C_2
REMARK    2  A    between atoms: C_2  and  C_3
REMARK    3  A    between atoms: C_2  and  O_8
REMARK    4  A    between atoms: O_8  and  C_9
REMARK    5  A    between atoms: C_9  and  C_11
REMARK                            x       y       z     vdW  Elec       q    Type
REMARK                         _______ _______ _______ _____ _____    ______ ____
ROOT
ATOM      1  O   UNL     1       3.073  -0.623  -1.378  0.00  0.00    +0.000 OA
ENDROOT
BRANCH   1   3
ATOM      2  C   UNL     1       1.111   0.046  -0.138  0.00  0.00    +0.000 C 
ATOM      3  C   UNL     1       2.628  -0.124  -0.102  0.00  0.00    +0.000 C 
BRANCH   3   4
ATOM      4  C   UNL     1       3.060  -1.107   0.999  0.00  0.00    +0.000 C 
ATOM      5  C   UNL     1       4.577  -1.296   1.081  0.00  0.00    +0.000 C 
ATOM      6  C   UNL     1       4.747  -2.544   1.940  0.00  0.00    +0.000 C 
ATOM      7  C   UNL     1       3.473  -3.365   1.746  0.00  0.00    +0.000 C 
ATOM      8  C   UNL     1       2.578  -2.548   0.819  0.00  0.00    +0.000 C 
ENDBRANCH   3   4
ENDBRANCH   1   3
BRANCH   1   9
ATOM      9  C   UNL     1       3.290   0.306  -2.357  0.00  0.00    +0.000 C 
ATOM     10  O   UNL     1       3.120   1.510  -2.210  0.00  0.00    +0.000 OA
BRANCH   9  11
ATOM     11  C   UNL     1       3.743  -0.363  -3.563  0.00  0.00    +0.000 A 
ATOM     12  C   UNL     1       3.964  -1.710  -3.795  0.00  0.00    +0.000 A 
ATOM     13  C   UNL     1       4.411  -1.973  -5.122  0.00  0.00    +0.000 A 
ATOM     14  C   UNL     1       4.519  -0.820  -5.865  0.00  0.00    +0.000 A 
ATOM     15  S   UNL     1       4.083   0.566  -4.965  0.00  0.00    +0.000 S 
ENDBRANCH   9  11
ENDBRANCH   1   9
TORSDOF 4
