REMARK  Name = *****
REMARK  7 active torsions:
REMARK  status: ('A' for Active; 'I' for Inactive)
REMARK    1  A    between atoms: C_1  and  C_2
REMARK    2  A    between atoms: C_4  and  C_19
REMARK    3  A    between atoms: C_6  and  C_8
REMARK    4  A    between atoms: C_8  and  O_9
REMARK    5  A    between atoms: O_9  and  C_10
REMARK    6  A    between atoms: N_16  and  C_17
REMARK    7  A    between atoms: N_16  and  C_18
REMARK                            x       y       z     vdW  Elec       q    Type
REMARK                         _______ _______ _______ _____ _____    ______ ____
ROOT
ATOM      1  O   UNL     1      -3.669   0.065   0.020  0.00  0.00    +0.000 OA
ENDROOT
BRANCH   1   2
ATOM      2  C   UNL     1      -4.916   0.648   0.047  0.00  0.00    +0.000 A 
ATOM      3  N   UNL     1      -5.064   1.960   0.301  0.00  0.00    +0.000 NA
ATOM      4  N   UNL     1      -6.327   2.511   0.315  0.00  0.00    +0.000 NA
ATOM      5  C   UNL     1      -7.431   1.757   0.097  0.00  0.00    +0.000 A 
ATOM      6  C   UNL     1      -7.271   0.400  -0.180  0.00  0.00    +0.000 A 
ATOM      7  C   UNL     1      -5.998  -0.167  -0.201  0.00  0.00    +0.000 A 
ATOM      8  N   UNL     1      -8.722   2.331   0.103  0.00  0.00    +0.000 N 
ATOM      9  C   UNL     1      -8.687   3.792   0.199  0.00  0.00    +0.000 C 
ATOM     10  C   UNL     1      -9.631   1.690   1.053  0.00  0.00    +0.000 C 
ENDBRANCH   1   2
BRANCH   1  11
ATOM     11  C   UNL     1      -2.614   0.997   0.266  0.00  0.00    +0.000 C 
BRANCH  11  17
ATOM     12  C   UNL     1       1.831  -0.256   2.304  0.00  0.00    +0.000 C 
ATOM     13  C   UNL     1       0.848  -0.349   1.174  0.00  0.00    +0.000 A 
ATOM     14  C   UNL     1       1.178  -1.044   0.004  0.00  0.00    +0.000 A 
ATOM     15  C   UNL     1       0.280  -1.114  -1.067  0.00  0.00    +0.000 A 
ATOM     16  C   UNL     1      -0.947  -0.446  -0.973  0.00  0.00    +0.000 A 
ATOM     17  C   UNL     1      -1.295   0.264   0.186  0.00  0.00    +0.000 A 
ATOM     18  C   UNL     1      -0.385   0.312   1.252  0.00  0.00    +0.000 A 
ATOM     19  C   UNL     1       0.654  -1.838  -2.327  0.00  0.00    +0.000 C 
ENDBRANCH  11  17
ENDBRANCH   1  11
TORSDOF 3
