REMARK  Name = *****
REMARK  5 active torsions:
REMARK  status: ('A' for Active; 'I' for Inactive)
REMARK    1  A    between atoms: C_1  and  C_2
REMARK    2  A    between atoms: C_7  and  O_8
REMARK    3  A    between atoms: O_8  and  C_9
REMARK    4  A    between atoms: C_9  and  C_10
REMARK    5  A    between atoms: C_9  and  C_11
REMARK                            x       y       z     vdW  Elec       q    Type
REMARK                         _______ _______ _______ _____ _____    ______ ____
ROOT
ATOM      1  O   UNL     1       0.219  -1.196  -1.378  0.00  0.00    +0.000 OA
ENDROOT
BRANCH   1   8
ATOM      2  C   UNL     1       0.442  -0.614   2.327  0.00  0.00    +0.000 C 
ATOM      3  C   UNL     1       0.621  -0.352   0.829  0.00  0.00    +0.000 C 
ATOM      4  C   UNL     1       0.356   1.123   0.479  0.00  0.00    +0.000 C 
ATOM      5  C   UNL     1      -1.125   1.491   0.525  0.00  0.00    +0.000 C 
ATOM      6  C   UNL     1      -1.967   0.554  -0.333  0.00  0.00    +0.000 C 
ATOM      7  C   UNL     1      -1.737  -0.912   0.033  0.00  0.00    +0.000 C 
ATOM      8  C   UNL     1      -0.252  -1.298  -0.024  0.00  0.00    +0.000 C 
ENDBRANCH   1   8
BRANCH   1   9
ATOM      9  C   UNL     1       0.009  -2.376  -2.164  0.00  0.00    +0.000 C 
ATOM     10  C   UNL     1       0.057  -1.957  -3.631  0.00  0.00    +0.000 C 
BRANCH   9  11
ATOM     11  C   UNL     1       1.072  -3.421  -1.878  0.00  0.00    +0.000 A 
ATOM     12  C   UNL     1       0.726  -4.780  -1.824  0.00  0.00    +0.000 A 
ATOM     13  C   UNL     1       1.698  -5.750  -1.572  0.00  0.00    +0.000 A 
ATOM     14  C   UNL     1       3.026  -5.375  -1.375  0.00  0.00    +0.000 A 
ATOM     15  C   UNL     1       3.384  -4.029  -1.431  0.00  0.00    +0.000 A 
ATOM     16  C   UNL     1       2.414  -3.059  -1.684  0.00  0.00    +0.000 A 
ENDBRANCH   9  11
ENDBRANCH   1   9
TORSDOF 3
