REMARK  Name = *****
REMARK  2 active torsions:
REMARK  status: ('A' for Active; 'I' for Inactive)
REMARK    1  A    between atoms: C_6  and  C_7
REMARK    2  A    between atoms: C_8  and  C_9
REMARK                            x       y       z     vdW  Elec       q    Type
REMARK                         _______ _______ _______ _____ _____    ______ ____
ROOT
ATOM      1  C   UNL     1      -3.442   0.017   0.006  0.00  0.00    +0.000 C 
ATOM      2  C   UNL     1      -4.188   1.133   0.046  0.00  0.00    +0.000 C 
ENDROOT
BRANCH   2   3
ATOM      3  C   UNL     1      -5.659   1.136   0.094  0.00  0.00    +0.000 A 
ATOM      4  C   UNL     1      -6.408   0.226   0.857  0.00  0.00    +0.000 A 
ATOM      5  C   UNL     1      -7.798   0.284   0.898  0.00  0.00    +0.000 A 
ATOM      6  C   UNL     1      -8.453   1.270   0.175  0.00  0.00    +0.000 A 
ATOM      7  C   UNL     1      -7.741   2.195  -0.580  0.00  0.00    +0.000 A 
ATOM      8  C   UNL     1      -6.345   2.133  -0.617  0.00  0.00    +0.000 A 
ATOM      9  F   UNL     1      -9.790   1.336   0.208  0.00  0.00    +0.000 F 
ATOM     10  F   UNL     1      -5.798  -0.722   1.584  0.00  0.00    +0.000 F 
ENDBRANCH   2   3
BRANCH   1  16
ATOM     11  C   UNL     1      -1.242   0.938  -0.795  0.00  0.00    +0.000 A 
ATOM     12  C   UNL     1       0.154   0.881  -0.829  0.00  0.00    +0.000 A 
ATOM     13  C   UNL     1       0.818  -0.107  -0.112  0.00  0.00    +0.000 A 
ATOM     14  C   UNL     1       0.113  -1.043   0.634  0.00  0.00    +0.000 A 
ATOM     15  C   UNL     1      -1.283  -0.986   0.668  0.00  0.00    +0.000 A 
ATOM     16  C   UNL     1      -1.973   0.013  -0.035  0.00  0.00    +0.000 A 
ATOM     17  F   UNL     1       2.155  -0.162  -0.147  0.00  0.00    +0.000 F 
ENDBRANCH   1  16
TORSDOF 2
