REMARK  Name = *****
REMARK  3 active torsions:
REMARK  status: ('A' for Active; 'I' for Inactive)
REMARK    1  A    between atoms: C_4  and  S_7
REMARK    2  A    between atoms: S_7  and  C_8
REMARK    3  A    between atoms: C_8  and  C_10
REMARK                            x       y       z     vdW  Elec       q    Type
REMARK                         _______ _______ _______ _____ _____    ______ ____
ROOT
ATOM      1  S   UNL     1      -3.188  -1.334  -0.180  0.00  0.00    +0.000 S 
ENDROOT
BRANCH   1   5
ATOM      2  C   UNL     1       1.055   0.358   0.177  0.00  0.00    +0.000 A 
ATOM      3  C   UNL     1       0.855  -1.013   0.027  0.00  0.00    +0.000 A 
ATOM      4  C   UNL     1      -0.441  -1.523  -0.078  0.00  0.00    +0.000 A 
ATOM      5  C   UNL     1      -1.544  -0.664  -0.024  0.00  0.00    +0.000 A 
ATOM      6  C   UNL     1      -1.336   0.712   0.115  0.00  0.00    +0.000 A 
ATOM      7  C   UNL     1      -0.040   1.220   0.219  0.00  0.00    +0.000 A 
ENDBRANCH   1   5
BRANCH   1   8
ATOM      8  C   UNL     1      -3.830  -1.118   1.448  0.00  0.00    +0.000 C 
ATOM      9  S   UNL     1      -3.134  -1.773   2.828  0.00  0.00    +0.000 S 
BRANCH   8  10
ATOM     10  C   UNL     1      -5.119  -0.450   1.538  0.00  0.00    +0.000 A 
ATOM     11  C   UNL     1      -6.241  -0.819   2.268  0.00  0.00    +0.000 A 
ATOM     12  C   UNL     1      -7.326   0.093   2.122  0.00  0.00    +0.000 A 
ATOM     13  C   UNL     1      -7.005   1.145   1.297  0.00  0.00    +0.000 A 
ATOM     14  S   UNL     1      -5.406   1.032   0.709  0.00  0.00    +0.000 S 
ENDBRANCH   8  10
ENDBRANCH   1   8
TORSDOF 3
