REMARK  Name = *****
REMARK  4 active torsions:
REMARK  status: ('A' for Active; 'I' for Inactive)
REMARK    1  A    between atoms: C_1  and  C_2
REMARK    2  A    between atoms: C_3  and  S_7
REMARK    3  A    between atoms: S_7  and  C_8
REMARK    4  A    between atoms: C_8  and  C_9
REMARK                            x       y       z     vdW  Elec       q    Type
REMARK                         _______ _______ _______ _____ _____    ______ ____
ROOT
ATOM      1  S   UNL     1       0.026  -2.997  -0.016  0.00  0.00    +0.000 S 
ENDROOT
BRANCH   1   4
ATOM      2  C   UNL     1       0.693  -0.400  -2.280  0.00  0.00    +0.000 C 
ATOM      3  C   UNL     1       0.175  -0.330  -0.899  0.00  0.00    +0.000 A 
ATOM      4  C   UNL     1      -0.123  -1.263   0.070  0.00  0.00    +0.000 A 
ATOM      5  C   UNL     1      -0.614  -0.552   1.188  0.00  0.00    +0.000 A 
ATOM      6  C   UNL     1      -0.564   0.778   0.840  0.00  0.00    +0.000 A 
ATOM      7  O   UNL     1      -0.082   0.924  -0.421  0.00  0.00    +0.000 OA
ENDBRANCH   1   4
BRANCH   1   8
ATOM      8  C   UNL     1       1.836  -3.160  -0.011  0.00  0.00    +0.000 C 
BRANCH   8   9
ATOM      9  C   UNL     1       2.264  -4.607  -0.013  0.00  0.00    +0.000 A 
ATOM     10  C   UNL     1       2.430  -5.300  -1.221  0.00  0.00    +0.000 A 
ATOM     11  C   UNL     1       2.816  -6.641  -1.221  0.00  0.00    +0.000 A 
ATOM     12  C   UNL     1       3.034  -7.305  -0.016  0.00  0.00    +0.000 A 
ATOM     13  C   UNL     1       2.863  -6.630   1.191  0.00  0.00    +0.000 A 
ATOM     14  C   UNL     1       2.477  -5.288   1.194  0.00  0.00    +0.000 A 
ENDBRANCH   8   9
ENDBRANCH   1   8
TORSDOF 3
