REMARK  Name = *****
REMARK  6 active torsions:
REMARK  status: ('A' for Active; 'I' for Inactive)
REMARK    1  A    between atoms: C_4  and  C_7
REMARK    2  A    between atoms: C_7  and  C_8
REMARK    3  A    between atoms: C_8  and  C_9
REMARK    4  A    between atoms: C_8  and  S_16
REMARK    5  A    between atoms: C_8  and  S_17
REMARK    6  A    between atoms: C_9  and  C_10
REMARK                            x       y       z     vdW  Elec       q    Type
REMARK                         _______ _______ _______ _____ _____    ______ ____
ROOT
ATOM      1  C   UNL     1      -3.703  -0.844  -0.132  0.00  0.00    +0.000 C 
ENDROOT
BRANCH   1   2
ATOM      2  S   UNL     1      -3.746  -1.953   1.365  0.00  0.00    +0.000 S 
ATOM      3  H   UNL     1      -2.497  -2.435   1.608  0.00  0.00    +0.000 HD
ENDBRANCH   1   2
BRANCH   1   4
ATOM      4  S   UNL     1      -5.468  -0.276  -0.325  0.00  0.00    +0.000 S 
ATOM      5  H   UNL     1      -5.563   0.551  -1.401  0.00  0.00    +0.000 HD
ENDBRANCH   1   4
BRANCH   1   6
ATOM      6  C   UNL     1      -2.754   0.339   0.219  0.00  0.00    +0.000 C 
BRANCH   6  10
ATOM      7  C   UNL     1      -2.188   3.579  -2.601  0.00  0.00    +0.000 A 
ATOM      8  C   UNL     1      -3.353   3.514  -1.841  0.00  0.00    +0.000 A 
ATOM      9  C   UNL     1      -3.537   2.472  -0.929  0.00  0.00    +0.000 A 
ATOM     10  C   UNL     1      -2.572   1.466  -0.780  0.00  0.00    +0.000 A 
ATOM     11  C   UNL     1      -1.386   1.572  -1.521  0.00  0.00    +0.000 A 
ATOM     12  C   UNL     1      -1.200   2.613  -2.433  0.00  0.00    +0.000 A 
ENDBRANCH   6  10
ENDBRANCH   1   6
BRANCH   1  13
ATOM     13  C   UNL     1      -3.350  -1.638  -1.425  0.00  0.00    +0.000 C 
BRANCH  13  14
ATOM     14  C   UNL     1      -1.982  -2.285  -1.549  0.00  0.00    +0.000 A 
ATOM     15  C   UNL     1      -1.674  -3.479  -0.881  0.00  0.00    +0.000 A 
ATOM     16  C   UNL     1      -0.416  -4.071  -1.016  0.00  0.00    +0.000 A 
ATOM     17  C   UNL     1       0.543  -3.493  -1.842  0.00  0.00    +0.000 A 
ATOM     18  C   UNL     1       0.238  -2.334  -2.548  0.00  0.00    +0.000 A 
ATOM     19  C   UNL     1      -1.019  -1.742  -2.411  0.00  0.00    +0.000 A 
ENDBRANCH  13  14
ENDBRANCH   1  13
TORSDOF 6
