REMARK  Name = *****
REMARK  4 active torsions:
REMARK  status: ('A' for Active; 'I' for Inactive)
REMARK    1  A    between atoms: C_1  and  O_2
REMARK    2  A    between atoms: O_2  and  C_3
REMARK    3  A    between atoms: C_8  and  C_9
REMARK    4  A    between atoms: C_10  and  C_11
REMARK                            x       y       z     vdW  Elec       q    Type
REMARK                         _______ _______ _______ _____ _____    ______ ____
ROOT
ATOM      1  C   UNL     1       3.226  -0.537  -0.917  0.00  0.00    +0.000 A 
ATOM      2  C   UNL     1       2.937  -0.711  -2.277  0.00  0.00    +0.000 A 
ATOM      3  C   UNL     1       3.281  -1.897  -2.932  0.00  0.00    +0.000 A 
ATOM      4  C   UNL     1       3.921  -2.918  -2.238  0.00  0.00    +0.000 A 
ATOM      5  C   UNL     1       4.214  -2.758  -0.884  0.00  0.00    +0.000 A 
ATOM      6  C   UNL     1       3.864  -1.578  -0.209  0.00  0.00    +0.000 A 
ENDROOT
BRANCH   1   8
ATOM      7  C   UNL     1       2.277   1.658  -0.891  0.00  0.00    +0.000 C 
ATOM      8  O   UNL     1       2.944   0.605  -0.210  0.00  0.00    +0.000 OA
ENDBRANCH   1   8
BRANCH   6   9
ATOM      9  C   UNL     1       4.224  -1.491   1.216  0.00  0.00    +0.000 C 
ATOM     10  C   UNL     1       3.322  -1.250   2.181  0.00  0.00    +0.000 C 
BRANCH  10  11
ATOM     11  C   UNL     1       3.644  -1.184   3.613  0.00  0.00    +0.000 A 
ATOM     12  C   UNL     1       4.836  -0.621   4.088  0.00  0.00    +0.000 A 
ATOM     13  C   UNL     1       5.093  -0.551   5.460  0.00  0.00    +0.000 A 
ATOM     14  C   UNL     1       4.156  -1.033   6.371  0.00  0.00    +0.000 A 
ATOM     15  C   UNL     1       2.959  -1.579   5.912  0.00  0.00    +0.000 A 
ATOM     16  C   UNL     1       2.703  -1.649   4.540  0.00  0.00    +0.000 A 
ENDBRANCH  10  11
ENDBRANCH   6   9
TORSDOF 3
