REMARK  Name = *****
REMARK  5 active torsions:
REMARK  status: ('A' for Active; 'I' for Inactive)
REMARK    1  A    between atoms: C_1  and  C_2
REMARK    2  A    between atoms: C_5  and  C_8
REMARK    3  A    between atoms: C_8  and  O_9
REMARK    4  A    between atoms: O_9  and  C_10
REMARK    5  A    between atoms: C_13  and  C_16
REMARK                            x       y       z     vdW  Elec       q    Type
REMARK                         _______ _______ _______ _____ _____    ______ ____
ROOT
ATOM      1  C   UNL     1      -3.325  -0.008   0.023  0.00  0.00    +0.000 C 
ENDROOT
BRANCH   1   6
ATOM      2  C   UNL     1       2.506   0.024  -0.049  0.00  0.00    +0.000 C 
ATOM      3  C   UNL     1       1.007   0.039  -0.060  0.00  0.00    +0.000 A 
ATOM      4  C   UNL     1       0.302   0.986   0.690  0.00  0.00    +0.000 A 
ATOM      5  C   UNL     1      -1.095   0.979   0.706  0.00  0.00    +0.000 A 
ATOM      6  C   UNL     1      -1.815   0.025  -0.026  0.00  0.00    +0.000 A 
ATOM      7  C   UNL     1      -1.105  -0.938  -0.756  0.00  0.00    +0.000 A 
ATOM      8  C   UNL     1       0.292  -0.931  -0.771  0.00  0.00    +0.000 A 
ENDBRANCH   1   6
BRANCH   1   9
ATOM      9  O   UNL     1      -3.836   1.311  -0.168  0.00  0.00    +0.000 OA
BRANCH   9  10
ATOM     10  C   UNL     1      -5.193   1.469  -0.106  0.00  0.00    +0.000 A 
ATOM     11  C   UNL     1      -6.130   0.461   0.116  0.00  0.00    +0.000 A 
ATOM     12  C   UNL     1      -7.496   0.766   0.157  0.00  0.00    +0.000 A 
ATOM     13  C   UNL     1      -7.941   2.078  -0.036  0.00  0.00    +0.000 A 
ATOM     14  C   UNL     1      -6.997   3.088  -0.245  0.00  0.00    +0.000 A 
ATOM     15  C   UNL     1      -5.635   2.781  -0.285  0.00  0.00    +0.000 A 
ATOM     16  C   UNL     1      -9.401   2.410   0.042  0.00  0.00    +0.000 C 
ENDBRANCH   9  10
ENDBRANCH   1   9
TORSDOF 3
