REMARK  Name = *****
REMARK  4 active torsions:
REMARK  status: ('A' for Active; 'I' for Inactive)
REMARK    1  A    between atoms: C_1  and  C_2
REMARK    2  A    between atoms: C_5  and  O_8
REMARK    3  A    between atoms: O_8  and  C_9
REMARK    4  A    between atoms: C_9  and  C_11
REMARK                            x       y       z     vdW  Elec       q    Type
REMARK                         _______ _______ _______ _____ _____    ______ ____
ROOT
ATOM      1  O   UNL     1      -2.514   0.161  -1.603  0.00  0.00    +0.000 OA
ENDROOT
BRANCH   1   6
ATOM      2  C   UNL     1       2.146  -0.028  -0.611  0.00  0.00    +0.000 C 
ATOM      3  C   UNL     1       1.077  -0.145   0.477  0.00  0.00    +0.000 C 
ATOM      4  C   UNL     1       0.309   1.177   0.661  0.00  0.00    +0.000 C 
ATOM      5  C   UNL     1      -0.782   1.358  -0.392  0.00  0.00    +0.000 C 
ATOM      6  C   UNL     1      -1.796   0.205  -0.359  0.00  0.00    +0.000 C 
ATOM      7  C   UNL     1      -1.130  -1.136  -0.197  0.00  0.00    +0.000 C 
ATOM      8  C   UNL     1       0.153  -1.295   0.164  0.00  0.00    +0.000 C 
ENDBRANCH   1   6
BRANCH   1   9
ATOM      9  C   UNL     1      -3.540   1.038  -1.720  0.00  0.00    +0.000 C 
ATOM     10  O   UNL     1      -3.905   1.834  -0.870  0.00  0.00    +0.000 OA
BRANCH   9  11
ATOM     11  C   UNL     1      -4.187   0.907  -3.054  0.00  0.00    +0.000 A 
ATOM     12  C   UNL     1      -5.283   1.732  -3.342  0.00  0.00    +0.000 A 
ATOM     13  C   UNL     1      -5.921   1.648  -4.581  0.00  0.00    +0.000 A 
ATOM     14  C   UNL     1      -5.469   0.741  -5.539  0.00  0.00    +0.000 A 
ATOM     15  C   UNL     1      -4.379  -0.083  -5.261  0.00  0.00    +0.000 A 
ATOM     16  C   UNL     1      -3.737  -0.002  -4.022  0.00  0.00    +0.000 A 
ENDBRANCH   9  11
ENDBRANCH   1   9
TORSDOF 3
