REMARK  Name = *****
REMARK  3 active torsions:
REMARK  status: ('A' for Active; 'I' for Inactive)
REMARK    1  A    between atoms: C_1  and  C_2
REMARK    2  A    between atoms: C_3  and  C_7
REMARK    3  A    between atoms: N_8  and  C_9
REMARK                            x       y       z     vdW  Elec       q    Type
REMARK                         _______ _______ _______ _____ _____    ______ ____
ROOT
ATOM      1  C   UNL     1       0.739  -2.537   0.231  0.00  0.00    +0.000 C 
ATOM      2  N   UNL     1       1.880  -2.971  -0.207  0.00  0.00    +0.000 NA
ENDROOT
BRANCH   1   5
ATOM      3  C   UNL     1       2.617  -0.070  -0.556  0.00  0.00    +0.000 C 
ATOM      4  C   UNL     1       1.216  -0.022  -0.037  0.00  0.00    +0.000 A 
ATOM      5  C   UNL     1       0.437  -1.124   0.294  0.00  0.00    +0.000 A 
ATOM      6  S   UNL     1      -1.116  -0.668   0.859  0.00  0.00    +0.000 S 
ATOM      7  C   UNL     1      -0.775   0.991   0.668  0.00  0.00    +0.000 A 
ATOM      8  C   UNL     1       0.496   1.200   0.186  0.00  0.00    +0.000 A 
ENDBRANCH   1   5
BRANCH   2   9
ATOM      9  C   UNL     1       2.040  -4.362  -0.215  0.00  0.00    +0.000 A 
ATOM     10  C   UNL     1       1.588  -5.124  -1.296  0.00  0.00    +0.000 A 
ATOM     11  C   UNL     1       1.758  -6.510  -1.305  0.00  0.00    +0.000 A 
ATOM     12  C   UNL     1       2.393  -7.139  -0.235  0.00  0.00    +0.000 A 
ATOM     13  C   UNL     1       2.862  -6.384   0.839  0.00  0.00    +0.000 A 
ATOM     14  C   UNL     1       2.690  -4.999   0.845  0.00  0.00    +0.000 A 
ENDBRANCH   2   9
TORSDOF 2
