REMARK  Name = *****
REMARK  2 active torsions:
REMARK  status: ('A' for Active; 'I' for Inactive)
REMARK    1  A    between atoms: C_3  and  C_9
REMARK    2  A    between atoms: N_10  and  C_11
REMARK                            x       y       z     vdW  Elec       q    Type
REMARK                         _______ _______ _______ _____ _____    ______ ____
ROOT
ATOM      1  C   UNL     1      -2.410  -2.101   0.176  0.00  0.00    +0.000 C 
ATOM      2  N   UNL     1      -2.600  -3.137  -0.581  0.00  0.00    +0.000 NA
ENDROOT
BRANCH   1   5
ATOM      3  C   UNL     1       1.030  -0.898  -0.809  0.00  0.00    +0.000 A 
ATOM      4  C   UNL     1      -0.130  -1.675  -0.761  0.00  0.00    +0.000 A 
ATOM      5  C   UNL     1      -1.173  -1.306   0.095  0.00  0.00    +0.000 A 
ATOM      6  C   UNL     1      -1.049  -0.168   0.893  0.00  0.00    +0.000 A 
ATOM      7  C   UNL     1       0.103   0.609   0.847  0.00  0.00    +0.000 A 
ATOM      8  C   UNL     1       1.134   0.235  -0.006  0.00  0.00    +0.000 A 
ATOM      9  F   UNL     1       2.247   0.977  -0.056  0.00  0.00    +0.000 F 
ATOM     10  F   UNL     1      -2.042   0.200   1.716  0.00  0.00    +0.000 F 
ENDBRANCH   1   5
BRANCH   2  11
ATOM     11  C   UNL     1      -3.807  -3.839  -0.411  0.00  0.00    +0.000 A 
ATOM     12  C   UNL     1      -4.190  -4.424   0.808  0.00  0.00    +0.000 A 
ATOM     13  C   UNL     1      -5.377  -5.139   0.929  0.00  0.00    +0.000 A 
ATOM     14  C   UNL     1      -6.190  -5.280  -0.186  0.00  0.00    +0.000 A 
ATOM     15  C   UNL     1      -5.834  -4.725  -1.411  0.00  0.00    +0.000 A 
ATOM     16  C   UNL     1      -4.639  -4.009  -1.523  0.00  0.00    +0.000 A 
ATOM     17  F   UNL     1      -7.336  -5.966  -0.083  0.00  0.00    +0.000 F 
ATOM     18  F   UNL     1      -3.408  -4.294   1.891  0.00  0.00    +0.000 F 
ENDBRANCH   2  11
TORSDOF 2
