REMARK  Name = *****
REMARK  2 active torsions:
REMARK  status: ('A' for Active; 'I' for Inactive)
REMARK    1  A    between atoms: C_4  and  O_7
REMARK    2  A    between atoms: O_7  and  C_8
REMARK                            x       y       z     vdW  Elec       q    Type
REMARK                         _______ _______ _______ _____ _____    ______ ____
ROOT
ATOM      1  C   UNL     1       3.467  -1.570   0.254  0.00  0.00    +0.000 A 
ATOM      2  N   UNL     1       3.276  -2.031   1.471  0.00  0.00    +0.000 NA
ATOM      3  C   UNL     1       4.402  -2.784   1.689  0.00  0.00    +0.000 A 
ATOM      4  C   UNL     1       4.806  -3.537   2.799  0.00  0.00    +0.000 A 
ATOM      5  C   UNL     1       6.035  -4.212   2.729  0.00  0.00    +0.000 A 
ATOM      6  C   UNL     1       6.838  -4.139   1.583  0.00  0.00    +0.000 A 
ATOM      7  C   UNL     1       6.448  -3.391   0.465  0.00  0.00    +0.000 A 
ATOM      8  C   UNL     1       5.227  -2.737   0.575  0.00  0.00    +0.000 A 
ATOM      9  O   UNL     1       4.622  -1.949  -0.361  0.00  0.00    +0.000 OA
ENDROOT
BRANCH   1  10
ATOM     10  O   UNL     1       2.678  -0.783  -0.464  0.00  0.00    +0.000 OA
BRANCH  10  14
ATOM     11  C   UNL     1      -1.394   0.343  -0.115  0.00  0.00    +0.000 C 
ATOM     12  C   UNL     1      -0.974  -0.989   0.500  0.00  0.00    +0.000 C 
ATOM     13  C   UNL     1       0.381  -1.451  -0.028  0.00  0.00    +0.000 C 
ATOM     14  C   UNL     1       1.464  -0.384   0.178  0.00  0.00    +0.000 C 
ATOM     15  C   UNL     1       1.032   0.943  -0.457  0.00  0.00    +0.000 C 
ATOM     16  C   UNL     1      -0.320   1.411   0.071  0.00  0.00    +0.000 C 
ENDBRANCH  10  14
ENDBRANCH   1  10
TORSDOF 2
