REMARK  Name = *****
REMARK  2 active torsions:
REMARK  status: ('A' for Active; 'I' for Inactive)
REMARK    1  A    between atoms: C_1  and  C_2
REMARK    2  A    between atoms: C_10  and  C_12
REMARK                            x       y       z     vdW  Elec       q    Type
REMARK                         _______ _______ _______ _____ _____    ______ ____
ROOT
ATOM      1  C   UNL     1       0.968   0.205   0.286  0.00  0.00    +0.000 C 
ATOM      2  C   UNL     1       2.407  -0.102  -0.136  0.00  0.00    +0.000 C 
ATOM      3  C   UNL     1       2.941  -1.325   0.580  0.00  0.00    +0.000 A 
ATOM      4  C   UNL     1       2.717  -2.599   0.029  0.00  0.00    +0.000 A 
ATOM      5  C   UNL     1       3.153  -3.748   0.689  0.00  0.00    +0.000 A 
ATOM      6  C   UNL     1       3.809  -3.639   1.911  0.00  0.00    +0.000 A 
ATOM      7  C   UNL     1       4.033  -2.382   2.473  0.00  0.00    +0.000 A 
ATOM      8  C   UNL     1       3.611  -1.219   1.813  0.00  0.00    +0.000 A 
ATOM      9  C   UNL     1       3.862   0.087   2.436  0.00  0.00    +0.000 C 
ATOM     10  C   UNL     1       3.810   1.253   1.772  0.00  0.00    +0.000 C 
ATOM     11  S   UNL     1       3.453   1.378   0.084  0.00  0.00    +0.000 S 
ENDROOT
BRANCH  10  12
ATOM     12  C   UNL     1       4.105   2.514   2.466  0.00  0.00    +0.000 A 
ATOM     13  C   UNL     1       5.340   3.154   2.289  0.00  0.00    +0.000 A 
ATOM     14  C   UNL     1       5.625   4.340   2.968  0.00  0.00    +0.000 A 
ATOM     15  C   UNL     1       4.680   4.894   3.831  0.00  0.00    +0.000 A 
ATOM     16  C   UNL     1       3.450   4.265   4.016  0.00  0.00    +0.000 A 
ATOM     17  C   UNL     1       3.163   3.078   3.338  0.00  0.00    +0.000 A 
ENDBRANCH  10  12
TORSDOF 1
