REMARK  Name = *****
REMARK  4 active torsions:
REMARK  status: ('A' for Active; 'I' for Inactive)
REMARK    1  A    between atoms: C_1  and  C_2
REMARK    2  A    between atoms: C_4  and  C_8
REMARK    3  A    between atoms: N_9  and  C_10
REMARK    4  A    between atoms: C_14  and  C_16
REMARK                            x       y       z     vdW  Elec       q    Type
REMARK                         _______ _______ _______ _____ _____    ______ ____
ROOT
ATOM      1  C   UNL     1      -1.587   2.748  -0.168  0.00  0.00    +0.000 C 
ATOM      2  N   UNL     1      -1.026   3.751   0.430  0.00  0.00    +0.000 NA
ENDROOT
BRANCH   1   6
ATOM      3  C   UNL     1       2.280  -0.291   0.818  0.00  0.00    +0.000 C 
ATOM      4  C   UNL     1       0.936  -0.049   0.197  0.00  0.00    +0.000 A 
ATOM      5  C   UNL     1       0.329   1.210   0.296  0.00  0.00    +0.000 A 
ATOM      6  C   UNL     1      -0.938   1.425  -0.256  0.00  0.00    +0.000 A 
ATOM      7  C   UNL     1      -1.613   0.386  -0.901  0.00  0.00    +0.000 A 
ATOM      8  C   UNL     1      -1.019  -0.873  -0.987  0.00  0.00    +0.000 A 
ATOM      9  C   UNL     1       0.246  -1.090  -0.436  0.00  0.00    +0.000 A 
ENDBRANCH   1   6
BRANCH   2  10
ATOM     10  C   UNL     1      -1.760   4.945   0.435  0.00  0.00    +0.000 A 
ATOM     11  C   UNL     1      -2.700   5.196   1.436  0.00  0.00    +0.000 A 
ATOM     12  C   UNL     1      -3.415   6.394   1.448  0.00  0.00    +0.000 A 
ATOM     13  C   UNL     1      -3.187   7.352   0.459  0.00  0.00    +0.000 A 
ATOM     14  C   UNL     1      -2.246   7.118  -0.551  0.00  0.00    +0.000 A 
ATOM     15  C   UNL     1      -1.525   5.916  -0.543  0.00  0.00    +0.000 A 
ATOM     16  C   UNL     1      -1.961   8.167  -1.584  0.00  0.00    +0.000 C 
ENDBRANCH   2  10
TORSDOF 2
