REMARK  Name = *****
REMARK  3 active torsions:
REMARK  status: ('A' for Active; 'I' for Inactive)
REMARK    1  A    between atoms: C_1  and  C_2
REMARK    2  A    between atoms: C_2  and  C_10
REMARK    3  A    between atoms: C_3  and  C_4
REMARK                            x       y       z     vdW  Elec       q    Type
REMARK                         _______ _______ _______ _____ _____    ______ ____
ROOT
ATOM      1  C   UNL     1       0.913   0.346   0.021  0.00  0.00    +0.000 C 
ATOM      2  C   UNL     1       2.416   0.179  -0.056  0.00  0.00    +0.000 C 
ATOM      3  C   UNL     1       3.014  -0.701  -0.889  0.00  0.00    +0.000 C 
ENDROOT
BRANCH   3   4
ATOM      4  C   UNL     1       2.323  -1.594  -1.822  0.00  0.00    +0.000 A 
ATOM      5  C   UNL     1       1.986  -1.148  -3.104  0.00  0.00    +0.000 A 
ATOM      6  C   UNL     1       1.325  -2.000  -3.990  0.00  0.00    +0.000 A 
ATOM      7  C   UNL     1       0.999  -3.298  -3.598  0.00  0.00    +0.000 A 
ATOM      8  C   UNL     1       1.332  -3.746  -2.320  0.00  0.00    +0.000 A 
ATOM      9  C   UNL     1       1.993  -2.895  -1.432  0.00  0.00    +0.000 A 
ENDBRANCH   3   4
BRANCH   2  10
ATOM     10  C   UNL     1       3.278   1.042   0.848  0.00  0.00    +0.000 C 
ATOM     11  S   UNL     1       2.990   0.658   2.602  0.00  0.00    +0.000 S 
ATOM     12  C   UNL     1       2.931   2.372   3.182  0.00  0.00    +0.000 C 
ATOM     13  C   UNL     1       2.241   3.197   2.116  0.00  0.00    +0.000 C 
ATOM     14  S   UNL     1       3.027   2.814   0.532  0.00  0.00    +0.000 S 
ENDBRANCH   2  10
TORSDOF 2
