REMARK  Name = *****
REMARK  7 active torsions:
REMARK  status: ('A' for Active; 'I' for Inactive)
REMARK    1  A    between atoms: C_1  and  C_2
REMARK    2  A    between atoms: C_5  and  O_8
REMARK    3  A    between atoms: O_8  and  C_9
REMARK    4  A    between atoms: C_9  and  C_10
REMARK    5  A    between atoms: C_11  and  C_17
REMARK    6  A    between atoms: C_13  and  O_15
REMARK    7  A    between atoms: O_15  and  C_16
REMARK                            x       y       z     vdW  Elec       q    Type
REMARK                         _______ _______ _______ _____ _____    ______ ____
ROOT
ATOM      1  C   UNL     1      -3.943   1.194  -0.066  0.00  0.00    +0.000 C 
ENDROOT
BRANCH   1   2
ATOM      2  C   UNL     1      -5.421   0.928  -0.075  0.00  0.00    +0.000 A 
ATOM      3  C   UNL     1      -6.153   0.247   0.887  0.00  0.00    +0.000 A 
ATOM      4  S   UNL     1      -7.809   0.211   0.436  0.00  0.00    +0.000 S 
ATOM      5  C   UNL     1      -7.439   1.098  -0.977  0.00  0.00    +0.000 A 
ATOM      6  N   UNL     1      -6.177   1.423  -1.133  0.00  0.00    +0.000 NA
ATOM      7  C   UNL     1      -5.710  -0.403   2.149  0.00  0.00    +0.000 C 
BRANCH   5   8
ATOM      8  O   UNL     1      -8.400   1.430  -1.840  0.00  0.00    +0.000 OA
ATOM      9  C   UNL     1      -7.949   2.149  -2.980  0.00  0.00    +0.000 C 
ENDBRANCH   5   8
ENDBRANCH   1   2
BRANCH   1  10
ATOM     10  O   UNL     1      -3.199  -0.026  -0.014  0.00  0.00    +0.000 OA
BRANCH  10  15
ATOM     11  C   UNL     1       2.477  -0.044   0.096  0.00  0.00    +0.000 C 
ATOM     12  C   UNL     1       0.979   0.006   0.070  0.00  0.00    +0.000 A 
ATOM     13  C   UNL     1       0.298   1.228   0.035  0.00  0.00    +0.000 A 
ATOM     14  C   UNL     1      -1.101   1.265   0.005  0.00  0.00    +0.000 A 
ATOM     15  C   UNL     1      -1.836   0.080   0.011  0.00  0.00    +0.000 A 
ATOM     16  C   UNL     1      -1.158  -1.140   0.045  0.00  0.00    +0.000 A 
ATOM     17  C   UNL     1       0.239  -1.180   0.074  0.00  0.00    +0.000 A 
ENDBRANCH  10  15
ENDBRANCH   1  10
TORSDOF 4
