REMARK  Name = *****
REMARK  4 active torsions:
REMARK  status: ('A' for Active; 'I' for Inactive)
REMARK    1  A    between atoms: C_4  and  N_7
REMARK    2  A    between atoms: N_7  and  C_8
REMARK    3  A    between atoms: C_8  and  O_10
REMARK    4  A    between atoms: O_10  and  C_11
REMARK                            x       y       z     vdW  Elec       q    Type
REMARK                         _______ _______ _______ _____ _____    ______ ____
ROOT
ATOM      1  C   UNL     1      -3.678  -0.877  -0.844  0.00  0.00    +0.000 C 
ATOM      2  S   UNL     1      -3.839  -1.652  -2.308  0.00  0.00    +0.000 S 
ENDROOT
BRANCH   1   3
ATOM      3  N   UNL     1      -2.708  -0.030  -0.371  0.00  0.00    +0.000 N 
ATOM      4  H   UNL     1      -2.875   0.268   0.552  0.00  0.00    +0.000 HD
BRANCH   3   8
ATOM      5  C   UNL     1       0.878   1.699  -1.786  0.00  0.00    +0.000 A 
ATOM      6  C   UNL     1       0.148   0.877  -2.639  0.00  0.00    +0.000 A 
ATOM      7  C   UNL     1      -1.046   0.285  -2.207  0.00  0.00    +0.000 A 
ATOM      8  C   UNL     1      -1.523   0.508  -0.916  0.00  0.00    +0.000 A 
ATOM      9  C   UNL     1      -0.777   1.341  -0.067  0.00  0.00    +0.000 A 
ATOM     10  C   UNL     1       0.415   1.932  -0.496  0.00  0.00    +0.000 A 
ENDBRANCH   3   8
ENDBRANCH   1   3
BRANCH   1  11
ATOM     11  O   UNL     1      -4.630  -1.038   0.179  0.00  0.00    +0.000 OA
BRANCH  11  12
ATOM     12  C   UNL     1      -5.799  -1.829   0.095  0.00  0.00    +0.000 A 
ATOM     13  C   UNL     1      -5.757  -3.143   0.553  0.00  0.00    +0.000 A 
ATOM     14  C   UNL     1      -6.923  -3.905   0.515  0.00  0.00    +0.000 A 
ATOM     15  C   UNL     1      -8.110  -3.344   0.037  0.00  0.00    +0.000 A 
ATOM     16  C   UNL     1      -8.138  -2.017  -0.401  0.00  0.00    +0.000 A 
ATOM     17  C   UNL     1      -6.978  -1.247  -0.366  0.00  0.00    +0.000 A 
ENDBRANCH  11  12
ENDBRANCH   1  11
TORSDOF 4
