REMARK  Name = *****
REMARK  4 active torsions:
REMARK  status: ('A' for Active; 'I' for Inactive)
REMARK    1  A    between atoms: C_4  and  C_7
REMARK    2  A    between atoms: C_7  and  N_8
REMARK    3  A    between atoms: N_8  and  C_9
REMARK    4  A    between atoms: C_9  and  C_10
REMARK                            x       y       z     vdW  Elec       q    Type
REMARK                         _______ _______ _______ _____ _____    ______ ____
ROOT
ATOM      1  N   UNL     1       3.128  -2.124   0.199  0.00  0.00    +0.000 NA
ENDROOT
BRANCH   1   2
ATOM      2  C   UNL     1       2.754  -0.809  -0.333  0.00  0.00    +0.000 C 
BRANCH   2   6
ATOM      3  C   UNL     1      -1.430   0.484  -0.234  0.00  0.00    +0.000 C 
ATOM      4  C   UNL     1      -1.119  -0.966   0.121  0.00  0.00    +0.000 C 
ATOM      5  C   UNL     1       0.275  -1.376  -0.347  0.00  0.00    +0.000 C 
ATOM      6  C   UNL     1       1.361  -0.431   0.195  0.00  0.00    +0.000 C 
ATOM      7  C   UNL     1       1.035   1.026  -0.169  0.00  0.00    +0.000 C 
ATOM      8  C   UNL     1      -0.360   1.431   0.300  0.00  0.00    +0.000 C 
ENDBRANCH   2   6
ENDBRANCH   1   2
BRANCH   1   9
ATOM      9  C   UNL     1       4.273  -2.541  -0.225  0.00  0.00    +0.000 C 
BRANCH   9  10
ATOM     10  C   UNL     1       4.832  -3.844   0.186  0.00  0.00    +0.000 A 
ATOM     11  C   UNL     1       4.126  -4.685   1.050  0.00  0.00    +0.000 A 
ATOM     12  C   UNL     1       4.673  -5.913   1.424  0.00  0.00    +0.000 A 
ATOM     13  C   UNL     1       5.922  -6.298   0.935  0.00  0.00    +0.000 A 
ATOM     14  C   UNL     1       6.627  -5.457   0.072  0.00  0.00    +0.000 A 
ATOM     15  C   UNL     1       6.083  -4.228  -0.305  0.00  0.00    +0.000 A 
ENDBRANCH   9  10
ENDBRANCH   1   9
TORSDOF 4
