REMARK  Name = *****
REMARK  5 active torsions:
REMARK  status: ('A' for Active; 'I' for Inactive)
REMARK    1  A    between atoms: C_1  and  P_2
REMARK    2  A    between atoms: P_2  and  N_4
REMARK    3  A    between atoms: P_2  and  O_12
REMARK    4  A    between atoms: N_4  and  C_5
REMARK    5  A    between atoms: O_12  and  C_13
REMARK                            x       y       z     vdW  Elec       q    Type
REMARK                         _______ _______ _______ _____ _____    ______ ____
ROOT
ATOM      1  C   UNL     1       0.929   0.048   0.052  0.00  0.00    +0.000 C 
ATOM      2  P   UNL     1       2.759   0.048   0.052  0.00  0.00    +0.000 P 
ATOM      3  O   UNL     1       2.688   1.303   0.932  0.00  0.00    +0.000 OA
ENDROOT
BRANCH   2   4
ATOM      4  N   UNL     1       2.591  -1.435   0.838  0.00  0.00    +0.000 N 
ATOM      5  H   UNL     1       2.266  -1.424   1.767  0.00  0.00    +0.000 HD
BRANCH   4   6
ATOM      6  C   UNL     1       2.883  -2.687   0.264  0.00  0.00    +0.000 A 
ATOM      7  C   UNL     1       3.058  -3.795   1.108  0.00  0.00    +0.000 A 
ATOM      8  C   UNL     1       3.309  -5.064   0.582  0.00  0.00    +0.000 A 
ATOM      9  C   UNL     1       3.359  -5.234  -0.794  0.00  0.00    +0.000 A 
ATOM     10  C   UNL     1       3.157  -4.159  -1.650  0.00  0.00    +0.000 A 
ATOM     11  C   UNL     1       2.911  -2.888  -1.122  0.00  0.00    +0.000 A 
ATOM     12  F   UNL     1       3.596  -6.449  -1.303  0.00  0.00    +0.000 F 
ENDBRANCH   4   6
ENDBRANCH   2   4
BRANCH   2  13
ATOM     13  O   UNL     1       4.489   0.048   0.052  0.00  0.00    +0.000 OA
BRANCH  13  14
ATOM     14  C   UNL     1       5.257  -0.368   1.108  0.00  0.00    +0.000 A 
ATOM     15  C   UNL     1       6.271  -1.282   0.818  0.00  0.00    +0.000 A 
ATOM     16  C   UNL     1       7.084  -1.771   1.840  0.00  0.00    +0.000 A 
ATOM     17  C   UNL     1       6.887  -1.328   3.147  0.00  0.00    +0.000 A 
ATOM     18  C   UNL     1       5.892  -0.394   3.434  0.00  0.00    +0.000 A 
ATOM     19  C   UNL     1       5.078   0.094   2.409  0.00  0.00    +0.000 A 
ATOM     20 CL   UNL     1       7.881  -1.936   4.413  0.00  0.00    +0.000 Cl
ENDBRANCH  13  14
ENDBRANCH   2  13
TORSDOF 4
