REMARK  Name = *****
REMARK  6 active torsions:
REMARK  status: ('A' for Active; 'I' for Inactive)
REMARK    1  A    between atoms: C_1  and  C_2
REMARK    2  A    between atoms: C_5  and  S_8
REMARK    3  A    between atoms: S_8  and  C_9
REMARK    4  A    between atoms: C_9  and  C_10
REMARK    5  A    between atoms: C_12  and  O_16
REMARK    6  A    between atoms: O_16  and  C_17
REMARK                            x       y       z     vdW  Elec       q    Type
REMARK                         _______ _______ _______ _____ _____    ______ ____
ROOT
ATOM      1  C   UNL     1      -6.157   2.022  -1.638  0.00  0.00    +0.000 C 
ENDROOT
BRANCH   1   2
ATOM      2  C   UNL     1      -5.882   1.769  -0.134  0.00  0.00    +0.000 C 
ATOM      3  C   UNL     1      -6.420   2.879   0.799  0.00  0.00    +0.000 C 
ATOM      4  C   UNL     1      -7.850   2.657   1.299  0.00  0.00    +0.000 C 
ATOM      5  C   UNL     1      -8.023   1.250   1.908  0.00  0.00    +0.000 C 
ATOM      6  C   UNL     1      -7.207   0.164   1.263  0.00  0.00    +0.000 C 
ATOM      7  C   UNL     1      -6.256   0.390   0.346  0.00  0.00    +0.000 C 
BRANCH   4   8
ATOM      8  O   UNL     1      -8.737   2.918   0.209  0.00  0.00    +0.000 OA
ATOM      9  C   UNL     1     -10.075   3.186   0.599  0.00  0.00    +0.000 C 
ENDBRANCH   4   8
ENDBRANCH   1   2
BRANCH   1  10
ATOM     10  S   UNL     1      -7.680   1.292  -2.350  0.00  0.00    +0.000 S 
BRANCH  10  15
ATOM     11  C   UNL     1      -7.578   3.910  -7.848  0.00  0.00    +0.000 C 
ATOM     12  C   UNL     1      -7.573   3.275  -6.490  0.00  0.00    +0.000 A 
ATOM     13  C   UNL     1      -7.231   1.926  -6.338  0.00  0.00    +0.000 A 
ATOM     14  C   UNL     1      -7.261   1.325  -5.076  0.00  0.00    +0.000 A 
ATOM     15  C   UNL     1      -7.637   2.064  -3.954  0.00  0.00    +0.000 A 
ATOM     16  C   UNL     1      -8.005   3.403  -4.104  0.00  0.00    +0.000 A 
ATOM     17  C   UNL     1      -7.976   4.005  -5.365  0.00  0.00    +0.000 A 
ENDBRANCH  10  15
ENDBRANCH   1  10
TORSDOF 4
