REMARK  Name = *****
REMARK  1 active torsions:
REMARK  status: ('A' for Active; 'I' for Inactive)
REMARK    1  A    between atoms: C_9  and  C_12
REMARK                            x       y       z     vdW  Elec       q    Type
REMARK                         _______ _______ _______ _____ _____    ______ ____
ROOT
ATOM      1  C   UNL     1      -2.853   0.178   0.594  0.00  0.00    +0.000 C 
ATOM      2  C   UNL     1      -2.367  -0.855  -0.418  0.00  0.00    +0.000 C 
ATOM      3  C   UNL     1      -0.988  -1.398  -0.047  0.00  0.00    +0.000 C 
ATOM      4  C   UNL     1       0.053  -0.283   0.140  0.00  0.00    +0.000 C 
ATOM      5  C   UNL     1      -0.460   0.739   1.168  0.00  0.00    +0.000 C 
ATOM      6  C   UNL     1      -1.833   1.294   0.795  0.00  0.00    +0.000 C 
ATOM      7  O   UNL     1       1.256  -0.931   0.594  0.00  0.00    +0.000 OA
ATOM      8  O   UNL     1       2.313   0.086   0.699  0.00  0.00    +0.000 OA
ATOM      9  C   UNL     1       2.524   0.640  -0.612  0.00  0.00    +0.000 C 
ATOM     10  O   UNL     1       1.327   1.312  -1.042  0.00  0.00    +0.000 OA
ATOM     11  O   UNL     1       0.260   0.307  -1.156  0.00  0.00    +0.000 OA
ENDROOT
BRANCH   9  12
ATOM     12  C   UNL     1       3.097  -0.345  -1.623  0.00  0.00    +0.000 A 
ATOM     13  C   UNL     1       2.849  -0.194  -2.998  0.00  0.00    +0.000 A 
ATOM     14  C   UNL     1       3.410  -1.079  -3.920  0.00  0.00    +0.000 A 
ATOM     15  C   UNL     1       4.236  -2.116  -3.493  0.00  0.00    +0.000 A 
ATOM     16  C   UNL     1       4.506  -2.268  -2.135  0.00  0.00    +0.000 A 
ATOM     17  C   UNL     1       3.945  -1.386  -1.208  0.00  0.00    +0.000 A 
ATOM     18 CL   UNL     1       3.085  -0.884  -5.598  0.00  0.00    +0.000 Cl
ENDBRANCH   9  12
TORSDOF 1
