REMARK  Name = *****
REMARK  4 active torsions:
REMARK  status: ('A' for Active; 'I' for Inactive)
REMARK    1  A    between atoms: C_1  and  O_2
REMARK    2  A    between atoms: O_2  and  C_3
REMARK    3  A    between atoms: C_3  and  C_13
REMARK    4  A    between atoms: N_4  and  C_5
REMARK                            x       y       z     vdW  Elec       q    Type
REMARK                         _______ _______ _______ _____ _____    ______ ____
ROOT
ATOM      1  C   UNL     1       2.830  -0.491   1.566  0.00  0.00    +0.000 C 
ATOM      2  N   UNL     1       2.116  -0.899   2.572  0.00  0.00    +0.000 NA
ENDROOT
BRANCH   2   3
ATOM      3  C   UNL     1       0.709  -0.792   2.472  0.00  0.00    +0.000 A 
ATOM      4  C   UNL     1      -0.063  -1.834   1.925  0.00  0.00    +0.000 A 
ATOM      5  C   UNL     1      -1.457  -1.737   1.846  0.00  0.00    +0.000 A 
ATOM      6  C   UNL     1      -2.106  -0.599   2.320  0.00  0.00    +0.000 A 
ATOM      7  C   UNL     1      -1.362   0.440   2.877  0.00  0.00    +0.000 A 
ATOM      8  C   UNL     1       0.032   0.342   2.956  0.00  0.00    +0.000 A 
ATOM      9 CL   UNL     1       0.892   1.665   3.669  0.00  0.00    +0.000 Cl
ATOM     10 CL   UNL     1       0.679  -3.279   1.323  0.00  0.00    +0.000 Cl
ENDBRANCH   2   3
BRANCH   1  11
ATOM     11  C   UNL     1       4.370  -0.579   1.607  0.00  0.00    +0.000 C 
ATOM     12  C   UNL     1       4.932  -1.134   2.925  0.00  0.00    +0.000 C 
ATOM     13  C   UNL     1       4.922  -0.094   4.044  0.00  0.00    +0.000 C 
ATOM     14  C   UNL     1       5.535   1.215   3.567  0.00  0.00    +0.000 C 
ATOM     15  C   UNL     1       4.908   1.652   2.252  0.00  0.00    +0.000 C 
ATOM     16  O   UNL     1       5.046   0.632   1.263  0.00  0.00    +0.000 OA
ENDBRANCH   1  11
BRANCH   1  18
ATOM     17  C   UNL     1       2.975   0.361  -0.716  0.00  0.00    +0.000 C 
ATOM     18  O   UNL     1       2.233   0.022   0.464  0.00  0.00    +0.000 OA
ENDBRANCH   1  18
TORSDOF 3
