REMARK  Name = *****
REMARK  1 active torsions:
REMARK  status: ('A' for Active; 'I' for Inactive)
REMARK    1  A    between atoms: C_8  and  C_11
REMARK                            x       y       z     vdW  Elec       q    Type
REMARK                         _______ _______ _______ _____ _____    ______ ____
ROOT
ATOM      1  C   UNL     1      -2.633  -0.151   0.273  0.00  0.00    +0.000 C 
ATOM      2  C   UNL     1      -2.078  -0.894  -0.943  0.00  0.00    +0.000 C 
ATOM      3  C   UNL     1      -0.761  -0.207  -1.289  0.00  0.00    +0.000 C 
ATOM      4  C   UNL     1      -0.287   0.382   0.039  0.00  0.00    +0.000 C 
ATOM      5  C   UNL     1      -1.593   0.907   0.633  0.00  0.00    +0.000 C 
ATOM      6  O   UNL     1       0.625   1.469  -0.110  0.00  0.00    +0.000 OA
ATOM      7  O   UNL     1       1.861   0.934  -0.703  0.00  0.00    +0.000 OA
ATOM      8  C   UNL     1       2.402  -0.038   0.212  0.00  0.00    +0.000 C 
ATOM      9  O   UNL     1       1.480  -1.136   0.348  0.00  0.00    +0.000 OA
ATOM     10  O   UNL     1       0.234  -0.613   0.933  0.00  0.00    +0.000 OA
ENDROOT
BRANCH   8  11
ATOM     11  C   UNL     1       2.887   0.543   1.535  0.00  0.00    +0.000 A 
ATOM     12  C   UNL     1       2.955  -0.256   2.690  0.00  0.00    +0.000 A 
ATOM     13  C   UNL     1       3.438   0.264   3.894  0.00  0.00    +0.000 A 
ATOM     14  C   UNL     1       3.870   1.587   3.952  0.00  0.00    +0.000 A 
ATOM     15  C   UNL     1       3.827   2.391   2.817  0.00  0.00    +0.000 A 
ATOM     16  C   UNL     1       3.345   1.870   1.614  0.00  0.00    +0.000 A 
ATOM     17 CL   UNL     1       4.465   2.227   5.434  0.00  0.00    +0.000 Cl
ENDBRANCH   8  11
TORSDOF 1
