REMARK  Name = *****
REMARK  3 active torsions:
REMARK  status: ('A' for Active; 'I' for Inactive)
REMARK    1  A    between atoms: C_1  and  C_2
REMARK    2  A    between atoms: N_9  and  C_12
REMARK    3  A    between atoms: C_12  and  C_13
REMARK                            x       y       z     vdW  Elec       q    Type
REMARK                         _______ _______ _______ _____ _____    ______ ____
ROOT
ATOM      1  C   UNL     1       1.191  -0.578  -0.437  0.00  0.00    +0.000 C 
ATOM      2  C   UNL     1       2.651  -0.257  -0.319  0.00  0.00    +0.000 A 
ATOM      3  C   UNL     1       3.101   1.029  -0.011  0.00  0.00    +0.000 A 
ATOM      4  C   UNL     1       4.462   1.304   0.119  0.00  0.00    +0.000 A 
ATOM      5  C   UNL     1       5.414   0.308  -0.055  0.00  0.00    +0.000 A 
ATOM      6  C   UNL     1       4.984  -0.980  -0.370  0.00  0.00    +0.000 A 
ATOM      7  C   UNL     1       3.616  -1.262  -0.497  0.00  0.00    +0.000 A 
ATOM      8  C   UNL     1       4.726   2.721   0.518  0.00  0.00    +0.000 C 
ATOM      9  N   UNL     1       3.448   3.442   0.393  0.00  0.00    +0.000 NA
ATOM     10  S   UNL     1       2.074   2.480   0.246  0.00  0.00    +0.000 S 
ATOM     11  O   UNL     1       1.381   2.252   1.556  0.00  0.00    +0.000 OA
ENDROOT
BRANCH   9  12
ATOM     12  C   UNL     1       3.384   4.601   1.289  0.00  0.00    +0.000 C 
BRANCH  12  13
ATOM     13  C   UNL     1       4.468   5.627   1.030  0.00  0.00    +0.000 A 
ATOM     14  C   UNL     1       4.523   6.309  -0.195  0.00  0.00    +0.000 A 
ATOM     15  C   UNL     1       5.523   7.252  -0.437  0.00  0.00    +0.000 A 
ATOM     16  C   UNL     1       6.476   7.524   0.542  0.00  0.00    +0.000 A 
ATOM     17  C   UNL     1       6.430   6.855   1.764  0.00  0.00    +0.000 A 
ATOM     18  C   UNL     1       5.431   5.912   2.008  0.00  0.00    +0.000 A 
ENDBRANCH  12  13
ENDBRANCH   9  12
TORSDOF 2
