REMARK  Name = *****
REMARK  2 active torsions:
REMARK  status: ('A' for Active; 'I' for Inactive)
REMARK    1  A    between atoms: C_3  and  C_8
REMARK    2  A    between atoms: C_9  and  C_10
REMARK                            x       y       z     vdW  Elec       q    Type
REMARK                         _______ _______ _______ _____ _____    ______ ____
ROOT
ATOM      1  C   UNL     1      -1.927   2.494   0.029  0.00  0.00    +0.000 C 
ATOM      2  C   UNL     1      -1.344   3.704   0.049  0.00  0.00    +0.000 C 
ENDROOT
BRANCH   1   5
ATOM      3  C   UNL     1      -1.062  -1.086  -0.771  0.00  0.00    +0.000 A 
ATOM      4  C   UNL     1      -1.721   0.148  -0.729  0.00  0.00    +0.000 A 
ATOM      5  C   UNL     1      -1.182   1.227  -0.011  0.00  0.00    +0.000 A 
ATOM      6  C   UNL     1       0.016   1.040   0.687  0.00  0.00    +0.000 A 
ATOM      7  C   UNL     1       0.664  -0.191   0.639  0.00  0.00    +0.000 A 
ATOM      8  C   UNL     1       0.138  -1.254  -0.086  0.00  0.00    +0.000 A 
ATOM      9  F   UNL     1       1.813  -0.356   1.307  0.00  0.00    +0.000 F 
ENDBRANCH   1   5
BRANCH   2  10
ATOM     10  C   UNL     1      -2.089   4.972   0.071  0.00  0.00    +0.000 A 
ATOM     11  C   UNL     1      -3.275   5.131   0.797  0.00  0.00    +0.000 A 
ATOM     12  C   UNL     1      -3.924   6.363   0.808  0.00  0.00    +0.000 A 
ATOM     13  C   UNL     1      -3.410   7.454   0.117  0.00  0.00    +0.000 A 
ATOM     14  C   UNL     1      -2.221   7.313  -0.594  0.00  0.00    +0.000 A 
ATOM     15  C   UNL     1      -1.562   6.079  -0.612  0.00  0.00    +0.000 A 
ATOM     16  F   UNL     1      -5.061   6.501   1.502  0.00  0.00    +0.000 F 
ENDBRANCH   2  10
TORSDOF 2
