REMARK  Name = *****
REMARK  4 active torsions:
REMARK  status: ('A' for Active; 'I' for Inactive)
REMARK    1  A    between atoms: C_4  and  C_7
REMARK    2  A    between atoms: C_4  and  C_15
REMARK    3  A    between atoms: C_7  and  C_8
REMARK    4  A    between atoms: C_8  and  C_9
REMARK                            x       y       z     vdW  Elec       q    Type
REMARK                         _______ _______ _______ _____ _____    ______ ____
ROOT
ATOM      1  C   UNL     1      -1.434   0.337  -0.465  0.00  0.00    +0.000 C 
ATOM      2  C   UNL     1      -1.039  -1.084  -0.081  0.00  0.00    +0.000 C 
ATOM      3  C   UNL     1       0.409  -1.379  -0.466  0.00  0.00    +0.000 C 
ATOM      4  C   UNL     1       1.411  -0.382   0.157  0.00  0.00    +0.000 C 
ATOM      5  C   UNL     1       0.980   1.060  -0.213  0.00  0.00    +0.000 C 
ATOM      6  C   UNL     1      -0.479   1.370   0.122  0.00  0.00    +0.000 C 
ENDROOT
BRANCH   4   7
ATOM      7  C   UNL     1       2.798  -0.589  -0.450  0.00  0.00    +0.000 C 
ATOM      8  O   UNL     1       3.147  -1.597  -1.057  0.00  0.00    +0.000 OA
ENDBRANCH   4   7
BRANCH   4   9
ATOM      9  C   UNL     1       1.552  -0.522   1.697  0.00  0.00    +0.000 C 
BRANCH   9  10
ATOM     10  C   UNL     1       1.921  -1.933   2.185  0.00  0.00    +0.000 C 
BRANCH  10  11
ATOM     11  C   UNL     1       2.144  -1.993   3.679  0.00  0.00    +0.000 A 
ATOM     12  C   UNL     1       1.084  -1.772   4.570  0.00  0.00    +0.000 A 
ATOM     13  C   UNL     1       1.286  -1.859   5.948  0.00  0.00    +0.000 A 
ATOM     14  C   UNL     1       2.547  -2.173   6.451  0.00  0.00    +0.000 A 
ATOM     15  C   UNL     1       3.607  -2.397   5.576  0.00  0.00    +0.000 A 
ATOM     16  C   UNL     1       3.408  -2.307   4.196  0.00  0.00    +0.000 A 
ENDBRANCH  10  11
ENDBRANCH   9  10
ENDBRANCH   4   9
TORSDOF 4
