REMARK  Name = *****
REMARK  3 active torsions:
REMARK  status: ('A' for Active; 'I' for Inactive)
REMARK    1  A    between atoms: P_5  and  C_6
REMARK    2  A    between atoms: C_6  and  C_7
REMARK    3  A    between atoms: C_7  and  C_8
REMARK                            x       y       z     vdW  Elec       q    Type
REMARK                         _______ _______ _______ _____ _____    ______ ____
ROOT
ATOM      1  C   UNL     1      -3.081   1.037  -2.149  0.00  0.00    +0.000 C 
ENDROOT
BRANCH   1   2
ATOM      2  C   UNL     1      -3.221   1.120  -3.652  0.00  0.00    +0.000 A 
ATOM      3  C   UNL     1      -3.697   0.023  -4.385  0.00  0.00    +0.000 A 
ATOM      4  C   UNL     1      -3.822   0.101  -5.774  0.00  0.00    +0.000 A 
ATOM      5  C   UNL     1      -3.475   1.276  -6.436  0.00  0.00    +0.000 A 
ATOM      6  C   UNL     1      -3.003   2.374  -5.721  0.00  0.00    +0.000 A 
ATOM      7  C   UNL     1      -2.874   2.296  -4.332  0.00  0.00    +0.000 A 
ATOM      8 CL   UNL     1      -3.632   1.373  -8.146  0.00  0.00    +0.000 Cl
ENDBRANCH   1   2
BRANCH   1   9
ATOM      9  C   UNL     1      -1.933   0.115  -1.727  0.00  0.00    +0.000 C 
BRANCH   9  14
ATOM     10  C   UNL     1      -3.059  -0.920   0.676  0.00  0.00    +0.000 C 
ATOM     11  C   UNL     1      -2.433  -2.259   0.546  0.00  0.00    +0.000 C 
ATOM     12  C   UNL     1      -1.116  -2.347   0.335  0.00  0.00    +0.000 C 
ATOM     13  C   UNL     1      -0.312  -1.104   0.237  0.00  0.00    +0.000 C 
ATOM     14  P   UNL     1      -1.666   0.119   0.112  0.00  0.00    +0.000 P 
ENDBRANCH   9  14
ENDBRANCH   1   9
TORSDOF 3
