REMARK  Name = *****
REMARK  2 active torsions:
REMARK  status: ('A' for Active; 'I' for Inactive)
REMARK    1  A    between atoms: C_7  and  C_9
REMARK    2  A    between atoms: C_10  and  C_11
REMARK                            x       y       z     vdW  Elec       q    Type
REMARK                         _______ _______ _______ _____ _____    ______ ____
ROOT
ATOM      1  C   UNL     1       1.928  -0.590   0.728  0.00  0.00    +0.000 C 
ATOM      2  C   UNL     1       0.643  -1.388   0.925  0.00  0.00    +0.000 C 
ATOM      3  C   UNL     1      -0.145  -1.567  -0.365  0.00  0.00    +0.000 C 
ATOM      4  C   UNL     1      -1.046  -0.406  -0.712  0.00  0.00    +0.000 C 
ATOM      5  O   UNL     1      -2.108  -0.607  -1.309  0.00  0.00    +0.000 OA
ATOM      6  C   UNL     1      -0.655   1.002  -0.321  0.00  0.00    +0.000 C 
ATOM      7  C   UNL     1       0.807   1.393  -0.583  0.00  0.00    +0.000 C 
ATOM      8  C   UNL     1       1.735   0.917   0.553  0.00  0.00    +0.000 C 
ENDROOT
BRANCH   7   9
ATOM      9  C   UNL     1       1.229   1.103  -2.010  0.00  0.00    +0.000 C 
ATOM     10  C   UNL     1       2.434   0.682  -2.428  0.00  0.00    +0.000 C 
BRANCH  10  11
ATOM     11  C   UNL     1       2.770   0.417  -3.836  0.00  0.00    +0.000 A 
ATOM     12  C   UNL     1       2.306   1.222  -4.883  0.00  0.00    +0.000 A 
ATOM     13  C   UNL     1       2.674   0.952  -6.205  0.00  0.00    +0.000 A 
ATOM     14  C   UNL     1       3.518  -0.118  -6.490  0.00  0.00    +0.000 A 
ATOM     15  C   UNL     1       4.000  -0.917  -5.455  0.00  0.00    +0.000 A 
ATOM     16  C   UNL     1       3.632  -0.647  -4.134  0.00  0.00    +0.000 A 
ENDBRANCH  10  11
ENDBRANCH   7   9
TORSDOF 2
