REMARK  Name = *****
REMARK  3 active torsions:
REMARK  status: ('A' for Active; 'I' for Inactive)
REMARK    1  A    between atoms: C_1  and  C_2
REMARK    2  A    between atoms: C_4  and  N_8
REMARK    3  A    between atoms: C_9  and  C_11
REMARK                            x       y       z     vdW  Elec       q    Type
REMARK                         _______ _______ _______ _____ _____    ______ ____
ROOT
ATOM      1  N   UNL     1      -1.641   2.578   0.135  0.00  0.00    +0.000 N 
ATOM      2  C   UNL     1      -1.089   3.817  -0.137  0.00  0.00    +0.000 C 
ATOM      3  O   UNL     1       0.063   4.048  -0.486  0.00  0.00    +0.000 OA
ATOM      4  H   UNL     1      -2.594   2.569   0.382  0.00  0.00    +0.000 HD
ENDROOT
BRANCH   1   8
ATOM      5  C   UNL     1       2.382  -0.315  -0.590  0.00  0.00    +0.000 C 
ATOM      6  C   UNL     1       0.934  -0.132  -0.242  0.00  0.00    +0.000 A 
ATOM      7  C   UNL     1       0.360   1.149  -0.212  0.00  0.00    +0.000 A 
ATOM      8  C   UNL     1      -0.991   1.324   0.100  0.00  0.00    +0.000 A 
ATOM      9  C   UNL     1      -1.767   0.195   0.395  0.00  0.00    +0.000 A 
ATOM     10  C   UNL     1      -1.203  -1.082   0.377  0.00  0.00    +0.000 A 
ATOM     11  C   UNL     1       0.142  -1.246   0.058  0.00  0.00    +0.000 A 
ENDBRANCH   1   8
BRANCH   2  12
ATOM     12  C   UNL     1      -2.028   4.973  -0.024  0.00  0.00    +0.000 A 
ATOM     13  C   UNL     1      -3.085   4.996   0.899  0.00  0.00    +0.000 A 
ATOM     14  C   UNL     1      -3.933   6.106   0.960  0.00  0.00    +0.000 A 
ATOM     15  C   UNL     1      -3.716   7.188   0.113  0.00  0.00    +0.000 A 
ATOM     16  C   UNL     1      -2.662   7.189  -0.792  0.00  0.00    +0.000 A 
ATOM     17  C   UNL     1      -1.814   6.082  -0.859  0.00  0.00    +0.000 A 
ATOM     18  F   UNL     1      -4.531   8.249   0.179  0.00  0.00    +0.000 F 
ENDBRANCH   2  12
TORSDOF 2
