REMARK  Name = *****
REMARK  2 active torsions:
REMARK  status: ('A' for Active; 'I' for Inactive)
REMARK    1  A    between atoms: C_7  and  S_9
REMARK    2  A    between atoms: S_9  and  C_10
REMARK                            x       y       z     vdW  Elec       q    Type
REMARK                         _______ _______ _______ _____ _____    ______ ____
ROOT
ATOM      1  C   UNL     1      -1.456  -0.129  -0.557  0.00  0.00    +0.000 C 
ATOM      2  C   UNL     1      -0.930   1.048   0.255  0.00  0.00    +0.000 C 
ATOM      3  C   UNL     1       0.592   1.130   0.192  0.00  0.00    +0.000 C 
ATOM      4  N   UNL     1       1.228  -0.135   0.554  0.00  0.00    +0.000 N 
ATOM      5  C   UNL     1       0.733  -1.317  -0.160  0.00  0.00    +0.000 C 
ATOM      6  C   UNL     1      -0.789  -1.422  -0.104  0.00  0.00    +0.000 C 
ATOM      7  C   UNL     1       2.460  -0.052   1.207  0.00  0.00    +0.000 C 
ATOM      8  O   UNL     1       2.962   1.005   1.577  0.00  0.00    +0.000 OA
ENDROOT
BRANCH   7   9
ATOM      9  S   UNL     1       3.317  -1.556   1.527  0.00  0.00    +0.000 S 
BRANCH   9  10
ATOM     10  C   UNL     1       2.601  -2.000   3.099  0.00  0.00    +0.000 A 
ATOM     11  C   UNL     1       2.053  -3.278   3.263  0.00  0.00    +0.000 A 
ATOM     12  C   UNL     1       1.489  -3.654   4.485  0.00  0.00    +0.000 A 
ATOM     13  C   UNL     1       1.479  -2.755   5.549  0.00  0.00    +0.000 A 
ATOM     14  C   UNL     1       2.034  -1.486   5.403  0.00  0.00    +0.000 A 
ATOM     15  C   UNL     1       2.599  -1.111   4.181  0.00  0.00    +0.000 A 
ATOM     16 CL   UNL     1       0.782  -3.218   7.052  0.00  0.00    +0.000 Cl
ENDBRANCH   9  10
ENDBRANCH   7   9
TORSDOF 2
