REMARK  Name = *****
REMARK  2 active torsions:
REMARK  status: ('A' for Active; 'I' for Inactive)
REMARK    1  A    between atoms: C_4  and  C_6
REMARK    2  A    between atoms: N_7  and  C_8
REMARK                            x       y       z     vdW  Elec       q    Type
REMARK                         _______ _______ _______ _____ _____    ______ ____
ROOT
ATOM      1  C   UNL     1       0.471  -4.953  -0.282  0.00  0.00    +0.000 A 
ATOM      2  C   UNL     1       1.033  -5.727   0.751  0.00  0.00    +0.000 A 
ATOM      3  C   UNL     1       0.736  -7.088   0.867  0.00  0.00    +0.000 A 
ATOM      4  C   UNL     1      -0.118  -7.685  -0.057  0.00  0.00    +0.000 A 
ATOM      5  C   UNL     1      -0.672  -6.939  -1.095  0.00  0.00    +0.000 A 
ATOM      6  C   UNL     1      -0.372  -5.580  -1.208  0.00  0.00    +0.000 A 
ATOM      7 CL   UNL     1      -0.488  -9.359   0.081  0.00  0.00    +0.000 Cl
ATOM      8 CL   UNL     1       2.105  -5.029   1.915  0.00  0.00    +0.000 Cl
ENDROOT
BRANCH   1  10
ATOM      9  C   UNL     1       0.143  -2.763   0.330  0.00  0.00    +0.000 C 
ATOM     10  N   UNL     1       0.753  -3.587  -0.465  0.00  0.00    +0.000 NA
BRANCH   9  14
ATOM     11  C   UNL     1       1.154   0.753  -0.416  0.00  0.00    +0.000 A 
ATOM     12  C   UNL     1       0.271   1.091   0.585  0.00  0.00    +0.000 A 
ATOM     13  S   UNL     1      -0.481  -0.285   1.268  0.00  0.00    +0.000 S 
ATOM     14  C   UNL     1       0.368  -1.343   0.228  0.00  0.00    +0.000 A 
ATOM     15  C   UNL     1       1.210  -0.656  -0.622  0.00  0.00    +0.000 A 
ENDBRANCH   9  14
ENDBRANCH   1  10
TORSDOF 2
