REMARK  Name = *****
REMARK  5 active torsions:
REMARK  status: ('A' for Active; 'I' for Inactive)
REMARK    1  A    between atoms: C_1  and  O_2
REMARK    2  A    between atoms: O_2  and  C_3
REMARK    3  A    between atoms: C_7  and  C_9
REMARK    4  A    between atoms: C_9  and  C_10
REMARK    5  A    between atoms: C_10  and  C_11
REMARK                            x       y       z     vdW  Elec       q    Type
REMARK                         _______ _______ _______ _____ _____    ______ ____
ROOT
ATOM      1  C   UNL     1       6.458   1.206  -2.628  0.00  0.00    +0.000 C 
ATOM      2 CL   UNL     1       7.150   2.844  -2.857  0.00  0.00    +0.000 Cl
ENDROOT
BRANCH   1   7
ATOM      3  C   UNL     1       2.738   2.050  -2.148  0.00  0.00    +0.000 A 
ATOM      4  C   UNL     1       2.503   1.506  -0.886  0.00  0.00    +0.000 A 
ATOM      5  C   UNL     1       3.539   0.879  -0.191  0.00  0.00    +0.000 A 
ATOM      6  C   UNL     1       4.813   0.789  -0.753  0.00  0.00    +0.000 A 
ATOM      7  C   UNL     1       5.071   1.325  -2.023  0.00  0.00    +0.000 A 
ATOM      8  C   UNL     1       4.016   1.953  -2.709  0.00  0.00    +0.000 A 
BRANCH   3  10
ATOM      9  C   UNL     1       0.535   2.915  -2.363  0.00  0.00    +0.000 C 
ATOM     10  O   UNL     1       1.819   2.690  -2.932  0.00  0.00    +0.000 OA
ENDBRANCH   3  10
ENDBRANCH   1   7
BRANCH   1  11
ATOM     11  C   UNL     1       6.445   0.413  -3.947  0.00  0.00    +0.000 C 
BRANCH  11  12
ATOM     12  C   UNL     1       7.841   0.074  -4.495  0.00  0.00    +0.000 C 
ATOM     13  S   UNL     1       8.850  -0.989  -3.406  0.00  0.00    +0.000 S 
ATOM     14  C   UNL     1       7.912  -2.540  -3.485  0.00  0.00    +0.000 C 
ATOM     15  C   UNL     1       7.801  -3.100  -4.896  0.00  0.00    +0.000 C 
ATOM     16  C   UNL     1       6.985  -2.234  -5.844  0.00  0.00    +0.000 C 
ATOM     17  S   UNL     1       7.759  -0.628  -6.182  0.00  0.00    +0.000 S 
ENDBRANCH  11  12
ENDBRANCH   1  11
TORSDOF 4
