REMARK  Name = *****
REMARK  3 active torsions:
REMARK  status: ('A' for Active; 'I' for Inactive)
REMARK    1  A    between atoms: C_3  and  S_8
REMARK    2  A    between atoms: S_8  and  S_9
REMARK    3  A    between atoms: S_9  and  C_12
REMARK                            x       y       z     vdW  Elec       q    Type
REMARK                         _______ _______ _______ _____ _____    ______ ____
ROOT
ATOM      1  S   UNL     1      -4.377   1.970   0.283  0.00  0.00    +0.000 S 
ATOM      2  O   UNL     1      -4.025   2.186   1.673  0.00  0.00    +0.000 OA
ATOM      3  O   UNL     1      -3.920   2.867  -0.760  0.00  0.00    +0.000 OA
ENDROOT
BRANCH   1   4
ATOM      4  C   UNL     1      -6.154   1.903   0.186  0.00  0.00    +0.000 A 
ATOM      5  C   UNL     1      -6.900   1.624   1.336  0.00  0.00    +0.000 A 
ATOM      6  C   UNL     1      -8.294   1.593   1.259  0.00  0.00    +0.000 A 
ATOM      7  C   UNL     1      -8.929   1.848   0.042  0.00  0.00    +0.000 A 
ATOM      8  C   UNL     1      -8.183   2.140  -1.101  0.00  0.00    +0.000 A 
ATOM      9  C   UNL     1      -6.789   2.174  -1.031  0.00  0.00    +0.000 A 
ATOM     10 CL   UNL     1     -10.647   1.808  -0.048  0.00  0.00    +0.000 Cl
ENDBRANCH   1   4
BRANCH   1  11
ATOM     11  S   UNL     1      -3.815   0.022  -0.239  0.00  0.00    +0.000 S 
BRANCH  11  14
ATOM     12  C   UNL     1      -0.119  -0.673   1.290  0.00  0.00    +0.000 A 
ATOM     13  C   UNL     1      -1.498  -0.689   1.071  0.00  0.00    +0.000 A 
ATOM     14  C   UNL     1      -2.057   0.073   0.037  0.00  0.00    +0.000 A 
ATOM     15  C   UNL     1      -1.220   0.837  -0.786  0.00  0.00    +0.000 A 
ATOM     16  C   UNL     1       0.159   0.853  -0.565  0.00  0.00    +0.000 A 
ATOM     17  C   UNL     1       0.697   0.099   0.471  0.00  0.00    +0.000 A 
ATOM     18  F   UNL     1       2.019   0.112   0.680  0.00  0.00    +0.000 F 
ENDBRANCH  11  14
ENDBRANCH   1  11
TORSDOF 3
