REMARK  Name = *****
REMARK  4 active torsions:
REMARK  status: ('A' for Active; 'I' for Inactive)
REMARK    1  A    between atoms: C_4  and  N_7
REMARK    2  A    between atoms: N_7  and  N_9
REMARK    3  A    between atoms: N_9  and  C_10
REMARK    4  A    between atoms: C_13  and  C_16
REMARK                            x       y       z     vdW  Elec       q    Type
REMARK                         _______ _______ _______ _____ _____    ______ ____
ROOT
ATOM      1  N   UNL     1      -3.737  -0.289  -0.148  0.00  0.00    +0.000 N 
ATOM      2  H   UNL     1      -3.466  -1.149   0.247  0.00  0.00    +0.000 HD
ENDROOT
BRANCH   1   3
ATOM      3  C   UNL     1      -5.103  -0.188  -0.452  0.00  0.00    +0.000 A 
ATOM      4  C   UNL     1      -5.709   0.980  -0.921  0.00  0.00    +0.000 A 
ATOM      5  C   UNL     1      -7.083   1.029  -1.190  0.00  0.00    +0.000 A 
ATOM      6  C   UNL     1      -7.891  -0.097  -0.993  0.00  0.00    +0.000 A 
ATOM      7  C   UNL     1      -7.297  -1.266  -0.504  0.00  0.00    +0.000 A 
ATOM      8  C   UNL     1      -5.924  -1.307  -0.239  0.00  0.00    +0.000 A 
BRANCH   6   9
ATOM      9  C   UNL     1      -9.375  -0.037  -1.260  0.00  0.00    +0.000 C 
ATOM     10  F   UNL     1      -9.707   0.828  -2.259  0.00  0.00    +0.000 F 
ATOM     11  F   UNL     1      -9.901  -1.241  -1.622  0.00  0.00    +0.000 F 
ATOM     12  F   UNL     1     -10.081   0.364  -0.167  0.00  0.00    +0.000 F 
ENDBRANCH   6   9
ENDBRANCH   1   3
BRANCH   1  13
ATOM     13  N   UNL     1      -2.679   0.646  -0.317  0.00  0.00    +0.000 N 
ATOM     14  O   UNL     1      -2.861   1.742  -0.809  0.00  0.00    +0.000 OA
BRANCH  13  18
ATOM     15  C   UNL     1       1.272  -0.440   0.744  0.00  0.00    +0.000 A 
ATOM     16  C   UNL     1       0.207  -0.817   1.564  0.00  0.00    +0.000 A 
ATOM     17  C   UNL     1      -1.099  -0.460   1.225  0.00  0.00    +0.000 A 
ATOM     18  C   UNL     1      -1.329   0.275   0.056  0.00  0.00    +0.000 A 
ATOM     19  C   UNL     1      -0.262   0.666  -0.760  0.00  0.00    +0.000 A 
ATOM     20  C   UNL     1       1.039   0.303  -0.414  0.00  0.00    +0.000 A 
ENDBRANCH  13  18
ENDBRANCH   1  13
TORSDOF 4
