REMARK  Name = *****
REMARK  3 active torsions:
REMARK  status: ('A' for Active; 'I' for Inactive)
REMARK    1  A    between atoms: C_4  and  C_8
REMARK    2  A    between atoms: C_8  and  S_9
REMARK    3  A    between atoms: S_9  and  C_10
REMARK                            x       y       z     vdW  Elec       q    Type
REMARK                         _______ _______ _______ _____ _____    ______ ____
ROOT
ATOM      1  C   UNL     1       0.147   2.461   0.039  0.00  0.00    +0.000 C 
ENDROOT
BRANCH   1   5
ATOM      2  C   UNL     1       0.094  -1.855   0.170  0.00  0.00    +0.000 A 
ATOM      3  C   UNL     1       0.049  -1.116   1.351  0.00  0.00    +0.000 A 
ATOM      4  C   UNL     1       0.060   0.277   1.299  0.00  0.00    +0.000 A 
ATOM      5  C   UNL     1       0.113   0.962   0.084  0.00  0.00    +0.000 A 
ATOM      6  C   UNL     1       0.159   0.204  -1.087  0.00  0.00    +0.000 A 
ATOM      7  C   UNL     1       0.148  -1.190  -1.054  0.00  0.00    +0.000 A 
ATOM      8  F   UNL     1       0.204   0.817  -2.278  0.00  0.00    +0.000 F 
ATOM      9  F   UNL     1       0.010   0.964   2.450  0.00  0.00    +0.000 F 
ENDBRANCH   1   5
BRANCH   1  10
ATOM     10  S   UNL     1       1.861   3.086   0.096  0.00  0.00    +0.000 S 
BRANCH  10  11
ATOM     11  C   UNL     1       1.670   4.862   0.016  0.00  0.00    +0.000 A 
ATOM     12  C   UNL     1       0.447   5.541  -0.029  0.00  0.00    +0.000 A 
ATOM     13  C   UNL     1       0.407   6.940  -0.088  0.00  0.00    +0.000 A 
ATOM     14  C   UNL     1       1.592   7.670  -0.102  0.00  0.00    +0.000 A 
ATOM     15  C   UNL     1       2.817   7.014  -0.057  0.00  0.00    +0.000 A 
ATOM     16  C   UNL     1       2.853   5.618   0.001  0.00  0.00    +0.000 A 
ATOM     17 CL   UNL     1       1.540   9.387  -0.173  0.00  0.00    +0.000 Cl
ENDBRANCH  10  11
ENDBRANCH   1  10
TORSDOF 3
