REMARK  Name = *****
REMARK  5 active torsions:
REMARK  status: ('A' for Active; 'I' for Inactive)
REMARK    1  A    between atoms: C_1  and  C_2
REMARK    2  A    between atoms: C_3  and  C_16
REMARK    3  A    between atoms: C_4  and  C_8
REMARK    4  A    between atoms: C_8  and  C_9
REMARK    5  A    between atoms: C_9  and  C_10
REMARK                            x       y       z     vdW  Elec       q    Type
REMARK                         _______ _______ _______ _____ _____    ______ ____
ROOT
ATOM      1  C   UNL     1       1.888   1.570   0.037  0.00  0.00    +0.000 C 
ATOM      2  C   UNL     1       0.624   0.754  -0.033  0.00  0.00    +0.000 A 
ATOM      3  C   UNL     1       0.642  -0.662  -0.028  0.00  0.00    +0.000 A 
ATOM      4  C   UNL     1      -0.586  -1.367  -0.057  0.00  0.00    +0.000 A 
ATOM      5  C   UNL     1      -1.794  -0.654  -0.146  0.00  0.00    +0.000 A 
ATOM      6  C   UNL     1      -1.801   0.736  -0.183  0.00  0.00    +0.000 A 
ATOM      7  C   UNL     1      -0.601   1.434  -0.124  0.00  0.00    +0.000 A 
ATOM      8  C   UNL     1       1.949  -1.409   0.077  0.00  0.00    +0.000 C 
ENDROOT
BRANCH   4   9
ATOM      9  C   UNL     1      -0.664  -2.881  -0.021  0.00  0.00    +0.000 C 
BRANCH   9  10
ATOM     10  C   UNL     1      -0.679  -3.481  -1.430  0.00  0.00    +0.000 C 
BRANCH  10  11
ATOM     11  C   UNL     1      -0.717  -4.989  -1.390  0.00  0.00    +0.000 A 
ATOM     12  C   UNL     1      -1.941  -5.669  -1.345  0.00  0.00    +0.000 A 
ATOM     13  C   UNL     1      -1.973  -7.063  -1.288  0.00  0.00    +0.000 A 
ATOM     14  C   UNL     1      -0.784  -7.789  -1.271  0.00  0.00    +0.000 A 
ATOM     15  C   UNL     1       0.439  -7.122  -1.309  0.00  0.00    +0.000 A 
ATOM     16  C   UNL     1       0.474  -5.728  -1.367  0.00  0.00    +0.000 A 
ENDBRANCH  10  11
ENDBRANCH   9  10
ENDBRANCH   4   9
TORSDOF 3
