REMARK  Name = *****
REMARK  2 active torsions:
REMARK  status: ('A' for Active; 'I' for Inactive)
REMARK    1  A    between atoms: C_6  and  N_7
REMARK    2  A    between atoms: C_8  and  C_9
REMARK                            x       y       z     vdW  Elec       q    Type
REMARK                         _______ _______ _______ _____ _____    ______ ____
ROOT
ATOM      1  N   UNL     1      -3.406  -0.043  -0.037  0.00  0.00    +0.000 NA
ATOM      2  C   UNL     1      -4.056   1.073   0.064  0.00  0.00    +0.000 C 
ENDROOT
BRANCH   2   3
ATOM      3  C   UNL     1      -5.531   1.115   0.043  0.00  0.00    +0.000 A 
ATOM      4  C   UNL     1      -6.173   2.351   0.143  0.00  0.00    +0.000 A 
ATOM      5  C   UNL     1      -7.571   2.410   0.125  0.00  0.00    +0.000 A 
ATOM      6  C   UNL     1      -8.323   1.234   0.008  0.00  0.00    +0.000 A 
ATOM      7  C   UNL     1      -7.673   0.000  -0.092  0.00  0.00    +0.000 A 
ATOM      8  C   UNL     1      -6.278  -0.061  -0.075  0.00  0.00    +0.000 A 
ATOM      9 CL   UNL     1     -10.050   1.238  -0.020  0.00  0.00    +0.000 Cl
ATOM     10 CL   UNL     1      -8.306   3.970   0.252  0.00  0.00    +0.000 Cl
ENDBRANCH   2   3
BRANCH   1  16
ATOM     11  C   UNL     1      -1.287   0.283  -1.181  0.00  0.00    +0.000 A 
ATOM     12  C   UNL     1       0.106   0.364  -1.147  0.00  0.00    +0.000 A 
ATOM     13  C   UNL     1       0.771   0.206   0.063  0.00  0.00    +0.000 A 
ATOM     14  C   UNL     1       0.070  -0.037   1.239  0.00  0.00    +0.000 A 
ATOM     15  C   UNL     1      -1.324  -0.117   1.203  0.00  0.00    +0.000 A 
ATOM     16  C   UNL     1      -2.010   0.055  -0.004  0.00  0.00    +0.000 A 
ATOM     17  F   UNL     1       2.107   0.282   0.097  0.00  0.00    +0.000 F 
ENDBRANCH   1  16
TORSDOF 2
