REMARK  Name = *****
REMARK  3 active torsions:
REMARK  status: ('A' for Active; 'I' for Inactive)
REMARK    1  A    between atoms: C_4  and  C_8
REMARK    2  A    between atoms: C_8  and  O_9
REMARK    3  A    between atoms: O_9  and  C_10
REMARK                            x       y       z     vdW  Elec       q    Type
REMARK                         _______ _______ _______ _____ _____    ______ ____
ROOT
ATOM      1  C   UNL     1       2.494  -1.389   0.187  0.00  0.00    +0.000 C 
ENDROOT
BRANCH   1   5
ATOM      2  C   UNL     1      -0.080   0.063   1.374  0.00  0.00    +0.000 C 
ATOM      3  C   UNL     1      -0.035   1.156   0.304  0.00  0.00    +0.000 C 
ATOM      4  C   UNL     1       1.274   0.795  -0.433  0.00  0.00    +0.000 C 
ATOM      5  C   UNL     1       1.245  -0.769  -0.444  0.00  0.00    +0.000 C 
ATOM      6  C   UNL     1      -0.048  -1.079   0.352  0.00  0.00    +0.000 C 
ATOM      7  C   UNL     1      -1.214  -0.642  -0.509  0.00  0.00    +0.000 C 
ATOM      8  C   UNL     1      -1.199   0.699  -0.545  0.00  0.00    +0.000 C 
ENDBRANCH   1   5
BRANCH   1   9
ATOM      9  O   UNL     1       3.619  -1.052  -0.626  0.00  0.00    +0.000 OA
BRANCH   9  10
ATOM     10  C   UNL     1       4.841  -1.512  -0.221  0.00  0.00    +0.000 A 
ATOM     11  C   UNL     1       5.090  -2.320   0.890  0.00  0.00    +0.000 A 
ATOM     12  C   UNL     1       6.397  -2.720   1.188  0.00  0.00    +0.000 A 
ATOM     13  C   UNL     1       7.458  -2.317   0.379  0.00  0.00    +0.000 A 
ATOM     14  C   UNL     1       7.215  -1.513  -0.731  0.00  0.00    +0.000 A 
ATOM     15  C   UNL     1       5.910  -1.114  -1.028  0.00  0.00    +0.000 A 
ENDBRANCH   9  10
ENDBRANCH   1   9
TORSDOF 3
