REMARK  Name = *****
REMARK  4 active torsions:
REMARK  status: ('A' for Active; 'I' for Inactive)
REMARK    1  A    between atoms: C_2  and  C_3
REMARK    2  A    between atoms: C_6  and  C_9
REMARK    3  A    between atoms: C_9  and  C_10
REMARK    4  A    between atoms: C_10  and  C_11
REMARK                            x       y       z     vdW  Elec       q    Type
REMARK                         _______ _______ _______ _____ _____    ______ ____
ROOT
ATOM      1  C   UNL     1      -0.549   0.041  -0.062  0.00  0.00    +0.000 A 
ATOM      2  C   UNL     1       0.022  -0.553   1.064  0.00  0.00    +0.000 A 
ATOM      3  C   UNL     1       1.410  -0.561   1.225  0.00  0.00    +0.000 A 
ATOM      4  C   UNL     1       2.240   0.028   0.261  0.00  0.00    +0.000 A 
ATOM      5  C   UNL     1       1.658   0.618  -0.869  0.00  0.00    +0.000 A 
ATOM      6  C   UNL     1       0.270   0.627  -1.028  0.00  0.00    +0.000 A 
ENDROOT
BRANCH   1   8
ATOM      7  C   UNL     1      -3.163   0.056  -0.364  0.00  0.00    +0.000 C 
ATOM      8  C   UNL     1      -1.971   0.049  -0.226  0.00  0.00    +0.000 C 
ENDBRANCH   1   8
BRANCH   4   9
ATOM      9  C   UNL     1       3.740   0.002   0.424  0.00  0.00    +0.000 C 
BRANCH   9  10
ATOM     10  C   UNL     1       4.341  -1.310  -0.090  0.00  0.00    +0.000 C 
BRANCH  10  11
ATOM     11  C   UNL     1       5.844  -1.321   0.040  0.00  0.00    +0.000 A 
ATOM     12  C   UNL     1       6.450  -1.684   1.250  0.00  0.00    +0.000 A 
ATOM     13  C   UNL     1       7.840  -1.675   1.375  0.00  0.00    +0.000 A 
ATOM     14  C   UNL     1       8.636  -1.301   0.294  0.00  0.00    +0.000 A 
ATOM     15  C   UNL     1       8.043  -0.934  -0.913  0.00  0.00    +0.000 A 
ATOM     16  C   UNL     1       6.653  -0.941  -1.039  0.00  0.00    +0.000 A 
ENDBRANCH  10  11
ENDBRANCH   9  10
ENDBRANCH   4   9
TORSDOF 4
