REMARK  Name = *****
REMARK  4 active torsions:
REMARK  status: ('A' for Active; 'I' for Inactive)
REMARK    1  A    between atoms: C_4  and  S_7
REMARK    2  A    between atoms: S_7  and  C_8
REMARK    3  A    between atoms: C_8  and  C_9
REMARK    4  A    between atoms: C_12  and  C_15
REMARK                            x       y       z     vdW  Elec       q    Type
REMARK                         _______ _______ _______ _____ _____    ______ ____
ROOT
ATOM      1  C   UNL     1      -3.969  -1.232  -0.141  0.00  0.00    +0.000 C 
ATOM      2  F   UNL     1      -3.021  -1.350   0.834  0.00  0.00    +0.000 F 
ATOM      3  F   UNL     1      -5.096  -1.805   0.375  0.00  0.00    +0.000 F 
ENDROOT
BRANCH   1   4
ATOM      4  C   UNL     1      -3.536  -1.913  -1.428  0.00  0.00    +0.000 A 
ATOM      5  C   UNL     1      -2.175  -1.994  -1.771  0.00  0.00    +0.000 A 
ATOM      6  C   UNL     1      -1.777  -2.611  -2.960  0.00  0.00    +0.000 A 
ATOM      7  C   UNL     1      -2.732  -3.154  -3.824  0.00  0.00    +0.000 A 
ATOM      8  C   UNL     1      -4.089  -3.078  -3.494  0.00  0.00    +0.000 A 
ATOM      9  C   UNL     1      -4.488  -2.462  -2.304  0.00  0.00    +0.000 A 
BRANCH   7  10
ATOM     10  C   UNL     1      -2.323  -3.787  -5.044  0.00  0.00    +0.000 C 
ATOM     11  N   UNL     1      -1.992  -4.299  -6.032  0.00  0.00    +0.000 NA
ENDBRANCH   7  10
ENDBRANCH   1   4
BRANCH   1  12
ATOM     12  S   UNL     1      -4.295   0.544  -0.451  0.00  0.00    +0.000 S 
BRANCH  12  16
ATOM     13  C   UNL     1      -4.645   2.186   3.817  0.00  0.00    +0.000 A 
ATOM     14  C   UNL     1      -5.494   1.160   3.406  0.00  0.00    +0.000 A 
ATOM     15  C   UNL     1      -5.397   0.646   2.110  0.00  0.00    +0.000 A 
ATOM     16  C   UNL     1      -4.441   1.148   1.220  0.00  0.00    +0.000 A 
ATOM     17  C   UNL     1      -3.604   2.190   1.636  0.00  0.00    +0.000 A 
ATOM     18  C   UNL     1      -3.702   2.703   2.931  0.00  0.00    +0.000 A 
ENDBRANCH  12  16
ENDBRANCH   1  12
TORSDOF 4
