REMARK  Name = *****
REMARK  2 active torsions:
REMARK  status: ('A' for Active; 'I' for Inactive)
REMARK    1  A    between atoms: C_5  and  C_7
REMARK    2  A    between atoms: N_8  and  C_9
REMARK                            x       y       z     vdW  Elec       q    Type
REMARK                         _______ _______ _______ _____ _____    ______ ____
ROOT
ATOM      1  C   UNL     1      -0.657  -2.407  -0.208  0.00  0.00    +0.000 C 
ATOM      2  N   UNL     1      -1.855  -2.547   0.271  0.00  0.00    +0.000 NA
ENDROOT
BRANCH   2   3
ATOM      3  C   UNL     1      -2.443  -3.807   0.103  0.00  0.00    +0.000 A 
ATOM      4  C   UNL     1      -2.238  -4.814   1.051  0.00  0.00    +0.000 A 
ATOM      5  C   UNL     1      -2.846  -6.059   0.887  0.00  0.00    +0.000 A 
ATOM      6  C   UNL     1      -3.664  -6.293  -0.216  0.00  0.00    +0.000 A 
ATOM      7  C   UNL     1      -3.887  -5.293  -1.157  0.00  0.00    +0.000 A 
ATOM      8  C   UNL     1      -3.279  -4.048  -0.993  0.00  0.00    +0.000 A 
ATOM      9  F   UNL     1      -4.256  -7.484  -0.390  0.00  0.00    +0.000 F 
ATOM     10 CL   UNL     1      -2.574  -7.293   2.057  0.00  0.00    +0.000 Cl
ENDBRANCH   2   3
BRANCH   1  15
ATOM     11  C   UNL     1       0.122   1.180   0.660  0.00  0.00    +0.000 A 
ATOM     12  C   UNL     1       1.410   1.327   0.152  0.00  0.00    +0.000 A 
ATOM     13  C   UNL     1       2.035   0.251  -0.481  0.00  0.00    +0.000 A 
ATOM     14  C   UNL     1       1.376  -0.977  -0.608  0.00  0.00    +0.000 A 
ATOM     15  C   UNL     1       0.080  -1.128  -0.097  0.00  0.00    +0.000 A 
ATOM     16  C   UNL     1      -0.542  -0.042   0.537  0.00  0.00    +0.000 A 
ATOM     17 CL   UNL     1       2.228  -2.251  -1.405  0.00  0.00    +0.000 Cl
ENDBRANCH   1  15
TORSDOF 2
