REMARK  Name = *****
REMARK  3 active torsions:
REMARK  status: ('A' for Active; 'I' for Inactive)
REMARK    1  A    between atoms: C_4  and  C_5
REMARK    2  A    between atoms: C_5  and  C_6
REMARK    3  A    between atoms: C_6  and  C_7
REMARK                            x       y       z     vdW  Elec       q    Type
REMARK                         _______ _______ _______ _____ _____    ______ ____
ROOT
ATOM      1  C   UNL     1       3.624  -0.225   0.554  0.00  0.00    +0.000 C 
ENDROOT
BRANCH   1   5
ATOM      2  C   UNL     1      -0.304   0.496   2.699  0.00  0.00    +0.000 C 
ATOM      3  C   UNL     1       1.193   0.295   2.473  0.00  0.00    +0.000 C 
ATOM      4  C   UNL     1       1.505   1.020   1.193  0.00  0.00    +0.000 C 
ATOM      5  C   UNL     1       2.533   0.793   0.363  0.00  0.00    +0.000 C 
ATOM      6  S   UNL     1       0.318   2.249   0.825  0.00  0.00    +0.000 S 
ATOM      7  C   UNL     1      -0.632   1.938   2.345  0.00  0.00    +0.000 C 
ENDBRANCH   1   5
BRANCH   1   8
ATOM      8  C   UNL     1       4.992   0.450   0.697  0.00  0.00    +0.000 C 
BRANCH   8   9
ATOM      9  C   UNL     1       6.094  -0.562   0.893  0.00  0.00    +0.000 A 
ATOM     10  C   UNL     1       6.752  -1.120  -0.211  0.00  0.00    +0.000 A 
ATOM     11  C   UNL     1       7.757  -2.070  -0.028  0.00  0.00    +0.000 A 
ATOM     12  C   UNL     1       8.111  -2.475   1.258  0.00  0.00    +0.000 A 
ATOM     13  C   UNL     1       7.459  -1.930   2.362  0.00  0.00    +0.000 A 
ATOM     14  C   UNL     1       6.454  -0.979   2.182  0.00  0.00    +0.000 A 
ENDBRANCH   8   9
ENDBRANCH   1   8
TORSDOF 3
