REMARK  Name = *****
REMARK  3 active torsions:
REMARK  status: ('A' for Active; 'I' for Inactive)
REMARK    1  A    between atoms: C_4  and  O_20
REMARK    2  A    between atoms: C_5  and  C_7
REMARK    3  A    between atoms: C_8  and  C_9
REMARK                            x       y       z     vdW  Elec       q    Type
REMARK                         _______ _______ _______ _____ _____    ______ ____
ROOT
ATOM      1  C   UNL     1       3.035   3.881   0.104  0.00  0.00    +0.000 A 
ATOM      2  C   UNL     1       4.383   3.851   0.494  0.00  0.00    +0.000 A 
ATOM      3  C   UNL     1       5.131   5.021   0.606  0.00  0.00    +0.000 A 
ATOM      4  C   UNL     1       4.551   6.246   0.318  0.00  0.00    +0.000 A 
ATOM      5  C   UNL     1       3.227   6.302  -0.089  0.00  0.00    +0.000 A 
ATOM      6  C   UNL     1       2.478   5.132  -0.201  0.00  0.00    +0.000 A 
ATOM      7  F   UNL     1       1.208   5.230  -0.627  0.00  0.00    +0.000 F 
ATOM      8  F   UNL     1       2.668   7.484  -0.384  0.00  0.00    +0.000 F 
ATOM      9  F   UNL     1       5.270   7.372   0.423  0.00  0.00    +0.000 F 
ATOM     10  F   UNL     1       6.414   4.961   0.989  0.00  0.00    +0.000 F 
ATOM     11  F   UNL     1       4.977   2.680   0.771  0.00  0.00    +0.000 F 
ENDROOT
BRANCH   1  13
ATOM     12  C   UNL     1       0.985   2.458   0.190  0.00  0.00    +0.000 C 
ATOM     13  C   UNL     1       2.303   2.610  -0.019  0.00  0.00    +0.000 C 
BRANCH  12  18
ATOM     14  C   UNL     1      -1.604  -0.060  -0.845  0.00  0.00    +0.000 A 
ATOM     15  C   UNL     1      -1.159  -1.227  -0.228  0.00  0.00    +0.000 A 
ATOM     16  C   UNL     1       0.003  -1.208   0.543  0.00  0.00    +0.000 A 
ATOM     17  C   UNL     1       0.720  -0.018   0.691  0.00  0.00    +0.000 A 
ATOM     18  C   UNL     1       0.295   1.164   0.062  0.00  0.00    +0.000 A 
ATOM     19  C   UNL     1      -0.884   1.128  -0.697  0.00  0.00    +0.000 A 
BRANCH  17  20
ATOM     20  O   UNL     1       1.844  -0.006   1.473  0.00  0.00    +0.000 OA
ATOM     21  H   UNL     1       2.131  -0.792   1.893  0.00  0.00    +0.000 HD
ENDBRANCH  17  20
ENDBRANCH  12  18
ENDBRANCH   1  13
TORSDOF 3
