REMARK  Name = *****
REMARK  5 active torsions:
REMARK  status: ('A' for Active; 'I' for Inactive)
REMARK    1  A    between atoms: C_1  and  C_2
REMARK    2  A    between atoms: C_4  and  C_8
REMARK    3  A    between atoms: C_8  and  C_9
REMARK    4  A    between atoms: C_9  and  C_10
REMARK    5  A    between atoms: C_10  and  C_12
REMARK                            x       y       z     vdW  Elec       q    Type
REMARK                         _______ _______ _______ _____ _____    ______ ____
ROOT
ATOM      1  C   UNL     1      -1.633   5.029   0.033  0.00  0.00    +0.000 C 
ATOM      2  O   UNL     1      -2.860   5.096   0.026  0.00  0.00    +0.000 OA
ENDROOT
BRANCH   1   3
ATOM      3  C   UNL     1      -0.842   6.296   0.042  0.00  0.00    +0.000 A 
ATOM      4  C   UNL     1       0.558   6.306   0.046  0.00  0.00    +0.000 A 
ATOM      5  C   UNL     1       1.237   7.523   0.055  0.00  0.00    +0.000 A 
ATOM      6  C   UNL     1       0.556   8.732   0.060  0.00  0.00    +0.000 A 
ATOM      7  C   UNL     1      -0.830   8.715   0.056  0.00  0.00    +0.000 A 
ATOM      8  C   UNL     1      -1.535   7.515   0.047  0.00  0.00    +0.000 A 
ATOM      9  F   UNL     1      -1.502   9.873   0.061  0.00  0.00    +0.000 F 
ATOM     10  F   UNL     1       2.576   7.523   0.058  0.00  0.00    +0.000 F 
ENDBRANCH   1   3
BRANCH   1  11
ATOM     11  C   UNL     1      -0.890   3.706   0.032  0.00  0.00    +0.000 C 
BRANCH  11  12
ATOM     12  C   UNL     1      -1.850   2.517   0.030  0.00  0.00    +0.000 C 
BRANCH  12  16
ATOM     13  C   UNL     1       0.357  -1.255  -2.490  0.00  0.00    +0.000 C 
ATOM     14  C   UNL     1       0.001  -0.593  -1.192  0.00  0.00    +0.000 A 
ATOM     15  C   UNL     1      -0.728   0.604  -1.181  0.00  0.00    +0.000 A 
ATOM     16  C   UNL     1      -1.098   1.210   0.029  0.00  0.00    +0.000 A 
ATOM     17  C   UNL     1      -0.732   0.601   1.236  0.00  0.00    +0.000 A 
ATOM     18  C   UNL     1      -0.021  -0.598   1.233  0.00  0.00    +0.000 A 
ATOM     19  C   UNL     1       0.340  -1.195   0.025  0.00  0.00    +0.000 A 
ENDBRANCH  12  16
ENDBRANCH  11  12
ENDBRANCH   1  11
TORSDOF 4
