REMARK  Name = *****
REMARK  4 active torsions:
REMARK  status: ('A' for Active; 'I' for Inactive)
REMARK    1  A    between atoms: C_4  and  C_7
REMARK    2  A    between atoms: C_7  and  C_9
REMARK    3  A    between atoms: C_9  and  C_10
REMARK    4  A    between atoms: C_10  and  C_11
REMARK                            x       y       z     vdW  Elec       q    Type
REMARK                         _______ _______ _______ _____ _____    ______ ____
ROOT
ATOM      1  C   UNL     1      -3.790  -0.667  -0.375  0.00  0.00    +0.000 C 
ENDROOT
BRANCH   1   2
ATOM      2  C   UNL     1      -2.814   0.493  -0.308  0.00  0.00    +0.000 C 
ATOM      3  O   UNL     1      -3.173   1.659  -0.464  0.00  0.00    +0.000 OA
BRANCH   2   7
ATOM      4  C   UNL     1       1.353  -0.247   0.439  0.00  0.00    +0.000 A 
ATOM      5  C   UNL     1       0.461  -1.318   0.424  0.00  0.00    +0.000 A 
ATOM      6  C   UNL     1      -0.898  -1.098   0.184  0.00  0.00    +0.000 A 
ATOM      7  C   UNL     1      -1.371   0.200  -0.044  0.00  0.00    +0.000 A 
ATOM      8  C   UNL     1      -0.467   1.271  -0.026  0.00  0.00    +0.000 A 
ATOM      9  C   UNL     1       0.891   1.048   0.214  0.00  0.00    +0.000 A 
ENDBRANCH   2   7
ENDBRANCH   1   2
BRANCH   1  10
ATOM     10  C   UNL     1      -5.209  -0.194  -0.691  0.00  0.00    +0.000 C 
BRANCH  10  11
ATOM     11  C   UNL     1      -6.170  -1.355  -0.774  0.00  0.00    +0.000 A 
ATOM     12  C   UNL     1      -6.830  -1.814   0.375  0.00  0.00    +0.000 A 
ATOM     13  C   UNL     1      -7.702  -2.902   0.301  0.00  0.00    +0.000 A 
ATOM     14  C   UNL     1      -7.914  -3.539  -0.920  0.00  0.00    +0.000 A 
ATOM     15  C   UNL     1      -7.261  -3.097  -2.068  0.00  0.00    +0.000 A 
ATOM     16  C   UNL     1      -6.389  -2.008  -1.995  0.00  0.00    +0.000 A 
ATOM     17 CL   UNL     1      -8.986  -4.882  -1.009  0.00  0.00    +0.000 Cl
ENDBRANCH  10  11
ENDBRANCH   1  10
TORSDOF 4
