REMARK  Name = *****
REMARK  4 active torsions:
REMARK  status: ('A' for Active; 'I' for Inactive)
REMARK    1  A    between atoms: C_4  and  S_7
REMARK    2  A    between atoms: S_7  and  S_8
REMARK    3  A    between atoms: S_8  and  C_9
REMARK    4  A    between atoms: C_9  and  C_11
REMARK                            x       y       z     vdW  Elec       q    Type
REMARK                         _______ _______ _______ _____ _____    ______ ____
ROOT
ATOM      1  C   UNL     1      -5.900  -0.982  -0.688  0.00  0.00    +0.000 C 
ATOM      2  O   UNL     1      -6.208   0.023  -1.319  0.00  0.00    +0.000 OA
ENDROOT
BRANCH   1   3
ATOM      3  C   UNL     1      -6.943  -2.006  -0.361  0.00  0.00    +0.000 A 
ATOM      4  C   UNL     1      -6.672  -3.230   0.271  0.00  0.00    +0.000 A 
ATOM      5  C   UNL     1      -7.708  -4.134   0.542  0.00  0.00    +0.000 A 
ATOM      6  C   UNL     1      -9.018  -3.823   0.184  0.00  0.00    +0.000 A 
ATOM      7  C   UNL     1      -9.305  -2.615  -0.444  0.00  0.00    +0.000 A 
ATOM      8  C   UNL     1      -8.272  -1.712  -0.716  0.00  0.00    +0.000 A 
ATOM      9 CL   UNL     1     -10.284  -4.936   0.520  0.00  0.00    +0.000 Cl
ENDBRANCH   1   3
BRANCH   1  10
ATOM     10  S   UNL     1      -4.247  -1.277  -0.142  0.00  0.00    +0.000 S 
BRANCH  10  11
ATOM     11  S   UNL     1      -3.421   0.608  -0.145  0.00  0.00    +0.000 S 
BRANCH  11  15
ATOM     12  C   UNL     1      -5.048   2.309   3.784  0.00  0.00    +0.000 A 
ATOM     13  C   UNL     1      -3.884   1.542   3.789  0.00  0.00    +0.000 A 
ATOM     14  C   UNL     1      -3.384   1.023   2.592  0.00  0.00    +0.000 A 
ATOM     15  C   UNL     1      -4.050   1.268   1.387  0.00  0.00    +0.000 A 
ATOM     16  C   UNL     1      -5.214   2.043   1.388  0.00  0.00    +0.000 A 
ATOM     17  C   UNL     1      -5.713   2.561   2.585  0.00  0.00    +0.000 A 
ENDBRANCH  11  15
ENDBRANCH  10  11
ENDBRANCH   1  10
TORSDOF 4
