REMARK  Name = *****
REMARK  4 active torsions:
REMARK  status: ('A' for Active; 'I' for Inactive)
REMARK    1  A    between atoms: C_1  and  C_2
REMARK    2  A    between atoms: C_7  and  C_8
REMARK    3  A    between atoms: N_9  and  C_10
REMARK    4  A    between atoms: C_15  and  C_16
REMARK                            x       y       z     vdW  Elec       q    Type
REMARK                         _______ _______ _______ _____ _____    ______ ____
ROOT
ATOM      1  C   UNL     1       1.161  -2.441   0.090  0.00  0.00    +0.000 C 
ATOM      2  N   UNL     1       2.287  -2.678  -0.512  0.00  0.00    +0.000 NA
ENDROOT
BRANCH   1   9
ATOM      3  C   UNL     1      -1.447  -1.950   1.456  0.00  0.00    +0.000 C 
ATOM      4  C   UNL     1      -0.775  -0.914   0.598  0.00  0.00    +0.000 A 
ATOM      5  C   UNL     1      -1.396   0.336   0.433  0.00  0.00    +0.000 A 
ATOM      6  C   UNL     1      -0.810   1.330  -0.354  0.00  0.00    +0.000 A 
ATOM      7  C   UNL     1       0.405   1.091  -0.989  0.00  0.00    +0.000 A 
ATOM      8  C   UNL     1       1.036  -0.143  -0.837  0.00  0.00    +0.000 A 
ATOM      9  C   UNL     1       0.454  -1.146  -0.047  0.00  0.00    +0.000 A 
ENDBRANCH   1   9
BRANCH   2  10
ATOM     10  C   UNL     1       2.844  -3.948  -0.286  0.00  0.00    +0.000 A 
ATOM     11  C   UNL     1       2.440  -5.026  -1.084  0.00  0.00    +0.000 A 
ATOM     12  C   UNL     1       2.977  -6.298  -0.888  0.00  0.00    +0.000 A 
ATOM     13  C   UNL     1       3.932  -6.501   0.105  0.00  0.00    +0.000 A 
ATOM     14  C   UNL     1       4.357  -5.431   0.894  0.00  0.00    +0.000 A 
ATOM     15  C   UNL     1       3.827  -4.146   0.700  0.00  0.00    +0.000 A 
ATOM     16  C   UNL     1       4.300  -3.001   1.550  0.00  0.00    +0.000 C 
ENDBRANCH   2  10
TORSDOF 2
