REMARK  Name = *****
REMARK  6 active torsions:
REMARK  status: ('A' for Active; 'I' for Inactive)
REMARK    1  A    between atoms: C_1  and  C_2
REMARK    2  A    between atoms: C_2  and  N_17
REMARK    3  A    between atoms: C_6  and  C_7
REMARK    4  A    between atoms: C_6  and  O_8
REMARK    5  A    between atoms: O_8  and  C_9
REMARK    6  A    between atoms: C_9  and  C_11
REMARK                            x       y       z     vdW  Elec       q    Type
REMARK                         _______ _______ _______ _____ _____    ______ ____
ROOT
ATOM      1  C   UNL     1       2.601  -0.221  -1.263  0.00  0.00    +0.000 C 
ATOM      2  C   UNL     1       2.512   0.276   0.192  0.00  0.00    +0.000 C 
ATOM      3  C   UNL     1       2.798  -0.871   1.183  0.00  0.00    +0.000 C 
ATOM      4  C   UNL     1       4.319  -0.922   1.329  0.00  0.00    +0.000 C 
ATOM      5  C   UNL     1       4.858   0.383   0.738  0.00  0.00    +0.000 C 
ATOM      6  C   UNL     1       3.627   1.305   0.569  0.00  0.00    +0.000 C 
ATOM      7  C   UNL     1       3.945   2.384  -0.471  0.00  0.00    +0.000 C 
ENDROOT
BRANCH   2   8
ATOM      8  N   UNL     1       1.131   0.852   0.388  0.00  0.00    +0.000 NA
ATOM      9  O   UNL     1       0.284  -0.000   0.682  0.00  0.00    +0.000 OA
ENDBRANCH   2   8
BRANCH   6  10
ATOM     10  O   UNL     1       3.443   1.855   1.912  0.00  0.00    +0.000 OA
BRANCH  10  11
ATOM     11  C   UNL     1       2.657   2.932   2.143  0.00  0.00    +0.000 C 
ATOM     12  O   UNL     1       2.084   3.610   1.307  0.00  0.00    +0.000 OA
BRANCH  11  13
ATOM     13  C   UNL     1       2.590   3.212   3.604  0.00  0.00    +0.000 A 
ATOM     14  C   UNL     1       3.215   2.397   4.558  0.00  0.00    +0.000 A 
ATOM     15  C   UNL     1       3.118   2.706   5.918  0.00  0.00    +0.000 A 
ATOM     16  C   UNL     1       2.398   3.826   6.331  0.00  0.00    +0.000 A 
ATOM     17  C   UNL     1       1.771   4.640   5.389  0.00  0.00    +0.000 A 
ATOM     18  C   UNL     1       1.865   4.335   4.029  0.00  0.00    +0.000 A 
ENDBRANCH  11  13
ENDBRANCH  10  11
ENDBRANCH   6  10
TORSDOF 4
