REMARK  Name = *****
REMARK  6 active torsions:
REMARK  status: ('A' for Active; 'I' for Inactive)
REMARK    1  A    between atoms: C_1  and  C_2
REMARK    2  A    between atoms: C_2  and  N_3
REMARK    3  A    between atoms: N_3  and  C_4
REMARK    4  A    between atoms: N_3  and  C_12
REMARK    5  A    between atoms: C_4  and  C_5
REMARK    6  A    between atoms: C_16  and  C_18
REMARK                            x       y       z     vdW  Elec       q    Type
REMARK                         _______ _______ _______ _____ _____    ______ ____
ROOT
ATOM      1  N   UNL     1       3.298   1.080  -1.039  0.00  0.00    +0.000 N 
ENDROOT
BRANCH   1   2
ATOM      2  C   UNL     1       4.655   0.989  -1.408  0.00  0.00    +0.000 A 
ATOM      3  C   UNL     1       5.278   2.055  -2.082  0.00  0.00    +0.000 A 
ATOM      4  C   UNL     1       6.623   2.008  -2.461  0.00  0.00    +0.000 A 
ATOM      5  C   UNL     1       7.392   0.889  -2.163  0.00  0.00    +0.000 A 
ATOM      6  C   UNL     1       6.821  -0.182  -1.475  0.00  0.00    +0.000 A 
ATOM      7  C   UNL     1       5.461  -0.125  -1.116  0.00  0.00    +0.000 A 
ATOM      8  C   UNL     1       7.629  -1.408  -1.168  0.00  0.00    +0.000 C 
ENDBRANCH   1   2
BRANCH   1  10
ATOM      9  C   UNL     1       1.519   0.597   0.636  0.00  0.00    +0.000 C 
ATOM     10  C   UNL     1       2.768   0.097  -0.079  0.00  0.00    +0.000 C 
ENDBRANCH   1  10
BRANCH   1  11
ATOM     11  C   UNL     1       2.393   1.484  -2.136  0.00  0.00    +0.000 C 
BRANCH  11  12
ATOM     12  C   UNL     1       1.819   2.883  -1.970  0.00  0.00    +0.000 A 
ATOM     13  C   UNL     1       2.202   3.752  -0.934  0.00  0.00    +0.000 A 
ATOM     14  C   UNL     1       1.655   5.033  -0.836  0.00  0.00    +0.000 A 
ATOM     15  C   UNL     1       0.724   5.454  -1.776  0.00  0.00    +0.000 A 
ATOM     16  C   UNL     1       0.330   4.618  -2.813  0.00  0.00    +0.000 A 
ATOM     17  C   UNL     1       0.876   3.337  -2.910  0.00  0.00    +0.000 A 
ATOM     18  F   UNL     1       0.201   6.684  -1.684  0.00  0.00    +0.000 F 
ENDBRANCH  11  12
ENDBRANCH   1  11
TORSDOF 4
