REMARK  Name = *****
REMARK  4 active torsions:
REMARK  status: ('A' for Active; 'I' for Inactive)
REMARK    1  A    between atoms: C_1  and  C_2
REMARK    2  A    between atoms: C_5  and  S_8
REMARK    3  A    between atoms: S_8  and  N_10
REMARK    4  A    between atoms: N_10  and  C_11
REMARK                            x       y       z     vdW  Elec       q    Type
REMARK                         _______ _______ _______ _____ _____    ______ ____
ROOT
ATOM      1  S   UNL     1      -3.689  -0.374  -0.331  0.00  0.00    +0.000 S 
ATOM      2  O   UNL     1      -4.058  -1.103   0.925  0.00  0.00    +0.000 OA
ENDROOT
BRANCH   1   7
ATOM      3  C   UNL     1       2.244   1.067   0.052  0.00  0.00    +0.000 C 
ATOM      4  C   UNL     1       0.796   0.685  -0.044  0.00  0.00    +0.000 A 
ATOM      5  C   UNL     1       0.080   0.335   1.107  0.00  0.00    +0.000 A 
ATOM      6  C   UNL     1      -1.275   0.007   1.025  0.00  0.00    +0.000 A 
ATOM      7  C   UNL     1      -1.935   0.038  -0.206  0.00  0.00    +0.000 A 
ATOM      8  C   UNL     1      -1.225   0.398  -1.358  0.00  0.00    +0.000 A 
ATOM      9  C   UNL     1       0.130   0.726  -1.275  0.00  0.00    +0.000 A 
ENDBRANCH   1   7
BRANCH   1  10
ATOM     10  N   UNL     1      -4.178   1.218  -0.244  0.00  0.00    +0.000 N 
ATOM     11  H   UNL     1      -3.480   1.911  -0.275  0.00  0.00    +0.000 HD
BRANCH  10  12
ATOM     12  C   UNL     1      -5.515   1.644  -0.130  0.00  0.00    +0.000 A 
ATOM     13  C   UNL     1      -6.582   0.794   0.194  0.00  0.00    +0.000 A 
ATOM     14  C   UNL     1      -7.887   1.286   0.328  0.00  0.00    +0.000 A 
ATOM     15  C   UNL     1      -8.137   2.642   0.156  0.00  0.00    +0.000 A 
ATOM     16  C   UNL     1      -7.094   3.512  -0.140  0.00  0.00    +0.000 A 
ATOM     17  C   UNL     1      -5.793   3.015  -0.272  0.00  0.00    +0.000 A 
ATOM     18 CL   UNL     1      -9.738   3.248   0.320  0.00  0.00    +0.000 Cl
ENDBRANCH  10  12
ENDBRANCH   1  10
TORSDOF 3
