REMARK  Name = *****
REMARK  4 active torsions:
REMARK  status: ('A' for Active; 'I' for Inactive)
REMARK    1  A    between atoms: C_1  and  C_2
REMARK    2  A    between atoms: C_3  and  C_17
REMARK    3  A    between atoms: C_7  and  C_9
REMARK    4  A    between atoms: C_10  and  C_11
REMARK                            x       y       z     vdW  Elec       q    Type
REMARK                         _______ _______ _______ _____ _____    ______ ____
ROOT
ATOM      1  C   UNL     1       0.893   0.061   0.321  0.00  0.00    +0.000 C 
ATOM      2  C   UNL     1       2.388   0.043   0.112  0.00  0.00    +0.000 C 
ATOM      3  C   UNL     1       3.100   1.067  -0.418  0.00  0.00    +0.000 C 
ATOM      4  C   UNL     1       4.611   1.077  -0.550  0.00  0.00    +0.000 C 
ATOM      5  S   UNL     1       5.469  -0.047   0.587  0.00  0.00    +0.000 S 
ATOM      6  O   UNL     1       6.876  -0.241   0.100  0.00  0.00    +0.000 OA
ATOM      7  C   UNL     1       4.477  -1.520   0.138  0.00  0.00    +0.000 C 
ATOM      8  C   UNL     1       3.027  -1.259   0.580  0.00  0.00    +0.000 C 
ATOM      9  C   UNL     1       2.478   2.327  -0.971  0.00  0.00    +0.000 C 
ENDROOT
BRANCH   7  10
ATOM     10  C   UNL     1       4.724  -1.948  -1.294  0.00  0.00    +0.000 C 
ATOM     11  C   UNL     1       3.809  -2.118  -2.264  0.00  0.00    +0.000 C 
BRANCH  11  12
ATOM     12  C   UNL     1       4.136  -2.525  -3.638  0.00  0.00    +0.000 A 
ATOM     13  C   UNL     1       5.120  -3.481  -3.923  0.00  0.00    +0.000 A 
ATOM     14  C   UNL     1       5.379  -3.864  -5.241  0.00  0.00    +0.000 A 
ATOM     15  C   UNL     1       4.650  -3.303  -6.288  0.00  0.00    +0.000 A 
ATOM     16  C   UNL     1       3.659  -2.362  -6.017  0.00  0.00    +0.000 A 
ATOM     17  C   UNL     1       3.400  -1.980  -4.698  0.00  0.00    +0.000 A 
ENDBRANCH  11  12
ENDBRANCH   7  10
TORSDOF 2
