REMARK  Name = *****
REMARK  4 active torsions:
REMARK  status: ('A' for Active; 'I' for Inactive)
REMARK    1  A    between atoms: C_1  and  C_2
REMARK    2  A    between atoms: C_5  and  C_8
REMARK    3  A    between atoms: C_8  and  C_16
REMARK    4  A    between atoms: C_9  and  C_10
REMARK                            x       y       z     vdW  Elec       q    Type
REMARK                         _______ _______ _______ _____ _____    ______ ____
ROOT
ATOM      1  C   UNL     1      -3.303   0.103  -0.044  0.00  0.00    +0.000 C 
ATOM      2  C   UNL     1      -4.075  -1.001  -0.118  0.00  0.00    +0.000 C 
ENDROOT
BRANCH   1   7
ATOM      3  C   UNL     1       2.470  -0.484  -0.044  0.00  0.00    +0.000 C 
ATOM      4  C   UNL     1       0.975  -0.361  -0.029  0.00  0.00    +0.000 A 
ATOM      5  C   UNL     1       0.211  -0.875  -1.082  0.00  0.00    +0.000 A 
ATOM      6  C   UNL     1      -1.179  -0.730  -1.086  0.00  0.00    +0.000 A 
ATOM      7  C   UNL     1      -1.832  -0.060  -0.041  0.00  0.00    +0.000 A 
ATOM      8  C   UNL     1      -1.060   0.472   1.002  0.00  0.00    +0.000 A 
ATOM      9  C   UNL     1       0.330   0.326   1.005  0.00  0.00    +0.000 A 
ENDBRANCH   1   7
BRANCH   2  10
ATOM     10  C   UNL     1      -5.544  -1.035  -0.117  0.00  0.00    +0.000 A 
ATOM     11  C   UNL     1      -6.296  -0.377  -1.097  0.00  0.00    +0.000 A 
ATOM     12  C   UNL     1      -7.691  -0.450  -1.082  0.00  0.00    +0.000 A 
ATOM     13  C   UNL     1      -8.342  -1.189  -0.096  0.00  0.00    +0.000 A 
ATOM     14  C   UNL     1      -7.600  -1.859   0.875  0.00  0.00    +0.000 A 
ATOM     15  C   UNL     1      -6.205  -1.786   0.863  0.00  0.00    +0.000 A 
ENDBRANCH   2  10
BRANCH   1  16
ATOM     16  C   UNL     1      -3.848   1.420   0.080  0.00  0.00    +0.000 C 
ATOM     17  N   UNL     1      -4.275   2.496   0.178  0.00  0.00    +0.000 NA
ENDBRANCH   1  16
TORSDOF 3
