REMARK  Name = *****
REMARK  3 active torsions:
REMARK  status: ('A' for Active; 'I' for Inactive)
REMARK    1  A    between atoms: C_5  and  O_8
REMARK    2  A    between atoms: O_8  and  O_9
REMARK    3  A    between atoms: O_9  and  C_10
REMARK                            x       y       z     vdW  Elec       q    Type
REMARK                         _______ _______ _______ _____ _____    ______ ____
ROOT
ATOM      1  O   UNL     1      -1.654  -1.705  -1.080  0.00  0.00    +0.000 OA
ENDROOT
BRANCH   1   6
ATOM      2  C   UNL     1       1.831  -0.552   0.310  0.00  0.00    +0.000 C 
ATOM      3  C   UNL     1       1.227   0.822   0.036  0.00  0.00    +0.000 C 
ATOM      4  C   UNL     1       0.079   0.842  -0.968  0.00  0.00    +0.000 C 
ATOM      5  C   UNL     1      -1.276   0.571  -0.312  0.00  0.00    +0.000 C 
ATOM      6  C   UNL     1      -1.538  -0.882   0.088  0.00  0.00    +0.000 C 
ATOM      7  C   UNL     1      -0.470  -1.491   1.007  0.00  0.00    +0.000 C 
ATOM      8  C   UNL     1       0.880  -1.744   0.337  0.00  0.00    +0.000 C 
ENDBRANCH   1   6
BRANCH   1   9
ATOM      9  O   UNL     1      -3.011  -1.513  -1.584  0.00  0.00    +0.000 OA
BRANCH   9  10
ATOM     10  C   UNL     1      -2.886  -1.310  -3.002  0.00  0.00    +0.000 C 
ATOM     11  C   UNL     1      -4.027  -0.376  -3.409  0.00  0.00    +0.000 C 
ATOM     12  C   UNL     1      -4.362  -0.370  -4.896  0.00  0.00    +0.000 C 
ATOM     13  C   UNL     1      -5.377  -1.449  -5.270  0.00  0.00    +0.000 C 
ATOM     14  C   UNL     1      -4.846  -2.879  -5.250  0.00  0.00    +0.000 C 
ATOM     15  C   UNL     1      -4.204  -3.322  -3.936  0.00  0.00    +0.000 C 
ATOM     16  C   UNL     1      -2.841  -2.673  -3.698  0.00  0.00    +0.000 C 
ENDBRANCH   9  10
ENDBRANCH   1   9
TORSDOF 3
