REMARK  Name = *****
REMARK  4 active torsions:
REMARK  status: ('A' for Active; 'I' for Inactive)
REMARK    1  A    between atoms: C_1  and  C_2
REMARK    2  A    between atoms: C_3  and  C_9
REMARK    3  A    between atoms: C_4  and  C_8
REMARK    4  A    between atoms: C_10  and  C_11
REMARK                            x       y       z     vdW  Elec       q    Type
REMARK                         _______ _______ _______ _____ _____    ______ ____
ROOT
ATOM      1  C   UNL     1       0.850   0.031   0.245  0.00  0.00    +0.000 C 
ATOM      2  C   UNL     1       2.353  -0.010   0.172  0.00  0.00    +0.000 A 
ATOM      3  C   UNL     1       3.063  -1.228   0.212  0.00  0.00    +0.000 A 
ATOM      4  C   UNL     1       4.472  -1.233   0.139  0.00  0.00    +0.000 A 
ATOM      5  C   UNL     1       5.155  -0.014   0.026  0.00  0.00    +0.000 A 
ATOM      6  C   UNL     1       4.457   1.191  -0.014  0.00  0.00    +0.000 A 
ATOM      7  C   UNL     1       3.065   1.194   0.058  0.00  0.00    +0.000 A 
ATOM      8  C   UNL     1       5.259  -2.516   0.180  0.00  0.00    +0.000 C 
ENDROOT
BRANCH   3   9
ATOM      9  C   UNL     1       2.348  -2.469   0.329  0.00  0.00    +0.000 C 
ATOM     10  C   UNL     1       1.751  -3.507   0.428  0.00  0.00    +0.000 C 
BRANCH  10  11
ATOM     11  C   UNL     1       1.036  -4.736   0.549  0.00  0.00    +0.000 C 
ATOM     12  C   UNL     1       1.716  -5.895   0.526  0.00  0.00    +0.000 C 
ATOM     13  C   UNL     1       1.067  -7.244   0.632  0.00  0.00    +0.000 C 
ATOM     14  C   UNL     1      -0.453  -7.199   0.466  0.00  0.00    +0.000 C 
ATOM     15  C   UNL     1      -1.055  -6.015   1.214  0.00  0.00    +0.000 C 
ATOM     16  C   UNL     1      -0.464  -4.693   0.719  0.00  0.00    +0.000 C 
ENDBRANCH  10  11
ENDBRANCH   3   9
TORSDOF 2
