REMARK  Name = *****
REMARK  3 active torsions:
REMARK  status: ('A' for Active; 'I' for Inactive)
REMARK    1  A    between atoms: C_3  and  S_20
REMARK    2  A    between atoms: C_6  and  C_7
REMARK    3  A    between atoms: C_8  and  C_9
REMARK                            x       y       z     vdW  Elec       q    Type
REMARK                         _______ _______ _______ _____ _____    ______ ____
ROOT
ATOM      1  C   UNL     1       2.491   4.943  -0.480  0.00  0.00    +0.000 A 
ATOM      2  C   UNL     1       3.857   5.028  -0.757  0.00  0.00    +0.000 A 
ATOM      3  C   UNL     1       4.480   6.267  -0.869  0.00  0.00    +0.000 A 
ATOM      4  C   UNL     1       3.744   7.433  -0.704  0.00  0.00    +0.000 A 
ATOM      5  C   UNL     1       2.386   7.361  -0.428  0.00  0.00    +0.000 A 
ATOM      6  C   UNL     1       1.762   6.122  -0.316  0.00  0.00    +0.000 A 
ATOM      7  F   UNL     1       0.448   6.073  -0.050  0.00  0.00    +0.000 F 
ATOM      8  F   UNL     1       1.674   8.485  -0.269  0.00  0.00    +0.000 F 
ATOM      9  F   UNL     1       4.345   8.626  -0.812  0.00  0.00    +0.000 F 
ATOM     10  F   UNL     1       5.791   6.335  -1.135  0.00  0.00    +0.000 F 
ATOM     11  F   UNL     1       4.585   3.912  -0.919  0.00  0.00    +0.000 F 
ENDROOT
BRANCH   1  13
ATOM     12  C   UNL     1       1.310   2.602  -0.268  0.00  0.00    +0.000 C 
ATOM     13  C   UNL     1       1.850   3.670  -0.365  0.00  0.00    +0.000 C 
BRANCH  12  19
ATOM     14  C   UNL     1      -0.726   1.257  -0.066  0.00  0.00    +0.000 A 
ATOM     15  C   UNL     1      -1.357   0.014   0.048  0.00  0.00    +0.000 A 
ATOM     16  C   UNL     1      -0.599  -1.160   0.073  0.00  0.00    +0.000 A 
ATOM     17  C   UNL     1       0.795  -1.082  -0.007  0.00  0.00    +0.000 A 
ATOM     18  C   UNL     1       1.426   0.160  -0.122  0.00  0.00    +0.000 A 
ATOM     19  C   UNL     1       0.666   1.330  -0.152  0.00  0.00    +0.000 A 
BRANCH  16  20
ATOM     20  S   UNL     1      -1.386  -2.748   0.229  0.00  0.00    +0.000 S 
ATOM     21  H   UNL     1      -2.734  -2.581   0.288  0.00  0.00    +0.000 HD
ENDBRANCH  16  20
ENDBRANCH  12  19
ENDBRANCH   1  13
TORSDOF 3
