REMARK  Name = *****
REMARK  3 active torsions:
REMARK  status: ('A' for Active; 'I' for Inactive)
REMARK    1  A    between atoms: C_4  and  O_7
REMARK    2  A    between atoms: O_7  and  C_8
REMARK    3  A    between atoms: C_9  and  C_10
REMARK                            x       y       z     vdW  Elec       q    Type
REMARK                         _______ _______ _______ _____ _____    ______ ____
ROOT
ATOM      1  C   UNL     1      -3.575  -0.332   0.408  0.00  0.00    +0.000 C 
ATOM      2  C   UNL     1      -4.890  -0.115   0.261  0.00  0.00    +0.000 C 
ENDROOT
BRANCH   2   3
ATOM      3  C   UNL     1      -5.513   1.127  -0.213  0.00  0.00    +0.000 A 
ATOM      4  C   UNL     1      -5.011   1.846  -1.306  0.00  0.00    +0.000 A 
ATOM      5  C   UNL     1      -5.652   3.007  -1.750  0.00  0.00    +0.000 A 
ATOM      6  C   UNL     1      -6.807   3.447  -1.110  0.00  0.00    +0.000 A 
ATOM      7  C   UNL     1      -7.329   2.735  -0.033  0.00  0.00    +0.000 A 
ATOM      8  C   UNL     1      -6.686   1.575   0.410  0.00  0.00    +0.000 A 
ATOM      9 CL   UNL     1      -7.599   4.873  -1.657  0.00  0.00    +0.000 Cl
ENDBRANCH   2   3
BRANCH   1  10
ATOM     10  O   UNL     1      -2.606   0.610   0.158  0.00  0.00    +0.000 OA
BRANCH  10  14
ATOM     11  C   UNL     1       1.376  -0.548   0.409  0.00  0.00    +0.000 A 
ATOM     12  C   UNL     1       0.548  -1.149  -0.540  0.00  0.00    +0.000 A 
ATOM     13  C   UNL     1      -0.793  -0.776  -0.632  0.00  0.00    +0.000 A 
ATOM     14  C   UNL     1      -1.301   0.189   0.239  0.00  0.00    +0.000 A 
ATOM     15  C   UNL     1      -0.472   0.809   1.172  0.00  0.00    +0.000 A 
ATOM     16  C   UNL     1       0.868   0.433   1.263  0.00  0.00    +0.000 A 
ENDBRANCH  10  14
ENDBRANCH   1  10
TORSDOF 3
