REMARK  Name = *****
REMARK  3 active torsions:
REMARK  status: ('A' for Active; 'I' for Inactive)
REMARK    1  A    between atoms: C_4  and  C_7
REMARK    2  A    between atoms: C_8  and  C_9
REMARK    3  A    between atoms: C_14  and  C_15
REMARK                            x       y       z     vdW  Elec       q    Type
REMARK                         _______ _______ _______ _____ _____    ______ ____
ROOT
ATOM      1  C   UNL     1      -0.853  -0.366   0.028  0.00  0.00    +0.000 C 
ATOM      2  C   UNL     1       0.347  -0.432   0.030  0.00  0.00    +0.000 C 
ENDROOT
BRANCH   1   6
ATOM      3  C   UNL     1      -5.063  -0.040   0.030  0.00  0.00    +0.000 A 
ATOM      4  C   UNL     1      -4.461  -1.284  -0.165  0.00  0.00    +0.000 A 
ATOM      5  C   UNL     1      -3.069  -1.394  -0.166  0.00  0.00    +0.000 A 
ATOM      6  C   UNL     1      -2.278  -0.258   0.028  0.00  0.00    +0.000 A 
ATOM      7  C   UNL     1      -2.883   0.986   0.222  0.00  0.00    +0.000 A 
ATOM      8  C   UNL     1      -4.275   1.094   0.223  0.00  0.00    +0.000 A 
ENDBRANCH   1   6
BRANCH   2   9
ATOM      9  C   UNL     1       1.779  -0.484   0.034  0.00  0.00    +0.000 A 
ATOM     10  C   UNL     1       2.406  -1.736  -0.013  0.00  0.00    +0.000 A 
ATOM     11  C   UNL     1       3.799  -1.829  -0.010  0.00  0.00    +0.000 A 
ATOM     12  C   UNL     1       4.575  -0.672   0.038  0.00  0.00    +0.000 A 
ATOM     13  C   UNL     1       3.958   0.579   0.085  0.00  0.00    +0.000 A 
ATOM     14  C   UNL     1       2.559   0.681   0.083  0.00  0.00    +0.000 A 
BRANCH  14  15
ATOM     15  C   UNL     1       1.959   1.984   0.134  0.00  0.00    +0.000 C 
ATOM     16  N   UNL     1       1.495   3.048   0.176  0.00  0.00    +0.000 NA
ENDBRANCH  14  15
ENDBRANCH   2   9
TORSDOF 3
