REMARK  Name = *****
REMARK  6 active torsions:
REMARK  status: ('A' for Active; 'I' for Inactive)
REMARK    1  A    between atoms: C_1  and  C_2
REMARK    2  A    between atoms: C_5  and  C_8
REMARK    3  A    between atoms: C_8  and  C_9
REMARK    4  A    between atoms: C_8  and  C_16
REMARK    5  A    between atoms: C_9  and  C_10
REMARK    6  A    between atoms: C_16  and  C_18
REMARK                            x       y       z     vdW  Elec       q    Type
REMARK                         _______ _______ _______ _____ _____    ______ ____
ROOT
ATOM      1  C   UNL     1      -3.238   0.090   0.016  0.00  0.00    +0.000 C 
ENDROOT
BRANCH   1   6
ATOM      2  C   UNL     1       2.625   0.185  -0.303  0.00  0.00    +0.000 C 
ATOM      3  C   UNL     1       1.130   0.154  -0.204  0.00  0.00    +0.000 A 
ATOM      4  C   UNL     1       0.495  -0.321   0.944  0.00  0.00    +0.000 A 
ATOM      5  C   UNL     1      -0.902  -0.341   1.031  0.00  0.00    +0.000 A 
ATOM      6  C   UNL     1      -1.706   0.124  -0.020  0.00  0.00    +0.000 A 
ATOM      7  C   UNL     1      -1.052   0.569  -1.182  0.00  0.00    +0.000 A 
ATOM      8  C   UNL     1       0.344   0.591  -1.272  0.00  0.00    +0.000 A 
ENDBRANCH   1   6
BRANCH   1   9
ATOM      9  C   UNL     1      -3.927   1.386  -0.448  0.00  0.00    +0.000 C 
ATOM     10  O   UNL     1      -3.337   2.457  -0.602  0.00  0.00    +0.000 OA
ATOM     11  C   UNL     1      -5.413   1.322  -0.711  0.00  0.00    +0.000 C 
ENDBRANCH   1   9
BRANCH   1  12
ATOM     12  C   UNL     1      -3.904  -0.466   1.302  0.00  0.00    +0.000 C 
BRANCH  12  13
ATOM     13  C   UNL     1      -3.715   0.231   2.636  0.00  0.00    +0.000 A 
ATOM     14  C   UNL     1      -3.433   1.595   2.774  0.00  0.00    +0.000 A 
ATOM     15  C   UNL     1      -3.281   2.168   4.040  0.00  0.00    +0.000 A 
ATOM     16  C   UNL     1      -3.411   1.390   5.186  0.00  0.00    +0.000 A 
ATOM     17  C   UNL     1      -3.701   0.035   5.069  0.00  0.00    +0.000 A 
ATOM     18  C   UNL     1      -3.860  -0.537   3.806  0.00  0.00    +0.000 A 
ENDBRANCH  12  13
ENDBRANCH   1  12
TORSDOF 4
