REMARK  Name = *****
REMARK  3 active torsions:
REMARK  status: ('A' for Active; 'I' for Inactive)
REMARK    1  A    between atoms: C_4  and  C_7
REMARK    2  A    between atoms: C_7  and  S_8
REMARK    3  A    between atoms: S_8  and  C_9
REMARK                            x       y       z     vdW  Elec       q    Type
REMARK                         _______ _______ _______ _____ _____    ______ ____
ROOT
ATOM      1  S   UNL     1      -3.711  -1.407  -0.190  0.00  0.00    +0.000 S 
ENDROOT
BRANCH   1   2
ATOM      2  C   UNL     1      -5.446  -0.978  -0.306  0.00  0.00    +0.000 A 
ATOM      3  C   UNL     1      -6.450  -1.951  -0.360  0.00  0.00    +0.000 A 
ATOM      4  C   UNL     1      -7.782  -1.538  -0.447  0.00  0.00    +0.000 A 
ATOM      5  C   UNL     1      -8.081  -0.181  -0.478  0.00  0.00    +0.000 A 
ATOM      6  C   UNL     1      -7.032   0.716  -0.422  0.00  0.00    +0.000 A 
ATOM      7  N   UNL     1      -5.734   0.350  -0.338  0.00  0.00    +0.000 NA
ATOM      8 BR   UNL     1      -6.121  -3.821  -0.322  0.00  0.00    +0.000 Br
ENDBRANCH   1   2
BRANCH   1   9
ATOM      9  C   UNL     1      -2.949   0.247  -0.160  0.00  0.00    +0.000 C 
BRANCH   9  13
ATOM     10  C   UNL     1       1.343  -0.054   0.186  0.00  0.00    +0.000 A 
ATOM     11  C   UNL     1       0.744  -0.039  -1.072  0.00  0.00    +0.000 A 
ATOM     12  C   UNL     1      -0.643   0.061  -1.186  0.00  0.00    +0.000 A 
ATOM     13  C   UNL     1      -1.447   0.153  -0.040  0.00  0.00    +0.000 A 
ATOM     14  C   UNL     1      -0.833   0.128   1.222  0.00  0.00    +0.000 A 
ATOM     15  C   UNL     1       0.555   0.028   1.333  0.00  0.00    +0.000 A 
ENDBRANCH   9  13
ENDBRANCH   1   9
TORSDOF 3
