REMARK  Name = *****
REMARK  4 active torsions:
REMARK  status: ('A' for Active; 'I' for Inactive)
REMARK    1  A    between atoms: C_1  and  C_2
REMARK    2  A    between atoms: C_4  and  C_8
REMARK    3  A    between atoms: C_8  and  O_10
REMARK    4  A    between atoms: O_10  and  C_11
REMARK                            x       y       z     vdW  Elec       q    Type
REMARK                         _______ _______ _______ _____ _____    ______ ____
ROOT
ATOM      1  C   UNL     1      -1.631   2.331  -0.851  0.00  0.00    +0.000 C 
ATOM      2  O   UNL     1      -2.847   2.455  -0.836  0.00  0.00    +0.000 OA
ENDROOT
BRANCH   1   6
ATOM      3  C   UNL     1       2.573  -0.296   0.159  0.00  0.00    +0.000 C 
ATOM      4  C   UNL     1       1.079  -0.160   0.177  0.00  0.00    +0.000 A 
ATOM      5  C   UNL     1       0.467   0.999  -0.324  0.00  0.00    +0.000 A 
ATOM      6  C   UNL     1      -0.931   1.119  -0.339  0.00  0.00    +0.000 A 
ATOM      7  C   UNL     1      -1.716   0.063   0.144  0.00  0.00    +0.000 A 
ATOM      8  C   UNL     1      -1.113  -1.099   0.627  0.00  0.00    +0.000 A 
ATOM      9  C   UNL     1       0.277  -1.211   0.639  0.00  0.00    +0.000 A 
ENDBRANCH   1   6
BRANCH   1  10
ATOM     10  O   UNL     1      -0.702   3.243  -1.320  0.00  0.00    +0.000 OA
BRANCH  10  11
ATOM     11  C   UNL     1      -1.203   4.435  -1.862  0.00  0.00    +0.000 A 
ATOM     12  C   UNL     1      -2.082   4.435  -2.944  0.00  0.00    +0.000 A 
ATOM     13  C   UNL     1      -2.501   5.651  -3.483  0.00  0.00    +0.000 A 
ATOM     14  C   UNL     1      -2.025   6.852  -2.953  0.00  0.00    +0.000 A 
ATOM     15  C   UNL     1      -1.126   6.842  -1.884  0.00  0.00    +0.000 A 
ATOM     16  C   UNL     1      -0.706   5.629  -1.340  0.00  0.00    +0.000 A 
ENDBRANCH  10  11
ENDBRANCH   1  10
TORSDOF 3
