REMARK  Name = *****
REMARK  4 active torsions:
REMARK  status: ('A' for Active; 'I' for Inactive)
REMARK    1  A    between atoms: C_1  and  C_2
REMARK    2  A    between atoms: C_1  and  N_8
REMARK    3  A    between atoms: N_8  and  C_9
REMARK    4  A    between atoms: C_9  and  C_11
REMARK                            x       y       z     vdW  Elec       q    Type
REMARK                         _______ _______ _______ _____ _____    ______ ____
ROOT
ATOM      1  N   UNL     1       3.143   0.434  -0.943  0.00  0.00    +0.000 N 
ATOM      2  H   UNL     1       2.843   0.166  -1.842  0.00  0.00    +0.000 HD
ENDROOT
BRANCH   1   3
ATOM      3  C   UNL     1       4.046   1.480  -0.868  0.00  0.00    +0.000 C 
ATOM      4  S   UNL     1       4.651   2.117   0.563  0.00  0.00    +0.000 S 
BRANCH   3   5
ATOM      5  C   UNL     1       4.443   2.016  -2.200  0.00  0.00    +0.000 A 
ATOM      6  C   UNL     1       3.449   2.416  -3.102  0.00  0.00    +0.000 A 
ATOM      7  C   UNL     1       3.805   2.902  -4.360  0.00  0.00    +0.000 A 
ATOM      8  C   UNL     1       5.151   2.986  -4.720  0.00  0.00    +0.000 A 
ATOM      9  C   UNL     1       6.143   2.587  -3.824  0.00  0.00    +0.000 A 
ATOM     10  C   UNL     1       5.793   2.101  -2.563  0.00  0.00    +0.000 A 
ENDBRANCH   3   5
ENDBRANCH   1   3
BRANCH   1  11
ATOM     11  C   UNL     1       2.599  -0.307   0.183  0.00  0.00    +0.000 C 
BRANCH  11  12
ATOM     12  C   UNL     1       1.608  -1.336  -0.291  0.00  0.00    +0.000 A 
ATOM     13  C   UNL     1       2.030  -2.635  -0.611  0.00  0.00    +0.000 A 
ATOM     14  C   UNL     1       1.116  -3.579  -1.083  0.00  0.00    +0.000 A 
ATOM     15  C   UNL     1      -0.224  -3.232  -1.248  0.00  0.00    +0.000 A 
ATOM     16  C   UNL     1      -0.651  -1.941  -0.944  0.00  0.00    +0.000 A 
ATOM     17  C   UNL     1       0.260  -0.995  -0.472  0.00  0.00    +0.000 A 
ENDBRANCH  11  12
ENDBRANCH   1  11
TORSDOF 4
