REMARK  Name = *****
REMARK  4 active torsions:
REMARK  status: ('A' for Active; 'I' for Inactive)
REMARK    1  A    between atoms: C_4  and  C_7
REMARK    2  A    between atoms: C_7  and  S_8
REMARK    3  A    between atoms: S_8  and  N_9
REMARK    4  A    between atoms: S_8  and  C_12
REMARK                            x       y       z     vdW  Elec       q    Type
REMARK                         _______ _______ _______ _____ _____    ______ ____
ROOT
ATOM      1  S   UNL     1      -3.675  -1.156  -0.831  0.00  0.00    +0.000 S 
ATOM      2  O   UNL     1      -3.498  -2.269   0.090  0.00  0.00    +0.000 OA
ENDROOT
BRANCH   1   3
ATOM      3  C   UNL     1      -5.438  -0.821  -0.742  0.00  0.00    +0.000 A 
ATOM      4  C   UNL     1      -6.301  -1.894  -0.992  0.00  0.00    +0.000 A 
ATOM      5  C   UNL     1      -7.681  -1.701  -0.939  0.00  0.00    +0.000 A 
ATOM      6  C   UNL     1      -8.195  -0.441  -0.634  0.00  0.00    +0.000 A 
ATOM      7  C   UNL     1      -7.332   0.627  -0.381  0.00  0.00    +0.000 A 
ATOM      8  C   UNL     1      -5.948   0.443  -0.433  0.00  0.00    +0.000 A 
ENDBRANCH   1   3
BRANCH   1   9
ATOM      9  N   UNL     1      -3.340  -1.212  -2.343  0.00  0.00    +0.000 NA
ATOM     10 BR   UNL     1      -3.803   0.145  -3.513  0.00  0.00    +0.000 Br
ENDBRANCH   1   9
BRANCH   1  11
ATOM     11  C   UNL     1      -2.871   0.256  -0.083  0.00  0.00    +0.000 C 
BRANCH  11  15
ATOM     12  C   UNL     1       1.399  -0.349   0.099  0.00  0.00    +0.000 A 
ATOM     13  C   UNL     1       0.844   0.391  -0.943  0.00  0.00    +0.000 A 
ATOM     14  C   UNL     1      -0.537   0.585  -1.005  0.00  0.00    +0.000 A 
ATOM     15  C   UNL     1      -1.379   0.041  -0.024  0.00  0.00    +0.000 A 
ATOM     16  C   UNL     1      -0.807  -0.704   1.018  0.00  0.00    +0.000 A 
ATOM     17  C   UNL     1       0.574  -0.897   1.078  0.00  0.00    +0.000 A 
ENDBRANCH  11  15
ENDBRANCH   1  11
TORSDOF 4
