REMARK  Name = *****
REMARK  3 active torsions:
REMARK  status: ('A' for Active; 'I' for Inactive)
REMARK    1  A    between atoms: C_4  and  N_7
REMARK    2  A    between atoms: N_7  and  P_8
REMARK    3  A    between atoms: P_8  and  C_9
REMARK                            x       y       z     vdW  Elec       q    Type
REMARK                         _______ _______ _______ _____ _____    ______ ____
ROOT
ATOM      1  N   UNL     1      -2.891   0.132  -0.166  0.00  0.00    +0.000 NA
ENDROOT
BRANCH   1   5
ATOM      2  C   UNL     1       1.297  -0.067   0.269  0.00  0.00    +0.000 A 
ATOM      3  C   UNL     1       0.666  -1.028  -0.511  0.00  0.00    +0.000 A 
ATOM      4  C   UNL     1      -0.726  -1.001  -0.679  0.00  0.00    +0.000 A 
ATOM      5  C   UNL     1      -1.543  -0.018  -0.077  0.00  0.00    +0.000 A 
ATOM      6  C   UNL     1      -0.858   0.937   0.703  0.00  0.00    +0.000 A 
ATOM      7  C   UNL     1       0.532   0.920   0.878  0.00  0.00    +0.000 A 
ENDBRANCH   1   5
BRANCH   1   8
ATOM      8  P   UNL     1      -3.770  -0.892  -0.873  0.00  0.00    +0.000 P 
BRANCH   8   9
ATOM      9  C   UNL     1      -5.368  -0.137  -0.722  0.00  0.00    +0.000 A 
ATOM     10  C   UNL     1      -6.433  -0.842  -1.295  0.00  0.00    +0.000 A 
ATOM     11  C   UNL     1      -7.735  -0.333  -1.237  0.00  0.00    +0.000 A 
ATOM     12  C   UNL     1      -7.980   0.884  -0.603  0.00  0.00    +0.000 A 
ATOM     13  C   UNL     1      -6.924   1.590  -0.029  0.00  0.00    +0.000 A 
ATOM     14  C   UNL     1      -5.622   1.081  -0.089  0.00  0.00    +0.000 A 
ENDBRANCH   8   9
ENDBRANCH   1   8
TORSDOF 3
