REMARK  Name = *****
REMARK  3 active torsions:
REMARK  status: ('A' for Active; 'I' for Inactive)
REMARK    1  A    between atoms: C_4  and  N_7
REMARK    2  A    between atoms: N_7  and  C_8
REMARK    3  A    between atoms: C_8  and  C_9
REMARK                            x       y       z     vdW  Elec       q    Type
REMARK                         _______ _______ _______ _____ _____    ______ ____
ROOT
ATOM      1  C   UNL     1      -3.224   1.591  -0.396  0.00  0.00    +0.000 C 
ENDROOT
BRANCH   1   2
ATOM      2  C   UNL     1      -2.397   2.737  -0.790  0.00  0.00    +0.000 A 
ATOM      3  C   UNL     1      -2.589   3.996  -0.201  0.00  0.00    +0.000 A 
ATOM      4  C   UNL     1      -1.795   5.071  -0.629  0.00  0.00    +0.000 A 
ATOM      5  C   UNL     1      -0.839   4.889  -1.635  0.00  0.00    +0.000 A 
ATOM      6  C   UNL     1      -0.677   3.635  -2.219  0.00  0.00    +0.000 A 
ATOM      7  C   UNL     1      -1.456   2.557  -1.810  0.00  0.00    +0.000 A 
ATOM      8 CL   UNL     1       0.491   3.418  -3.462  0.00  0.00    +0.000 Cl
ATOM      9 CL   UNL     1      -1.940   6.657   0.045  0.00  0.00    +0.000 Cl
ATOM     10 CL   UNL     1      -3.764   4.197   1.056  0.00  0.00    +0.000 Cl
ENDBRANCH   1   2
BRANCH   1  11
ATOM     11  N   UNL     1      -2.783   0.500   0.186  0.00  0.00    +0.000 N 
ATOM     12  O   UNL     1      -3.589  -0.456   0.429  0.00  0.00    +0.000 OA
BRANCH  11  16
ATOM     13  C   UNL     1       1.293   0.075   1.210  0.00  0.00    +0.000 A 
ATOM     14  C   UNL     1       0.502   0.998   1.897  0.00  0.00    +0.000 A 
ATOM     15  C   UNL     1      -0.847   1.140   1.573  0.00  0.00    +0.000 A 
ATOM     16  C   UNL     1      -1.387   0.360   0.545  0.00  0.00    +0.000 A 
ATOM     17  C   UNL     1      -0.609  -0.586  -0.128  0.00  0.00    +0.000 A 
ATOM     18  C   UNL     1       0.738  -0.720   0.204  0.00  0.00    +0.000 A 
ENDBRANCH  11  16
ENDBRANCH   1  11
TORSDOF 3
