REMARK  Name = *****
REMARK  4 active torsions:
REMARK  status: ('A' for Active; 'I' for Inactive)
REMARK    1  A    between atoms: C_2  and  C_3
REMARK    2  A    between atoms: C_3  and  N_4
REMARK    3  A    between atoms: C_5  and  C_11
REMARK    4  A    between atoms: C_12  and  C_13
REMARK                            x       y       z     vdW  Elec       q    Type
REMARK                         _______ _______ _______ _____ _____    ______ ____
ROOT
ATOM      1  N   UNL     1       4.499  -0.628   0.552  0.00  0.00    +0.000 NA
ATOM      2  C   UNL     1       5.001   0.553   0.380  0.00  0.00    +0.000 C 
ATOM      3  C   UNL     1       6.483   0.766   0.238  0.00  0.00    +0.000 C 
ATOM      4  C   UNL     1       7.020   0.166  -1.059  0.00  0.00    +0.000 C 
ATOM      5  C   UNL     1       7.268  -1.338  -0.966  0.00  0.00    +0.000 C 
ATOM      6  C   UNL     1       6.018  -2.169  -0.674  0.00  0.00    +0.000 C 
ATOM      7  C   UNL     1       5.374  -1.849   0.669  0.00  0.00    +0.000 C 
ENDROOT
BRANCH   2   8
ATOM      8  C   UNL     1       4.114   1.684   0.316  0.00  0.00    +0.000 C 
ATOM      9  C   UNL     1       3.394   2.644   0.265  0.00  0.00    +0.000 C 
BRANCH   9  10
ATOM     10  C   UNL     1       2.544   3.794   0.206  0.00  0.00    +0.000 A 
ATOM     11  C   UNL     1       1.174   3.641  -0.024  0.00  0.00    +0.000 A 
ATOM     12  C   UNL     1       0.346   4.766  -0.082  0.00  0.00    +0.000 A 
ATOM     13  C   UNL     1       0.890   6.038   0.090  0.00  0.00    +0.000 A 
ATOM     14  C   UNL     1       2.256   6.195   0.319  0.00  0.00    +0.000 A 
ATOM     15  C   UNL     1       3.085   5.071   0.377  0.00  0.00    +0.000 A 
ATOM     16 CL   UNL     1      -0.130   7.420   0.019  0.00  0.00    +0.000 Cl
ENDBRANCH   9  10
ENDBRANCH   2   8
BRANCH   1  17
ATOM     17  C   UNL     1       3.019  -0.902   0.649  0.00  0.00    +0.000 C 
BRANCH  17  19
ATOM     18  C   UNL     1       2.145  -1.951   2.760  0.00  0.00    +0.000 C 
ATOM     19  C   UNL     1       2.568  -0.877   2.078  0.00  0.00    +0.000 C 
ENDBRANCH  17  19
ENDBRANCH   1  17
TORSDOF 4
