REMARK  Name = *****
REMARK  3 active torsions:
REMARK  status: ('A' for Active; 'I' for Inactive)
REMARK    1  A    between atoms: C_7  and  N_8
REMARK    2  A    between atoms: N_8  and  C_9
REMARK    3  A    between atoms: C_9  and  C_10
REMARK                            x       y       z     vdW  Elec       q    Type
REMARK                         _______ _______ _______ _____ _____    ______ ____
ROOT
ATOM      1  N   UNL     1      -0.586  -3.614   0.176  0.00  0.00    +0.000 NA
ENDROOT
BRANCH   1   8
ATOM      2  C   UNL     1      -0.137   1.508   0.271  0.00  0.00    +0.000 C 
ATOM      3  C   UNL     1      -1.233   0.696  -0.412  0.00  0.00    +0.000 C 
ATOM      4  C   UNL     1      -1.179  -0.777   0.007  0.00  0.00    +0.000 C 
ATOM      5  C   UNL     1       0.222  -1.321   0.040  0.00  0.00    +0.000 C 
ATOM      6  C   UNL     1       1.319  -0.546  -0.005  0.00  0.00    +0.000 C 
ATOM      7  C   UNL     1       1.251   0.954  -0.056  0.00  0.00    +0.000 C 
ATOM      8  C   UNL     1       0.404  -2.793   0.113  0.00  0.00    +0.000 C 
ENDBRANCH   1   8
BRANCH   1   9
ATOM      9  C   UNL     1      -0.169  -5.021   0.246  0.00  0.00    +0.000 C 
BRANCH   9  10
ATOM     10  C   UNL     1      -1.341  -5.976   0.299  0.00  0.00    +0.000 A 
ATOM     11  C   UNL     1      -1.225  -7.260  -0.255  0.00  0.00    +0.000 A 
ATOM     12  C   UNL     1      -2.283  -8.168  -0.177  0.00  0.00    +0.000 A 
ATOM     13  C   UNL     1      -3.466  -7.807   0.465  0.00  0.00    +0.000 A 
ATOM     14  C   UNL     1      -3.590  -6.541   1.033  0.00  0.00    +0.000 A 
ATOM     15  C   UNL     1      -2.531  -5.634   0.955  0.00  0.00    +0.000 A 
ENDBRANCH   9  10
ENDBRANCH   1   9
TORSDOF 3
