REMARK  Name = *****
REMARK  1 active torsions:
REMARK  status: ('A' for Active; 'I' for Inactive)
REMARK    1  A    between atoms: C_4  and  C_7
REMARK                            x       y       z     vdW  Elec       q    Type
REMARK                         _______ _______ _______ _____ _____    ______ ____
ROOT
ATOM      1  C   UNL     1      -3.093  -0.923  -0.485  0.00  0.00    +0.000 A 
ATOM      2  C   UNL     1      -3.933  -1.794   0.210  0.00  0.00    +0.000 A 
ATOM      3  C   UNL     1      -5.273  -1.983  -0.220  0.00  0.00    +0.000 A 
ATOM      4  C   UNL     1      -5.695  -1.254  -1.346  0.00  0.00    +0.000 A 
ATOM      5  C   UNL     1      -7.005  -1.415  -1.796  0.00  0.00    +0.000 A 
ATOM      6  C   UNL     1      -7.913  -2.267  -1.173  0.00  0.00    +0.000 A 
ATOM      7  C   UNL     1      -7.513  -2.991  -0.061  0.00  0.00    +0.000 A 
ATOM      8  C   UNL     1      -6.208  -2.850   0.411  0.00  0.00    +0.000 A 
ATOM      9  F   UNL     1      -7.430  -0.729  -2.870  0.00  0.00    +0.000 F 
ATOM     10  N   UNL     1      -4.857  -0.417  -1.976  0.00  0.00    +0.000 NA
ATOM     11  N   UNL     1      -3.561  -0.245  -1.553  0.00  0.00    +0.000 NA
ATOM     12 CL   UNL     1      -3.355  -2.617   1.632  0.00  0.00    +0.000 Cl
ENDROOT
BRANCH   1  16
ATOM     13  C   UNL     1       1.004  -0.063   0.449  0.00  0.00    +0.000 A 
ATOM     14  C   UNL     1       0.623  -1.366   0.141  0.00  0.00    +0.000 A 
ATOM     15  C   UNL     1      -0.711  -1.652  -0.164  0.00  0.00    +0.000 A 
ATOM     16  C   UNL     1      -1.688  -0.641  -0.158  0.00  0.00    +0.000 A 
ATOM     17  C   UNL     1      -1.277   0.670   0.140  0.00  0.00    +0.000 A 
ATOM     18  C   UNL     1       0.056   0.957   0.445  0.00  0.00    +0.000 A 
ENDBRANCH   1  16
TORSDOF 1
