REMARK  Name = *****
REMARK  2 active torsions:
REMARK  status: ('A' for Active; 'I' for Inactive)
REMARK    1  A    between atoms: C_1  and  C_2
REMARK    2  A    between atoms: C_2  and  C_8
REMARK                            x       y       z     vdW  Elec       q    Type
REMARK                         _______ _______ _______ _____ _____    ______ ____
ROOT
ATOM      1  C   UNL     1       3.082   0.321   1.384  0.00  0.00    +0.000 A 
ATOM      2  C   UNL     1       2.269   0.687   2.474  0.00  0.00    +0.000 A 
ATOM      3  C   UNL     1       2.808   1.067   3.721  0.00  0.00    +0.000 A 
ATOM      4  C   UNL     1       1.981   1.430   4.798  0.00  0.00    +0.000 A 
ATOM      5  C   UNL     1       2.528   1.808   6.025  0.00  0.00    +0.000 A 
ATOM      6  C   UNL     1       3.909   1.829   6.193  0.00  0.00    +0.000 A 
ATOM      7  C   UNL     1       4.744   1.469   5.135  0.00  0.00    +0.000 A 
ATOM      8  C   UNL     1       4.206   1.085   3.895  0.00  0.00    +0.000 A 
ATOM      9  C   UNL     1       5.028   0.716   2.824  0.00  0.00    +0.000 A 
ATOM     10  C   UNL     1       4.475   0.339   1.596  0.00  0.00    +0.000 A 
ENDROOT
BRANCH   1  12
ATOM     11  C   UNL     1       0.961  -0.079  -0.023  0.00  0.00    +0.000 C 
ATOM     12  C   UNL     1       2.507  -0.074   0.002  0.00  0.00    +0.000 C 
ATOM     13  C   UNL     1       3.046   0.913  -1.069  0.00  0.00    +0.000 C 
ATOM     14  C   UNL     1       2.682   0.593  -2.518  0.00  0.00    +0.000 C 
ATOM     15  C   UNL     1       3.182  -0.776  -2.964  0.00  0.00    +0.000 C 
ATOM     16  C   UNL     1       2.609  -1.922  -2.145  0.00  0.00    +0.000 C 
ATOM     17  S   UNL     1       3.054  -1.811  -0.389  0.00  0.00    +0.000 S 
ENDBRANCH   1  12
TORSDOF 1
