REMARK  Name = *****
REMARK  4 active torsions:
REMARK  status: ('A' for Active; 'I' for Inactive)
REMARK    1  A    between atoms: C_1  and  C_2
REMARK    2  A    between atoms: C_4  and  S_8
REMARK    3  A    between atoms: S_8  and  C_10
REMARK    4  A    between atoms: C_10  and  C_11
REMARK                            x       y       z     vdW  Elec       q    Type
REMARK                         _______ _______ _______ _____ _____    ______ ____
ROOT
ATOM      1  S   UNL     1      -1.826   2.834  -0.628  0.00  0.00    +0.000 S 
ATOM      2  O   UNL     1      -3.212   2.698  -0.061  0.00  0.00    +0.000 OA
ENDROOT
BRANCH   1   6
ATOM      3  C   UNL     1       2.152  -0.567  -1.418  0.00  0.00    +0.000 C 
ATOM      4  C   UNL     1       0.853  -0.261  -0.732  0.00  0.00    +0.000 A 
ATOM      5  C   UNL     1       0.204   0.962  -0.952  0.00  0.00    +0.000 A 
ATOM      6  C   UNL     1      -1.024   1.239  -0.337  0.00  0.00    +0.000 A 
ATOM      7  C   UNL     1      -1.619   0.273   0.480  0.00  0.00    +0.000 A 
ATOM      8  C   UNL     1      -0.988  -0.952   0.690  0.00  0.00    +0.000 A 
ATOM      9  C   UNL     1       0.241  -1.219   0.085  0.00  0.00    +0.000 A 
ENDBRANCH   1   6
BRANCH   1  10
ATOM     10  C   UNL     1      -0.831   3.794   0.566  0.00  0.00    +0.000 C 
BRANCH  10  11
ATOM     11  C   UNL     1      -1.121   5.271   0.480  0.00  0.00    +0.000 A 
ATOM     12  C   UNL     1      -2.285   5.800   1.055  0.00  0.00    +0.000 A 
ATOM     13  C   UNL     1      -2.559   7.166   0.971  0.00  0.00    +0.000 A 
ATOM     14  C   UNL     1      -1.676   8.016   0.310  0.00  0.00    +0.000 A 
ATOM     15  C   UNL     1      -0.518   7.501  -0.271  0.00  0.00    +0.000 A 
ATOM     16  C   UNL     1      -0.242   6.135  -0.189  0.00  0.00    +0.000 A 
ENDBRANCH  10  11
ENDBRANCH   1  10
TORSDOF 3
