REMARK  Name = *****
REMARK  3 active torsions:
REMARK  status: ('A' for Active; 'I' for Inactive)
REMARK    1  A    between atoms: C_7  and  S_8
REMARK    2  A    between atoms: S_8  and  C_9
REMARK    3  A    between atoms: C_9  and  C_11
REMARK                            x       y       z     vdW  Elec       q    Type
REMARK                         _______ _______ _______ _____ _____    ______ ____
ROOT
ATOM      1  S   UNL     1      -1.054  -2.908  -0.125  0.00  0.00    +0.000 S 
ENDROOT
BRANCH   1   8
ATOM      2  C   UNL     1       0.428   1.195   0.663  0.00  0.00    +0.000 C 
ATOM      3  C   UNL     1       1.153   0.202  -0.285  0.00  0.00    +0.000 C 
ATOM      4  C   UNL     1      -0.008  -0.397  -1.109  0.00  0.00    +0.000 C 
ATOM      5  C   UNL     1      -0.916   0.830  -1.259  0.00  0.00    +0.000 C 
ATOM      6  C   UNL     1      -1.050   1.041   0.252  0.00  0.00    +0.000 C 
ATOM      7  C   UNL     1      -1.501  -0.347   0.644  0.00  0.00    +0.000 C 
ATOM      8  C   UNL     1      -0.873  -1.211  -0.168  0.00  0.00    +0.000 C 
ENDBRANCH   1   8
BRANCH   1   9
ATOM      9  C   UNL     1       0.247  -3.490  -1.158  0.00  0.00    +0.000 C 
ATOM     10  O   UNL     1       1.403  -3.120  -0.984  0.00  0.00    +0.000 OA
BRANCH   9  11
ATOM     11  C   UNL     1      -0.086  -4.452  -2.253  0.00  0.00    +0.000 A 
ATOM     12  C   UNL     1      -1.372  -4.968  -2.477  0.00  0.00    +0.000 A 
ATOM     13  C   UNL     1      -1.605  -5.856  -3.532  0.00  0.00    +0.000 A 
ATOM     14  C   UNL     1      -0.560  -6.238  -4.372  0.00  0.00    +0.000 A 
ATOM     15  C   UNL     1       0.721  -5.736  -4.159  0.00  0.00    +0.000 A 
ATOM     16  C   UNL     1       0.957  -4.849  -3.106  0.00  0.00    +0.000 A 
ENDBRANCH   9  11
ENDBRANCH   1   9
TORSDOF 3
