REMARK  Name = *****
REMARK  4 active torsions:
REMARK  status: ('A' for Active; 'I' for Inactive)
REMARK    1  A    between atoms: C_1  and  C_2
REMARK    2  A    between atoms: C_5  and  S_8
REMARK    3  A    between atoms: S_8  and  N_10
REMARK    4  A    between atoms: C_12  and  C_13
REMARK                            x       y       z     vdW  Elec       q    Type
REMARK                         _______ _______ _______ _____ _____    ______ ____
ROOT
ATOM      1  S   UNL     1      -4.033  -0.218   0.687  0.00  0.00    +0.000 S 
ATOM      2  O   UNL     1      -3.830  -1.458  -0.133  0.00  0.00    +0.000 OA
ENDROOT
BRANCH   1   7
ATOM      3  C   UNL     1       1.533   2.054   1.863  0.00  0.00    +0.000 C 
ATOM      4  C   UNL     1       0.169   1.518   1.544  0.00  0.00    +0.000 A 
ATOM      5  C   UNL     1      -0.965   2.054   2.164  0.00  0.00    +0.000 A 
ATOM      6  C   UNL     1      -2.233   1.533   1.894  0.00  0.00    +0.000 A 
ATOM      7  C   UNL     1      -2.384   0.464   1.001  0.00  0.00    +0.000 A 
ATOM      8  C   UNL     1      -1.250  -0.086   0.397  0.00  0.00    +0.000 A 
ATOM      9  C   UNL     1       0.018   0.435   0.669  0.00  0.00    +0.000 A 
ENDBRANCH   1   7
BRANCH   1  10
ATOM     10  N   UNL     1      -4.492   1.105  -0.222  0.00  0.00    +0.000 NA
ATOM     11  C   UNL     1      -5.348   0.934  -1.389  0.00  0.00    +0.000 C 
ATOM     12  C   UNL     1      -5.869   1.602  -0.137  0.00  0.00    +0.000 C 
BRANCH  12  13
ATOM     13  C   UNL     1      -6.113   3.094  -0.148  0.00  0.00    +0.000 A 
ATOM     14  C   UNL     1      -7.398   3.592  -0.426  0.00  0.00    +0.000 A 
ATOM     15  C   UNL     1      -7.668   4.964  -0.434  0.00  0.00    +0.000 A 
ATOM     16  C   UNL     1      -6.651   5.874  -0.164  0.00  0.00    +0.000 A 
ATOM     17  C   UNL     1      -5.369   5.412   0.113  0.00  0.00    +0.000 A 
ATOM     18  C   UNL     1      -5.107   4.039   0.123  0.00  0.00    +0.000 A 
ENDBRANCH  12  13
ENDBRANCH   1  10
TORSDOF 3
