REMARK  Name = *****
REMARK  1 active torsions:
REMARK  status: ('A' for Active; 'I' for Inactive)
REMARK    1  A    between atoms: C_9  and  C_11
REMARK                            x       y       z     vdW  Elec       q    Type
REMARK                         _______ _______ _______ _____ _____    ______ ____
ROOT
ATOM      1  C   UNL     1      -1.196   1.402   0.150  0.00  0.00    +0.000 C 
ATOM      2  C   UNL     1       0.116   0.697   0.069  0.00  0.00    +0.000 A 
ATOM      3  C   UNL     1       1.328   1.402   0.077  0.00  0.00    +0.000 A 
ATOM      4  C   UNL     1       2.539   0.712   0.019  0.00  0.00    +0.000 A 
ATOM      5  C   UNL     1       2.541  -0.680  -0.040  0.00  0.00    +0.000 A 
ATOM      6  C   UNL     1       1.332  -1.377  -0.041  0.00  0.00    +0.000 A 
ATOM      7  C   UNL     1       0.116  -0.693   0.014  0.00  0.00    +0.000 A 
ATOM      8  N   UNL     1      -1.073  -1.419   0.002  0.00  0.00    +0.000 NA
ATOM      9  C   UNL     1      -2.195  -0.779  -0.045  0.00  0.00    +0.000 C 
ATOM     10  O   UNL     1      -2.347   0.565  -0.049  0.00  0.00    +0.000 OA
ENDROOT
BRANCH   9  11
ATOM     11  C   UNL     1      -3.513  -1.464  -0.098  0.00  0.00    +0.000 A 
ATOM     12  C   UNL     1      -3.563  -2.852   0.093  0.00  0.00    +0.000 A 
ATOM     13  C   UNL     1      -4.783  -3.529   0.046  0.00  0.00    +0.000 A 
ATOM     14  C   UNL     1      -5.962  -2.825  -0.195  0.00  0.00    +0.000 A 
ATOM     15  C   UNL     1      -5.923  -1.445  -0.389  0.00  0.00    +0.000 A 
ATOM     16  C   UNL     1      -4.704  -0.764  -0.341  0.00  0.00    +0.000 A 
ENDBRANCH   9  11
TORSDOF 1
