REMARK  Name = *****
REMARK  5 active torsions:
REMARK  status: ('A' for Active; 'I' for Inactive)
REMARK    1  A    between atoms: C_1  and  C_2
REMARK    2  A    between atoms: C_2  and  C_3
REMARK    3  A    between atoms: C_2  and  N_9
REMARK    4  A    between atoms: N_9  and  C_10
REMARK    5  A    between atoms: C_10  and  C_11
REMARK                            x       y       z     vdW  Elec       q    Type
REMARK                         _______ _______ _______ _____ _____    ______ ____
ROOT
ATOM      1  C   UNL     1       0.872   0.200  -0.008  0.00  0.00    +0.000 C 
ATOM      2  C   UNL     1       2.393   0.040   0.013  0.00  0.00    +0.000 C 
ENDROOT
BRANCH   2   3
ATOM      3  C   UNL     1       3.064   1.399  -0.083  0.00  0.00    +0.000 A 
ATOM      4  C   UNL     1       3.196   2.225   1.045  0.00  0.00    +0.000 A 
ATOM      5  C   UNL     1       3.801   3.478   0.943  0.00  0.00    +0.000 A 
ATOM      6  C   UNL     1       4.277   3.925  -0.288  0.00  0.00    +0.000 A 
ATOM      7  C   UNL     1       4.146   3.119  -1.418  0.00  0.00    +0.000 A 
ATOM      8  C   UNL     1       3.542   1.864  -1.317  0.00  0.00    +0.000 A 
ENDBRANCH   2   3
BRANCH   2   9
ATOM      9  N   UNL     1       2.744  -0.694   1.243  0.00  0.00    +0.000 NA
BRANCH   9  10
ATOM     10  C   UNL     1       3.922  -1.219   1.218  0.00  0.00    +0.000 C 
BRANCH  10  11
ATOM     11  C   UNL     1       4.411  -1.969   2.348  0.00  0.00    +0.000 A 
ATOM     12  C   UNL     1       3.794  -2.213   3.559  0.00  0.00    +0.000 A 
ATOM     13  C   UNL     1       4.601  -3.004   4.427  0.00  0.00    +0.000 A 
ATOM     14  C   UNL     1       5.806  -3.337   3.848  0.00  0.00    +0.000 A 
ATOM     15  S   UNL     1       5.958  -2.693   2.269  0.00  0.00    +0.000 S 
ENDBRANCH  10  11
ENDBRANCH   9  10
ENDBRANCH   2   9
TORSDOF 4
