REMARK  Name = *****
REMARK  3 active torsions:
REMARK  status: ('A' for Active; 'I' for Inactive)
REMARK    1  A    between atoms: C_3  and  N_4
REMARK    2  A    between atoms: N_4  and  C_5
REMARK    3  A    between atoms: C_11  and  C_13
REMARK                            x       y       z     vdW  Elec       q    Type
REMARK                         _______ _______ _______ _____ _____    ______ ____
ROOT
ATOM      1  N   UNL     1      -1.517  -0.857  -1.179  0.00  0.00    +0.000 N 
ATOM      2  C   UNL     1      -2.894  -0.542  -1.272  0.00  0.00    +0.000 C 
ATOM      3  O   UNL     1      -3.616  -0.617  -2.264  0.00  0.00    +0.000 OA
ENDROOT
BRANCH   2   4
ATOM      4  C   UNL     1      -3.571  -0.016  -0.062  0.00  0.00    +0.000 A 
ATOM      5  C   UNL     1      -3.173   1.203   0.502  0.00  0.00    +0.000 A 
ATOM      6  C   UNL     1      -3.845   1.697   1.621  0.00  0.00    +0.000 A 
ATOM      7  C   UNL     1      -4.917   0.981   2.149  0.00  0.00    +0.000 A 
ATOM      8  C   UNL     1      -5.338  -0.215   1.575  0.00  0.00    +0.000 A 
ATOM      9  C   UNL     1      -4.670  -0.714   0.457  0.00  0.00    +0.000 A 
ATOM     10  F   UNL     1      -5.560   1.459   3.222  0.00  0.00    +0.000 F 
ENDBRANCH   2   4
BRANCH   1  11
ATOM     11  C   UNL     1      -0.720  -1.120  -2.359  0.00  0.00    +0.000 A 
ATOM     12  C   UNL     1      -1.278  -1.520  -3.581  0.00  0.00    +0.000 A 
ATOM     13  C   UNL     1      -0.479  -1.763  -4.707  0.00  0.00    +0.000 A 
ATOM     14  C   UNL     1       0.900  -1.610  -4.636  0.00  0.00    +0.000 A 
ATOM     15  C   UNL     1       1.482  -1.215  -3.438  0.00  0.00    +0.000 A 
ATOM     16  C   UNL     1       0.680  -0.975  -2.315  0.00  0.00    +0.000 A 
ENDBRANCH   1  11
BRANCH   1  19
ATOM     17  C   UNL     1      -0.042  -2.073   0.585  0.00  0.00    +0.000 C 
ATOM     18  C   UNL     1      -1.326  -1.732   1.263  0.00  0.00    +0.000 C 
ATOM     19  C   UNL     1      -0.840  -0.872   0.115  0.00  0.00    +0.000 C 
ENDBRANCH   1  19
TORSDOF 3
