REMARK  Name = *****
REMARK  3 active torsions:
REMARK  status: ('A' for Active; 'I' for Inactive)
REMARK    1  A    between atoms: C_4  and  S_7
REMARK    2  A    between atoms: S_7  and  C_8
REMARK    3  A    between atoms: C_8  and  C_10
REMARK                            x       y       z     vdW  Elec       q    Type
REMARK                         _______ _______ _______ _____ _____    ______ ____
ROOT
ATOM      1  S   UNL     1       2.902  -0.825  -0.972  0.00  0.00    +0.000 S 
ENDROOT
BRANCH   1   5
ATOM      2  C   UNL     1      -1.432   0.460   0.041  0.00  0.00    +0.000 C 
ATOM      3  C   UNL     1      -1.094  -1.023   0.157  0.00  0.00    +0.000 C 
ATOM      4  C   UNL     1       0.218  -1.360  -0.552  0.00  0.00    +0.000 C 
ATOM      5  C   UNL     1       1.370  -0.488  -0.035  0.00  0.00    +0.000 C 
ATOM      6  C   UNL     1       1.026   1.002  -0.174  0.00  0.00    +0.000 C 
ATOM      7  C   UNL     1      -0.286   1.337   0.535  0.00  0.00    +0.000 C 
ENDBRANCH   1   5
BRANCH   1   8
ATOM      8  C   UNL     1       3.345  -2.386  -0.302  0.00  0.00    +0.000 C 
ATOM      9  O   UNL     1       2.878  -2.805   0.750  0.00  0.00    +0.000 OA
BRANCH   8  10
ATOM     10  C   UNL     1       4.332  -3.181  -1.076  0.00  0.00    +0.000 C 
ATOM     11  C   UNL     1       4.917  -2.913  -2.253  0.00  0.00    +0.000 C 
ATOM     12  C   UNL     1       5.833  -4.012  -2.680  0.00  0.00    +0.000 C 
ATOM     13  C   UNL     1       5.987  -4.839  -1.407  0.00  0.00    +0.000 C 
ATOM     14  C   UNL     1       4.775  -4.507  -0.538  0.00  0.00    +0.000 C 
ENDBRANCH   8  10
ENDBRANCH   1   8
TORSDOF 3
