REMARK  Name = *****
REMARK  1 active torsions:
REMARK  status: ('A' for Active; 'I' for Inactive)
REMARK    1  A    between atoms: C_4  and  N_7
REMARK                            x       y       z     vdW  Elec       q    Type
REMARK                         _______ _______ _______ _____ _____    ______ ____
ROOT
ATOM      1  N   UNL     1      -3.222  -0.113  -0.576  0.00  0.00    +0.000 N 
ATOM      2  C   UNL     1      -4.180   0.699  -1.165  0.00  0.00    +0.000 C 
ATOM      3  C   UNL     1      -5.541   0.369  -0.853  0.00  0.00    +0.000 C 
ATOM      4  C   UNL     1      -6.774   0.935  -1.241  0.00  0.00    +0.000 C 
ATOM      5  C   UNL     1      -7.968   0.383  -0.766  0.00  0.00    +0.000 C 
ATOM      6  C   UNL     1      -7.952  -0.716   0.085  0.00  0.00    +0.000 C 
ATOM      7  C   UNL     1      -6.746  -1.296   0.485  0.00  0.00    +0.000 C 
ATOM      8  C   UNL     1      -5.545  -0.743   0.008  0.00  0.00    +0.000 C 
ATOM      9  S   UNL     1      -3.912  -1.279   0.351  0.00  0.00    +0.000 S 
ENDROOT
BRANCH   1  13
ATOM     10  C   UNL     1       1.002   0.307  -1.066  0.00  0.00    +0.000 A 
ATOM     11  C   UNL     1       0.138   1.255  -1.610  0.00  0.00    +0.000 A 
ATOM     12  C   UNL     1      -1.245   1.121  -1.451  0.00  0.00    +0.000 A 
ATOM     13  C   UNL     1      -1.763   0.031  -0.742  0.00  0.00    +0.000 A 
ATOM     14  C   UNL     1      -0.891  -0.919  -0.194  0.00  0.00    +0.000 A 
ATOM     15  C   UNL     1       0.490  -0.777  -0.359  0.00  0.00    +0.000 A 
ENDBRANCH   1  13
TORSDOF 1
