REMARK  Name = *****
REMARK  2 active torsions:
REMARK  status: ('A' for Active; 'I' for Inactive)
REMARK    1  A    between atoms: C_4  and  C_7
REMARK    2  A    between atoms: C_8  and  C_9
REMARK                            x       y       z     vdW  Elec       q    Type
REMARK                         _______ _______ _______ _____ _____    ______ ____
ROOT
ATOM      1  C   UNL     1      -0.201   1.041   2.164  0.00  0.00    +0.000 C 
ATOM      2  C   UNL     1      -0.265   2.027   3.080  0.00  0.00    +0.000 C 
ATOM      3 CL   UNL     1      -0.243   3.700   2.600  0.00  0.00    +0.000 Cl
ENDROOT
BRANCH   1   7
ATOM      4  C   UNL     1       0.105  -1.807  -0.417  0.00  0.00    +0.000 C 
ATOM      5  C   UNL     1       1.305  -1.209   0.300  0.00  0.00    +0.000 C 
ATOM      6  S   UNL     1       1.473   0.577   0.041  0.00  0.00    +0.000 S 
ATOM      7  C   UNL     1      -0.115   1.180   0.673  0.00  0.00    +0.000 C 
ATOM      8  S   UNL     1      -1.547   0.424  -0.143  0.00  0.00    +0.000 S 
ATOM      9  C   UNL     1      -1.231  -1.340   0.138  0.00  0.00    +0.000 C 
ENDBRANCH   1   7
BRANCH   2  10
ATOM     10  C   UNL     1      -0.357   1.787   4.496  0.00  0.00    +0.000 A 
ATOM     11  C   UNL     1      -1.183   0.830   5.054  0.00  0.00    +0.000 A 
ATOM     12  S   UNL     1      -1.069   0.779   6.762  0.00  0.00    +0.000 S 
ATOM     13  C   UNL     1       0.079   2.045   6.777  0.00  0.00    +0.000 A 
ATOM     14  C   UNL     1       0.371   2.493   5.507  0.00  0.00    +0.000 A 
ENDBRANCH   2  10
TORSDOF 2
