REMARK  Name = *****
REMARK  4 active torsions:
REMARK  status: ('A' for Active; 'I' for Inactive)
REMARK    1  A    between atoms: C_6  and  N_7
REMARK    2  A    between atoms: N_7  and  O_18
REMARK    3  A    between atoms: C_8  and  O_10
REMARK    4  A    between atoms: O_10  and  C_11
REMARK                            x       y       z     vdW  Elec       q    Type
REMARK                         _______ _______ _______ _____ _____    ______ ____
ROOT
ATOM      1  N   UNL     1       3.626  -0.018  -0.212  0.00  0.00    +0.000 N 
ATOM      2  C   UNL     1       4.496  -1.078  -0.448  0.00  0.00    +0.000 C 
ATOM      3  O   UNL     1       5.721  -1.049  -0.400  0.00  0.00    +0.000 OA
ENDROOT
BRANCH   1   9
ATOM      4  C   UNL     1       2.924   2.264   0.322  0.00  0.00    +0.000 A 
ATOM      5  C   UNL     1       3.205   3.595   0.653  0.00  0.00    +0.000 A 
ATOM      6  C   UNL     1       4.525   4.007   0.792  0.00  0.00    +0.000 A 
ATOM      7  C   UNL     1       5.561   3.099   0.602  0.00  0.00    +0.000 A 
ATOM      8  C   UNL     1       5.275   1.767   0.271  0.00  0.00    +0.000 A 
ATOM      9  C   UNL     1       3.952   1.324   0.124  0.00  0.00    +0.000 A 
ATOM     10 CL   UNL     1       4.877   5.640   1.198  0.00  0.00    +0.000 Cl
ENDBRANCH   1   9
BRANCH   1  11
ATOM     11  O   UNL     1       2.233  -0.281  -0.326  0.00  0.00    +0.000 OA
ATOM     12  H   UNL     1       1.734   0.530  -0.140  0.00  0.00    +0.000 HD
ENDBRANCH   1  11
BRANCH   2  13
ATOM     13  O   UNL     1       3.769  -2.237  -0.762  0.00  0.00    +0.000 OA
BRANCH  13  14
ATOM     14  C   UNL     1       4.547  -3.365  -1.041  0.00  0.00    +0.000 A 
ATOM     15  C   UNL     1       4.593  -4.386  -0.094  0.00  0.00    +0.000 A 
ATOM     16  C   UNL     1       5.323  -5.542  -0.376  0.00  0.00    +0.000 A 
ATOM     17  C   UNL     1       5.981  -5.665  -1.602  0.00  0.00    +0.000 A 
ATOM     18  C   UNL     1       5.912  -4.644  -2.552  0.00  0.00    +0.000 A 
ATOM     19  C   UNL     1       5.184  -3.487  -2.276  0.00  0.00    +0.000 A 
ATOM     20 CL   UNL     1       6.877  -7.093  -1.948  0.00  0.00    +0.000 Cl
ENDBRANCH  13  14
ENDBRANCH   2  13
TORSDOF 4
