REMARK  Name = *****
REMARK  5 active torsions:
REMARK  status: ('A' for Active; 'I' for Inactive)
REMARK    1  A    between atoms: C_1  and  C_2
REMARK    2  A    between atoms: C_4  and  C_17
REMARK    3  A    between atoms: C_7  and  C_8
REMARK    4  A    between atoms: C_9  and  C_10
REMARK    5  A    between atoms: C_10  and  C_11
REMARK                            x       y       z     vdW  Elec       q    Type
REMARK                         _______ _______ _______ _____ _____    ______ ____
ROOT
ATOM      1  C   UNL     1       1.895  -1.818   0.796  0.00  0.00    +0.000 C 
ATOM      2  C   UNL     1       1.370  -2.989   0.397  0.00  0.00    +0.000 C 
ENDROOT
BRANCH   1   9
ATOM      3  C   UNL     1       1.289   0.419  -1.066  0.00  0.00    +0.000 C 
ATOM      4  C   UNL     1       2.663   0.335  -0.392  0.00  0.00    +0.000 C 
ATOM      5  C   UNL     1       2.787   1.359   0.715  0.00  0.00    +0.000 C 
ATOM      6  C   UNL     1       3.443   1.140   1.869  0.00  0.00    +0.000 C 
ATOM      7  C   UNL     1       4.148  -0.163   2.158  0.00  0.00    +0.000 C 
ATOM      8  C   UNL     1       4.289  -1.073   0.933  0.00  0.00    +0.000 C 
ATOM      9  C   UNL     1       3.020  -1.108   0.066  0.00  0.00    +0.000 C 
ATOM     10  C   UNL     1       3.523   2.180   2.948  0.00  0.00    +0.000 C 
ENDBRANCH   1   9
BRANCH   2  11
ATOM     11  C   UNL     1       0.238  -3.688   1.096  0.00  0.00    +0.000 C 
BRANCH  11  12
ATOM     12  C   UNL     1      -0.964  -3.860   0.197  0.00  0.00    +0.000 A 
ATOM     13  C   UNL     1      -1.155  -5.049  -0.520  0.00  0.00    +0.000 A 
ATOM     14  C   UNL     1      -2.257  -5.196  -1.365  0.00  0.00    +0.000 A 
ATOM     15  C   UNL     1      -3.173  -4.156  -1.505  0.00  0.00    +0.000 A 
ATOM     16  C   UNL     1      -2.988  -2.966  -0.803  0.00  0.00    +0.000 A 
ATOM     17  C   UNL     1      -1.887  -2.816   0.041  0.00  0.00    +0.000 A 
ENDBRANCH  11  12
ENDBRANCH   2  11
TORSDOF 3
