REMARK  Name = *****
REMARK  6 active torsions:
REMARK  status: ('A' for Active; 'I' for Inactive)
REMARK    1  A    between atoms: C_1  and  C_2
REMARK    2  A    between atoms: C_5  and  C_8
REMARK    3  A    between atoms: C_8  and  O_9
REMARK    4  A    between atoms: O_9  and  C_10
REMARK    5  A    between atoms: C_10  and  C_12
REMARK    6  A    between atoms: C_15  and  C_18
REMARK                            x       y       z     vdW  Elec       q    Type
REMARK                         _______ _______ _______ _____ _____    ______ ____
ROOT
ATOM      1  O   UNL     1      -3.845   1.288   0.296  0.00  0.00    +0.000 OA
ENDROOT
BRANCH   1   2
ATOM      2  C   UNL     1      -5.021   1.624  -0.286  0.00  0.00    +0.000 C 
ATOM      3  O   UNL     1      -5.646   0.953  -1.093  0.00  0.00    +0.000 OA
BRANCH   2   4
ATOM      4  C   UNL     1      -5.483   2.951   0.206  0.00  0.00    +0.000 A 
ATOM      5  C   UNL     1      -6.757   3.391  -0.175  0.00  0.00    +0.000 A 
ATOM      6  C   UNL     1      -7.235   4.630   0.260  0.00  0.00    +0.000 A 
ATOM      7  C   UNL     1      -6.442   5.452   1.069  0.00  0.00    +0.000 A 
ATOM      8  C   UNL     1      -5.173   5.006   1.458  0.00  0.00    +0.000 A 
ATOM      9  C   UNL     1      -4.692   3.766   1.025  0.00  0.00    +0.000 A 
ATOM     10  C   UNL     1      -6.968   6.767   1.564  0.00  0.00    +0.000 C 
ENDBRANCH   2   4
ENDBRANCH   1   2
BRANCH   1  11
ATOM     11  C   UNL     1      -3.271   0.046  -0.127  0.00  0.00    +0.000 C 
BRANCH  11  16
ATOM     12  C   UNL     1       0.958   1.222  -3.953  0.00  0.00    +0.000 C 
ATOM     13  C   UNL     1      -0.122   0.885  -2.969  0.00  0.00    +0.000 A 
ATOM     14  C   UNL     1       0.146   0.881  -1.596  0.00  0.00    +0.000 A 
ATOM     15  C   UNL     1      -0.868   0.602  -0.676  0.00  0.00    +0.000 A 
ATOM     16  C   UNL     1      -2.169   0.324  -1.115  0.00  0.00    +0.000 A 
ATOM     17  C   UNL     1      -2.442   0.356  -2.489  0.00  0.00    +0.000 A 
ATOM     18  C   UNL     1      -1.427   0.636  -3.407  0.00  0.00    +0.000 A 
ENDBRANCH  11  16
ENDBRANCH   1  11
TORSDOF 4
