REMARK  Name = *****
REMARK  4 active torsions:
REMARK  status: ('A' for Active; 'I' for Inactive)
REMARK    1  A    between atoms: C_4  and  O_7
REMARK    2  A    between atoms: O_7  and  N_8
REMARK    3  A    between atoms: N_8  and  C_9
REMARK    4  A    between atoms: C_9  and  C_10
REMARK                            x       y       z     vdW  Elec       q    Type
REMARK                         _______ _______ _______ _____ _____    ______ ____
ROOT
ATOM      1  C   UNL     1      -4.745  -0.502  -0.380  0.00  0.00    +0.000 C 
ENDROOT
BRANCH   1   2
ATOM      2  C   UNL     1      -5.770  -1.560  -0.476  0.00  0.00    +0.000 A 
ATOM      3  C   UNL     1      -5.648  -2.786   0.198  0.00  0.00    +0.000 A 
ATOM      4  C   UNL     1      -6.649  -3.759   0.074  0.00  0.00    +0.000 A 
ATOM      5  C   UNL     1      -7.775  -3.521  -0.710  0.00  0.00    +0.000 A 
ATOM      6  C   UNL     1      -7.909  -2.303  -1.372  0.00  0.00    +0.000 A 
ATOM      7  C   UNL     1      -6.914  -1.324  -1.255  0.00  0.00    +0.000 A 
ATOM      8 CL   UNL     1      -7.161   0.145  -2.137  0.00  0.00    +0.000 Cl
ATOM      9 CL   UNL     1      -4.345  -3.168   1.270  0.00  0.00    +0.000 Cl
ENDBRANCH   1   2
BRANCH   1  10
ATOM     10  N   UNL     1      -3.479  -0.765  -0.352  0.00  0.00    +0.000 NA
BRANCH  10  11
ATOM     11  O   UNL     1      -2.768   0.440  -0.250  0.00  0.00    +0.000 OA
BRANCH  11  15
ATOM     12  C   UNL     1       1.331  -0.106   0.283  0.00  0.00    +0.000 A 
ATOM     13  C   UNL     1       0.598  -1.110  -0.351  0.00  0.00    +0.000 A 
ATOM     14  C   UNL     1      -0.777  -0.958  -0.541  0.00  0.00    +0.000 A 
ATOM     15  C   UNL     1      -1.422   0.197  -0.092  0.00  0.00    +0.000 A 
ATOM     16  C   UNL     1      -0.683   1.206   0.529  0.00  0.00    +0.000 A 
ATOM     17  C   UNL     1       0.691   1.053   0.721  0.00  0.00    +0.000 A 
ENDBRANCH  11  15
ENDBRANCH  10  11
ENDBRANCH   1  10
TORSDOF 4
