REMARK  Name = *****
REMARK  5 active torsions:
REMARK  status: ('A' for Active; 'I' for Inactive)
REMARK    1  A    between atoms: C_1  and  C_2
REMARK    2  A    between atoms: C_7  and  C_8
REMARK    3  A    between atoms: C_8  and  S_10
REMARK    4  A    between atoms: S_10  and  C_11
REMARK    5  A    between atoms: C_11  and  C_12
REMARK                            x       y       z     vdW  Elec       q    Type
REMARK                         _______ _______ _______ _____ _____    ______ ____
ROOT
ATOM      1  C   UNL     1       1.103  -2.574   0.985  0.00  0.00    +0.000 C 
ATOM      2  C   UNL     1       0.404  -3.387   1.789  0.00  0.00    +0.000 C 
ENDROOT
BRANCH   1   9
ATOM      3  C   UNL     1       0.579   0.113   2.197  0.00  0.00    +0.000 C 
ATOM      4  C   UNL     1       0.154  -0.237   0.797  0.00  0.00    +0.000 A 
ATOM      5  C   UNL     1      -0.519   0.727   0.027  0.00  0.00    +0.000 A 
ATOM      6  C   UNL     1      -0.928   0.444  -1.277  0.00  0.00    +0.000 A 
ATOM      7  C   UNL     1      -0.670  -0.806  -1.830  0.00  0.00    +0.000 A 
ATOM      8  C   UNL     1      -0.003  -1.774  -1.079  0.00  0.00    +0.000 A 
ATOM      9  C   UNL     1       0.421  -1.504   0.234  0.00  0.00    +0.000 A 
ENDBRANCH   1   9
BRANCH   1  10
ATOM     10  S   UNL     1       2.824  -2.640   0.825  0.00  0.00    +0.000 S 
BRANCH  10  11
ATOM     11  C   UNL     1       3.105  -4.350   0.280  0.00  0.00    +0.000 C 
BRANCH  11  12
ATOM     12  C   UNL     1       2.539  -4.665  -1.083  0.00  0.00    +0.000 A 
ATOM     13  C   UNL     1       3.090  -4.090  -2.239  0.00  0.00    +0.000 A 
ATOM     14  C   UNL     1       2.564  -4.384  -3.498  0.00  0.00    +0.000 A 
ATOM     15  C   UNL     1       1.485  -5.257  -3.617  0.00  0.00    +0.000 A 
ATOM     16  C   UNL     1       0.930  -5.837  -2.478  0.00  0.00    +0.000 A 
ATOM     17  C   UNL     1       1.453  -5.544  -1.218  0.00  0.00    +0.000 A 
ENDBRANCH  11  12
ENDBRANCH  10  11
ENDBRANCH   1  10
TORSDOF 4
