REMARK  Name = *****
REMARK  3 active torsions:
REMARK  status: ('A' for Active; 'I' for Inactive)
REMARK    1  A    between atoms: C_2  and  C_3
REMARK    2  A    between atoms: C_2  and  S_9
REMARK    3  A    between atoms: S_9  and  C_10
REMARK                            x       y       z     vdW  Elec       q    Type
REMARK                         _______ _______ _______ _____ _____    ______ ____
ROOT
ATOM      1  C   UNL     1       1.449   0.565  -0.788  0.00  0.00    +0.000 C 
ATOM      2  C   UNL     1       2.691   0.148  -0.509  0.00  0.00    +0.000 C 
ENDROOT
BRANCH   2   3
ATOM      3  C   UNL     1       3.247   0.270   0.848  0.00  0.00    +0.000 A 
ATOM      4  C   UNL     1       2.715  -0.488   1.902  0.00  0.00    +0.000 A 
ATOM      5  C   UNL     1       3.238  -0.376   3.191  0.00  0.00    +0.000 A 
ATOM      6  C   UNL     1       4.295   0.498   3.442  0.00  0.00    +0.000 A 
ATOM      7  C   UNL     1       4.829   1.260   2.404  0.00  0.00    +0.000 A 
ATOM      8  C   UNL     1       4.308   1.148   1.113  0.00  0.00    +0.000 A 
ENDBRANCH   2   3
BRANCH   2   9
ATOM      9  S   UNL     1       3.722  -0.512  -1.739  0.00  0.00    +0.000 S 
BRANCH   9  10
ATOM     10  C   UNL     1       3.639  -2.232  -1.270  0.00  0.00    +0.000 A 
ATOM     11  C   UNL     1       4.670  -2.792  -0.507  0.00  0.00    +0.000 A 
ATOM     12  C   UNL     1       4.622  -4.139  -0.134  0.00  0.00    +0.000 A 
ATOM     13  C   UNL     1       3.548  -4.937  -0.527  0.00  0.00    +0.000 A 
ATOM     14  C   UNL     1       2.520  -4.389  -1.294  0.00  0.00    +0.000 A 
ATOM     15  C   UNL     1       2.572  -3.046  -1.661  0.00  0.00    +0.000 A 
ATOM     16  F   UNL     1       1.567  -2.550  -2.400  0.00  0.00    +0.000 F 
ENDBRANCH   9  10
ENDBRANCH   2   9
TORSDOF 3
