REMARK  Name = *****
REMARK  7 active torsions:
REMARK  status: ('A' for Active; 'I' for Inactive)
REMARK    1  A    between atoms: C_1  and  C_2
REMARK    2  A    between atoms: C_4  and  C_17
REMARK    3  A    between atoms: C_5  and  C_9
REMARK    4  A    between atoms: C_7  and  C_8
REMARK    5  A    between atoms: C_10  and  C_11
REMARK    6  A    between atoms: C_17  and  O_18
REMARK    7  A    between atoms: O_18  and  C_19
REMARK                            x       y       z     vdW  Elec       q    Type
REMARK                         _______ _______ _______ _____ _____    ______ ____
ROOT
ATOM      1  C   UNL     1       1.181   0.112   0.354  0.00  0.00    +0.000 C 
ATOM      2  C   UNL     1       2.659   0.099   0.074  0.00  0.00    +0.000 A 
ATOM      3  C   UNL     1       3.360   1.317   0.037  0.00  0.00    +0.000 A 
ATOM      4  C   UNL     1       4.745   1.371  -0.206  0.00  0.00    +0.000 A 
ATOM      5  C   UNL     1       5.423   0.166  -0.451  0.00  0.00    +0.000 A 
ATOM      6  C   UNL     1       4.734  -1.053  -0.407  0.00  0.00    +0.000 A 
ATOM      7  C   UNL     1       3.357  -1.102  -0.136  0.00  0.00    +0.000 A 
ATOM      8  C   UNL     1       2.661  -2.435  -0.094  0.00  0.00    +0.000 C 
ENDROOT
BRANCH   5   9
ATOM      9  C   UNL     1       6.825   0.139  -0.754  0.00  0.00    +0.000 C 
ATOM     10  C   UNL     1       8.000   0.130  -1.003  0.00  0.00    +0.000 C 
BRANCH  10  11
ATOM     11  C   UNL     1       9.401   0.140  -1.291  0.00  0.00    +0.000 A 
ATOM     12  C   UNL     1      10.081   1.355  -1.408  0.00  0.00    +0.000 A 
ATOM     13  C   UNL     1      11.449   1.366  -1.687  0.00  0.00    +0.000 A 
ATOM     14  C   UNL     1      12.138   0.164  -1.849  0.00  0.00    +0.000 A 
ATOM     15  C   UNL     1      11.461  -1.050  -1.733  0.00  0.00    +0.000 A 
ATOM     16  C   UNL     1      10.092  -1.063  -1.453  0.00  0.00    +0.000 A 
ENDBRANCH  10  11
ENDBRANCH   5   9
BRANCH   4  17
ATOM     17  C   UNL     1       5.450   2.708  -0.272  0.00  0.00    +0.000 C 
BRANCH  17  18
ATOM     18  O   UNL     1       4.839   3.649   0.615  0.00  0.00    +0.000 OA
ATOM     19  C   UNL     1       5.518   4.897   0.598  0.00  0.00    +0.000 C 
ENDBRANCH  17  18
ENDBRANCH   4  17
TORSDOF 4
