REMARK  Name = *****
REMARK  6 active torsions:
REMARK  status: ('A' for Active; 'I' for Inactive)
REMARK    1  A    between atoms: C_1  and  C_2
REMARK    2  A    between atoms: C_2  and  C_3
REMARK    3  A    between atoms: C_2  and  N_9
REMARK    4  A    between atoms: N_9  and  C_10
REMARK    5  A    between atoms: N_9  and  C_17
REMARK    6  A    between atoms: C_10  and  C_11
REMARK                            x       y       z     vdW  Elec       q    Type
REMARK                         _______ _______ _______ _____ _____    ______ ____
ROOT
ATOM      1  N   UNL     1       3.156   1.299   0.651  0.00  0.00    +0.000 N 
ENDROOT
BRANCH   1   3
ATOM      2  C   UNL     1       2.542   0.780  -1.709  0.00  0.00    +0.000 C 
ATOM      3  C   UNL     1       2.624   0.271  -0.264  0.00  0.00    +0.000 C 
BRANCH   3   4
ATOM      4  C   UNL     1       3.390  -1.037  -0.087  0.00  0.00    +0.000 A 
ATOM      5  C   UNL     1       4.458  -1.415  -0.917  0.00  0.00    +0.000 A 
ATOM      6  C   UNL     1       5.131  -2.623  -0.711  0.00  0.00    +0.000 A 
ATOM      7  C   UNL     1       4.755  -3.466   0.332  0.00  0.00    +0.000 A 
ATOM      8  C   UNL     1       3.709  -3.100   1.175  0.00  0.00    +0.000 A 
ATOM      9  C   UNL     1       3.035  -1.895   0.970  0.00  0.00    +0.000 A 
ENDBRANCH   3   4
ENDBRANCH   1   3
BRANCH   1  10
ATOM     10  C   UNL     1       4.505   1.797   0.387  0.00  0.00    +0.000 C 
ATOM     11  C   UNL     1       5.614   2.203   0.179  0.00  0.00    +0.000 C 
ENDBRANCH   1  10
BRANCH   1  12
ATOM     12  C   UNL     1       2.217   2.304   1.153  0.00  0.00    +0.000 C 
BRANCH  12  13
ATOM     13  C   UNL     1       1.217   1.702   2.117  0.00  0.00    +0.000 A 
ATOM     14  C   UNL     1       1.658   1.008   3.255  0.00  0.00    +0.000 A 
ATOM     15  C   UNL     1       0.740   0.462   4.153  0.00  0.00    +0.000 A 
ATOM     16  C   UNL     1      -0.627   0.608   3.928  0.00  0.00    +0.000 A 
ATOM     17  C   UNL     1      -1.077   1.301   2.805  0.00  0.00    +0.000 A 
ATOM     18  C   UNL     1      -0.161   1.848   1.905  0.00  0.00    +0.000 A 
ENDBRANCH  12  13
ENDBRANCH   1  12
TORSDOF 5
