REMARK  Name = *****
REMARK  4 active torsions:
REMARK  status: ('A' for Active; 'I' for Inactive)
REMARK    1  A    between atoms: C_4  and  S_7
REMARK    2  A    between atoms: S_7  and  C_8
REMARK    3  A    between atoms: C_8  and  C_9
REMARK    4  A    between atoms: C_14  and  C_15
REMARK                            x       y       z     vdW  Elec       q    Type
REMARK                         _______ _______ _______ _____ _____    ______ ____
ROOT
ATOM      1  C   UNL     1      -3.912  -0.955  -0.508  0.00  0.00    +0.000 C 
ENDROOT
BRANCH   1   2
ATOM      2  C   UNL     1      -5.398  -0.709  -0.611  0.00  0.00    +0.000 A 
ATOM      3  C   UNL     1      -5.875   0.051  -1.697  0.00  0.00    +0.000 A 
ATOM      4  C   UNL     1      -7.238   0.310  -1.854  0.00  0.00    +0.000 A 
ATOM      5  C   UNL     1      -8.151  -0.182  -0.928  0.00  0.00    +0.000 A 
ATOM      6  C   UNL     1      -7.701  -0.927   0.161  0.00  0.00    +0.000 A 
ATOM      7  C   UNL     1      -6.332  -1.188   0.329  0.00  0.00    +0.000 A 
BRANCH   7   8
ATOM      8  C   UNL     1      -5.927  -1.970   1.524  0.00  0.00    +0.000 C 
ATOM      9  O   UNL     1      -6.748  -2.475   2.282  0.00  0.00    +0.000 OA
ENDBRANCH   7   8
ENDBRANCH   1   2
BRANCH   1  10
ATOM     10  S   UNL     1      -3.114   0.242   0.611  0.00  0.00    +0.000 S 
BRANCH  10  14
ATOM     11  C   UNL     1       1.115  -1.514   0.739  0.00  0.00    +0.000 A 
ATOM     12  C   UNL     1       0.614  -1.010  -0.460  0.00  0.00    +0.000 A 
ATOM     13  C   UNL     1      -0.674  -0.471  -0.508  0.00  0.00    +0.000 A 
ATOM     14  C   UNL     1      -1.469  -0.442   0.642  0.00  0.00    +0.000 A 
ATOM     15  C   UNL     1      -0.955  -0.936   1.845  0.00  0.00    +0.000 A 
ATOM     16  C   UNL     1       0.333  -1.475   1.892  0.00  0.00    +0.000 A 
ENDBRANCH  10  14
ENDBRANCH   1  10
TORSDOF 4
