REMARK  Name = *****
REMARK  7 active torsions:
REMARK  status: ('A' for Active; 'I' for Inactive)
REMARK    1  A    between atoms: C_1  and  C_2
REMARK    2  A    between atoms: C_1  and  C_8
REMARK    3  A    between atoms: C_8  and  C_9
REMARK    4  A    between atoms: C_9  and  C_11
REMARK    5  A    between atoms: C_12  and  C_19
REMARK    6  A    between atoms: C_14  and  C_18
REMARK    7  A    between atoms: C_16  and  C_17
REMARK                            x       y       z     vdW  Elec       q    Type
REMARK                         _______ _______ _______ _____ _____    ______ ____
ROOT
ATOM      1  C   UNL     1       4.146  -0.708  -1.376  0.00  0.00    +0.000 C 
ATOM      2  O   UNL     1       4.854   0.179  -0.909  0.00  0.00    +0.000 OA
ENDROOT
BRANCH   1   3
ATOM      3  C   UNL     1       4.772  -1.965  -1.859  0.00  0.00    +0.000 A 
ATOM      4  C   UNL     1       4.743  -2.291  -3.229  0.00  0.00    +0.000 A 
ATOM      5  C   UNL     1       5.312  -3.506  -3.643  0.00  0.00    +0.000 A 
ATOM      6  C   UNL     1       5.920  -4.371  -2.727  0.00  0.00    +0.000 A 
ATOM      7  C   UNL     1       5.978  -4.008  -1.377  0.00  0.00    +0.000 A 
ATOM      8  C   UNL     1       5.398  -2.814  -0.923  0.00  0.00    +0.000 A 
ATOM      9  C   UNL     1       5.488  -2.462   0.537  0.00  0.00    +0.000 C 
ATOM     10  C   UNL     1       6.570  -5.639  -3.199  0.00  0.00    +0.000 C 
ATOM     11  C   UNL     1       4.118  -1.395  -4.262  0.00  0.00    +0.000 C 
ENDBRANCH   1   3
BRANCH   1  12
ATOM     12  C   UNL     1       2.641  -0.600  -1.478  0.00  0.00    +0.000 C 
BRANCH  12  13
ATOM     13  C   UNL     1       2.056  -0.045  -0.183  0.00  0.00    +0.000 C 
BRANCH  13  14
ATOM     14  C   UNL     1       0.556   0.082  -0.267  0.00  0.00    +0.000 A 
ATOM     15  C   UNL     1      -0.270  -1.004   0.052  0.00  0.00    +0.000 A 
ATOM     16  C   UNL     1      -1.658  -0.889  -0.048  0.00  0.00    +0.000 A 
ATOM     17  C   UNL     1      -2.231   0.309  -0.472  0.00  0.00    +0.000 A 
ATOM     18  C   UNL     1      -1.418   1.393  -0.796  0.00  0.00    +0.000 A 
ATOM     19  C   UNL     1      -0.030   1.280  -0.697  0.00  0.00    +0.000 A 
ENDBRANCH  13  14
ENDBRANCH  12  13
ENDBRANCH   1  12
TORSDOF 4
