REMARK  Name = *****
REMARK  4 active torsions:
REMARK  status: ('A' for Active; 'I' for Inactive)
REMARK    1  A    between atoms: C_5  and  C_8
REMARK    2  A    between atoms: C_8  and  O_9
REMARK    3  A    between atoms: O_9  and  C_10
REMARK    4  A    between atoms: C_10  and  C_11
REMARK                            x       y       z     vdW  Elec       q    Type
REMARK                         _______ _______ _______ _____ _____    ______ ____
ROOT
ATOM      1  C   UNL     1       1.910  -2.030   1.514  0.00  0.00    +0.000 C 
ENDROOT
BRANCH   1   6
ATOM      2  C   UNL     1      -1.705  -0.625  -0.835  0.00  0.00    +0.000 C 
ATOM      3  C   UNL     1      -1.560   0.714  -0.125  0.00  0.00    +0.000 C 
ATOM      4  C   UNL     1      -0.511   0.834   0.936  0.00  0.00    +0.000 C 
ATOM      5  C   UNL     1       0.505   0.023   1.258  0.00  0.00    +0.000 C 
ATOM      6  C   UNL     1       0.932  -1.234   0.667  0.00  0.00    +0.000 C 
ATOM      7  C   UNL     1       0.565  -1.695  -0.543  0.00  0.00    +0.000 C 
ATOM      8  C   UNL     1      -0.420  -1.098  -1.500  0.00  0.00    +0.000 C 
ENDBRANCH   1   6
BRANCH   1   9
ATOM      9  O   UNL     1       3.131  -1.301   1.635  0.00  0.00    +0.000 OA
BRANCH   9  10
ATOM     10  C   UNL     1       4.069  -1.985   2.463  0.00  0.00    +0.000 C 
BRANCH  10  11
ATOM     11  C   UNL     1       5.349  -1.196   2.595  0.00  0.00    +0.000 A 
ATOM     12  C   UNL     1       5.363   0.203   2.504  0.00  0.00    +0.000 A 
ATOM     13  C   UNL     1       6.552   0.917   2.671  0.00  0.00    +0.000 A 
ATOM     14  C   UNL     1       7.740   0.241   2.941  0.00  0.00    +0.000 A 
ATOM     15  C   UNL     1       7.739  -1.148   3.049  0.00  0.00    +0.000 A 
ATOM     16  C   UNL     1       6.550  -1.862   2.882  0.00  0.00    +0.000 A 
ENDBRANCH  10  11
ENDBRANCH   9  10
ENDBRANCH   1   9
TORSDOF 4
