REMARK  Name = *****
REMARK  4 active torsions:
REMARK  status: ('A' for Active; 'I' for Inactive)
REMARK    1  A    between atoms: C_4  and  S_7
REMARK    2  A    between atoms: S_7  and  C_9
REMARK    3  A    between atoms: C_9  and  C_10
REMARK    4  A    between atoms: C_10  and  C_11
REMARK                            x       y       z     vdW  Elec       q    Type
REMARK                         _______ _______ _______ _____ _____    ______ ____
ROOT
ATOM      1  C   UNL     1      -3.969  -0.892  -0.302  0.00  0.00    +0.000 C 
ENDROOT
BRANCH   1   2
ATOM      2  S   UNL     1      -3.232   0.740   0.046  0.00  0.00    +0.000 S 
ATOM      3  O   UNL     1      -3.305   1.540  -1.222  0.00  0.00    +0.000 OA
BRANCH   2   7
ATOM      4  C   UNL     1       1.134  -0.674   0.447  0.00  0.00    +0.000 A 
ATOM      5  C   UNL     1       0.728   0.002  -0.703  0.00  0.00    +0.000 A 
ATOM      6  C   UNL     1      -0.594   0.433  -0.830  0.00  0.00    +0.000 A 
ATOM      7  C   UNL     1      -1.517   0.185   0.190  0.00  0.00    +0.000 A 
ATOM      8  C   UNL     1      -1.102  -0.486   1.347  0.00  0.00    +0.000 A 
ATOM      9  C   UNL     1       0.220  -0.917   1.472  0.00  0.00    +0.000 A 
ENDBRANCH   2   7
ENDBRANCH   1   2
BRANCH   1  10
ATOM     10  C   UNL     1      -5.461  -0.742  -0.578  0.00  0.00    +0.000 C 
BRANCH  10  11
ATOM     11  C   UNL     1      -6.112  -2.082  -0.824  0.00  0.00    +0.000 A 
ATOM     12  C   UNL     1      -6.645  -2.820   0.243  0.00  0.00    +0.000 A 
ATOM     13  C   UNL     1      -7.227  -4.067   0.015  0.00  0.00    +0.000 A 
ATOM     14  C   UNL     1      -7.272  -4.577  -1.277  0.00  0.00    +0.000 A 
ATOM     15  C   UNL     1      -6.744  -3.864  -2.346  0.00  0.00    +0.000 A 
ATOM     16  C   UNL     1      -6.161  -2.616  -2.121  0.00  0.00    +0.000 A 
ATOM     17  F   UNL     1      -7.830  -5.776  -1.494  0.00  0.00    +0.000 F 
ENDBRANCH  10  11
ENDBRANCH   1  10
TORSDOF 4
