REMARK  Name = *****
REMARK  4 active torsions:
REMARK  status: ('A' for Active; 'I' for Inactive)
REMARK    1  A    between atoms: C_1  and  C_2
REMARK    2  A    between atoms: C_5  and  S_8
REMARK    3  A    between atoms: S_8  and  N_9
REMARK    4  A    between atoms: N_9  and  C_10
REMARK                            x       y       z     vdW  Elec       q    Type
REMARK                         _______ _______ _______ _____ _____    ______ ____
ROOT
ATOM      1  S   UNL     1      -3.659   0.865   0.269  0.00  0.00    +0.000 S 
ENDROOT
BRANCH   1   6
ATOM      2  C   UNL     1       2.314  -0.280  -0.192  0.00  0.00    +0.000 C 
ATOM      3  C   UNL     1       0.843   0.003  -0.110  0.00  0.00    +0.000 A 
ATOM      4  C   UNL     1       0.386   1.261   0.298  0.00  0.00    +0.000 A 
ATOM      5  C   UNL     1      -0.984   1.516   0.409  0.00  0.00    +0.000 A 
ATOM      6  C   UNL     1      -1.914   0.515   0.117  0.00  0.00    +0.000 A 
ATOM      7  C   UNL     1      -1.459  -0.749  -0.269  0.00  0.00    +0.000 A 
ATOM      8  C   UNL     1      -0.090  -1.005  -0.379  0.00  0.00    +0.000 A 
ENDBRANCH   1   6
BRANCH   1   9
ATOM      9  N   UNL     1      -4.175   0.348  -1.230  0.00  0.00    +0.000 N 
ATOM     10  H   UNL     1      -3.503   0.191  -1.933  0.00  0.00    +0.000 HD
BRANCH   9  11
ATOM     11  C   UNL     1      -5.539   0.127  -1.534  0.00  0.00    +0.000 A 
ATOM     12  C   UNL     1      -6.522  -0.124  -0.567  0.00  0.00    +0.000 A 
ATOM     13  C   UNL     1      -7.844  -0.401  -0.933  0.00  0.00    +0.000 A 
ATOM     14  C   UNL     1      -8.200  -0.460  -2.277  0.00  0.00    +0.000 A 
ATOM     15  C   UNL     1      -7.233  -0.253  -3.255  0.00  0.00    +0.000 A 
ATOM     16  C   UNL     1      -5.913   0.025  -2.885  0.00  0.00    +0.000 A 
ENDBRANCH   9  11
ENDBRANCH   1   9
TORSDOF 3
