REMARK  Name = *****
REMARK  2 active torsions:
REMARK  status: ('A' for Active; 'I' for Inactive)
REMARK    1  A    between atoms: C_4  and  O_7
REMARK    2  A    between atoms: O_7  and  N_8
REMARK                            x       y       z     vdW  Elec       q    Type
REMARK                         _______ _______ _______ _____ _____    ______ ____
ROOT
ATOM      1  N   UNL     1      -4.905   0.004  -0.920  0.00  0.00    +0.000 N 
ATOM      2  C   UNL     1      -6.241  -0.286  -0.862  0.00  0.00    +0.000 A 
ATOM      3  C   UNL     1      -6.244  -1.586  -0.371  0.00  0.00    +0.000 A 
ATOM      4  C   UNL     1      -7.466  -2.248  -0.189  0.00  0.00    +0.000 A 
ATOM      5  C   UNL     1      -8.650  -1.566  -0.507  0.00  0.00    +0.000 A 
ATOM      6  C   UNL     1      -8.612  -0.255  -0.992  0.00  0.00    +0.000 A 
ATOM      7  C   UNL     1      -7.403   0.424  -1.182  0.00  0.00    +0.000 A 
ATOM      8 CL   UNL     1     -10.088   0.548  -1.370  0.00  0.00    +0.000 Cl
ATOM      9  N   UNL     1      -4.958  -1.996  -0.132  0.00  0.00    +0.000 NA
ATOM     10  N   UNL     1      -4.143  -0.992  -0.438  0.00  0.00    +0.000 NA
ENDROOT
BRANCH   1  11
ATOM     11  O   UNL     1      -4.347   1.245  -1.223  0.00  0.00    +0.000 OA
BRANCH  11  15
ATOM     12  C   UNL     1      -2.395   1.481  -4.898  0.00  0.00    +0.000 A 
ATOM     13  C   UNL     1      -3.554   0.711  -4.808  0.00  0.00    +0.000 A 
ATOM     14  C   UNL     1      -4.232   0.601  -3.592  0.00  0.00    +0.000 A 
ATOM     15  C   UNL     1      -3.739   1.254  -2.459  0.00  0.00    +0.000 A 
ATOM     16  C   UNL     1      -2.589   2.041  -2.558  0.00  0.00    +0.000 A 
ATOM     17  C   UNL     1      -1.913   2.149  -3.774  0.00  0.00    +0.000 A 
ENDBRANCH  11  15
ENDBRANCH   1  11
TORSDOF 2
