REMARK  Name = *****
REMARK  5 active torsions:
REMARK  status: ('A' for Active; 'I' for Inactive)
REMARK    1  A    between atoms: C_1  and  O_2
REMARK    2  A    between atoms: O_2  and  C_3
REMARK    3  A    between atoms: C_6  and  C_9
REMARK    4  A    between atoms: C_10  and  C_11
REMARK    5  A    between atoms: C_10  and  C_13
REMARK                            x       y       z     vdW  Elec       q    Type
REMARK                         _______ _______ _______ _____ _____    ______ ____
ROOT
ATOM      1  C   UNL     1       5.172  -4.784   0.850  0.00  0.00    +0.000 C 
ATOM      2  C   UNL     1       4.869  -5.915   0.180  0.00  0.00    +0.000 C 
ENDROOT
BRANCH   1   6
ATOM      3  C   UNL     1       3.385  -0.945   0.240  0.00  0.00    +0.000 A 
ATOM      4  C   UNL     1       3.280  -1.588   1.473  0.00  0.00    +0.000 A 
ATOM      5  C   UNL     1       3.865  -2.846   1.663  0.00  0.00    +0.000 A 
ATOM      6  C   UNL     1       4.554  -3.474   0.622  0.00  0.00    +0.000 A 
ATOM      7  C   UNL     1       4.669  -2.823  -0.609  0.00  0.00    +0.000 A 
ATOM      8  C   UNL     1       4.083  -1.568  -0.797  0.00  0.00    +0.000 A 
BRANCH   3  10
ATOM      9  C   UNL     1       2.141   0.955   0.944  0.00  0.00    +0.000 C 
ATOM     10  O   UNL     1       2.862   0.278  -0.078  0.00  0.00    +0.000 OA
ENDBRANCH   3  10
ENDBRANCH   1   6
BRANCH   2  11
ATOM     11  C   UNL     1       5.604  -7.159   0.505  0.00  0.00    +0.000 A 
ATOM     12  C   UNL     1       5.691  -7.623   1.827  0.00  0.00    +0.000 A 
ATOM     13  C   UNL     1       6.373  -8.805   2.124  0.00  0.00    +0.000 A 
ATOM     14  C   UNL     1       6.973  -9.540   1.104  0.00  0.00    +0.000 A 
ATOM     15  C   UNL     1       6.892  -9.094  -0.213  0.00  0.00    +0.000 A 
ATOM     16  C   UNL     1       6.209  -7.912  -0.511  0.00  0.00    +0.000 A 
ENDBRANCH   2  11
BRANCH   2  17
ATOM     17  C   UNL     1       3.820  -6.033  -0.896  0.00  0.00    +0.000 C 
ATOM     18  F   UNL     1       4.387  -5.957  -2.133  0.00  0.00    +0.000 F 
ENDBRANCH   2  17
TORSDOF 4
