REMARK  Name = *****
REMARK  6 active torsions:
REMARK  status: ('A' for Active; 'I' for Inactive)
REMARK    1  A    between atoms: C_1  and  C_2
REMARK    2  A    between atoms: C_4  and  C_20
REMARK    3  A    between atoms: C_5  and  C_8
REMARK    4  A    between atoms: C_8  and  C_9
REMARK    5  A    between atoms: C_9  and  C_10
REMARK    6  A    between atoms: C_10  and  C_12
REMARK                            x       y       z     vdW  Elec       q    Type
REMARK                         _______ _______ _______ _____ _____    ______ ____
ROOT
ATOM      1  C   UNL     1      -2.214  -3.017   0.692  0.00  0.00    +0.000 C 
ENDROOT
BRANCH   1   2
ATOM      2  C   UNL     1      -3.250  -4.110   0.542  0.00  0.00    +0.000 C 
ATOM      3  O   UNL     1      -3.294  -4.877  -0.414  0.00  0.00    +0.000 OA
BRANCH   2   4
ATOM      4  C   UNL     1      -4.162  -4.348   1.677  0.00  0.00    +0.000 A 
ATOM      5  C   UNL     1      -5.167  -3.442   2.034  0.00  0.00    +0.000 A 
ATOM      6  C   UNL     1      -5.994  -3.723   3.123  0.00  0.00    +0.000 A 
ATOM      7  C   UNL     1      -5.814  -4.906   3.834  0.00  0.00    +0.000 A 
ATOM      8  C   UNL     1      -4.831  -5.821   3.474  0.00  0.00    +0.000 A 
ATOM      9  C   UNL     1      -4.002  -5.547   2.387  0.00  0.00    +0.000 A 
ATOM     10  F   UNL     1      -6.609  -5.171   4.878  0.00  0.00    +0.000 F 
ATOM     11 CL   UNL     1      -5.464  -1.991   1.149  0.00  0.00    +0.000 Cl
ENDBRANCH   2   4
ENDBRANCH   1   2
BRANCH   1  12
ATOM     12  C   UNL     1      -2.009  -2.276  -0.627  0.00  0.00    +0.000 C 
BRANCH  12  17
ATOM     13  C   UNL     1       2.310   1.611  -0.094  0.00  0.00    +0.000 C 
ATOM     14  C   UNL     1       1.186   0.632  -0.263  0.00  0.00    +0.000 A 
ATOM     15  C   UNL     1      -0.136   1.020  -0.018  0.00  0.00    +0.000 A 
ATOM     16  C   UNL     1      -1.202   0.110  -0.138  0.00  0.00    +0.000 A 
ATOM     17  C   UNL     1      -0.929  -1.223  -0.506  0.00  0.00    +0.000 A 
ATOM     18  C   UNL     1       0.403  -1.609  -0.733  0.00  0.00    +0.000 A 
ATOM     19  C   UNL     1       1.449  -0.694  -0.610  0.00  0.00    +0.000 A 
ATOM     20  C   UNL     1      -2.600   0.592   0.133  0.00  0.00    +0.000 C 
ENDBRANCH  12  17
ENDBRANCH   1  12
TORSDOF 4
