REMARK  Name = *****
REMARK  6 active torsions:
REMARK  status: ('A' for Active; 'I' for Inactive)
REMARK    1  A    between atoms: C_1  and  C_2
REMARK    2  A    between atoms: C_4  and  C_17
REMARK    3  A    between atoms: C_5  and  S_9
REMARK    4  A    between atoms: C_6  and  C_8
REMARK    5  A    between atoms: S_9  and  C_10
REMARK    6  A    between atoms: C_10  and  C_11
REMARK                            x       y       z     vdW  Elec       q    Type
REMARK                         _______ _______ _______ _____ _____    ______ ____
ROOT
ATOM      1  C   UNL     1       2.121   1.844   0.475  0.00  0.00    +0.000 C 
ATOM      2  C   UNL     1       1.083   0.786   0.243  0.00  0.00    +0.000 A 
ATOM      3  C   UNL     1       1.456  -0.493  -0.176  0.00  0.00    +0.000 A 
ATOM      4  C   UNL     1       0.495  -1.487  -0.433  0.00  0.00    +0.000 A 
ATOM      5  C   UNL     1      -0.875  -1.185  -0.260  0.00  0.00    +0.000 A 
ATOM      6  C   UNL     1      -1.264   0.117   0.128  0.00  0.00    +0.000 A 
ATOM      7  C   UNL     1      -0.275   1.086   0.375  0.00  0.00    +0.000 A 
ATOM      8  C   UNL     1      -2.708   0.518   0.283  0.00  0.00    +0.000 C 
ATOM      9  C   UNL     1       0.975  -2.841  -0.890  0.00  0.00    +0.000 C 
ENDROOT
BRANCH   5  10
ATOM     10  S   UNL     1      -2.125  -2.447  -0.553  0.00  0.00    +0.000 S 
BRANCH  10  11
ATOM     11  C   UNL     1      -2.183  -3.161   1.127  0.00  0.00    +0.000 C 
BRANCH  11  12
ATOM     12  C   UNL     1      -3.239  -4.232   1.253  0.00  0.00    +0.000 A 
ATOM     13  C   UNL     1      -4.592  -3.892   1.288  0.00  0.00    +0.000 A 
ATOM     14  C   UNL     1      -5.540  -4.904   1.407  0.00  0.00    +0.000 A 
ATOM     15  C   UNL     1      -5.119  -6.225   1.489  0.00  0.00    +0.000 A 
ATOM     16  C   UNL     1      -3.759  -6.480   1.450  0.00  0.00    +0.000 A 
ATOM     17  N   UNL     1      -2.815  -5.519   1.339  0.00  0.00    +0.000 NA
ENDBRANCH  11  12
ENDBRANCH  10  11
ENDBRANCH   5  10
TORSDOF 3
