REMARK  Name = *****
REMARK  4 active torsions:
REMARK  status: ('A' for Active; 'I' for Inactive)
REMARK    1  A    between atoms: C_1  and  C_2
REMARK    2  A    between atoms: C_7  and  C_8
REMARK    3  A    between atoms: C_8  and  O_10
REMARK    4  A    between atoms: O_10  and  C_11
REMARK                            x       y       z     vdW  Elec       q    Type
REMARK                         _______ _______ _______ _____ _____    ______ ____
ROOT
ATOM      1  C   UNL     1       0.825  -2.371  -0.616  0.00  0.00    +0.000 C 
ATOM      2  O   UNL     1       0.470  -3.449  -0.163  0.00  0.00    +0.000 OA
ENDROOT
BRANCH   1   9
ATOM      3  C   UNL     1       2.545   0.074  -0.023  0.00  0.00    +0.000 C 
ATOM      4  C   UNL     1       1.047   0.068   0.096  0.00  0.00    +0.000 A 
ATOM      5  C   UNL     1       0.396   1.251   0.488  0.00  0.00    +0.000 A 
ATOM      6  C   UNL     1      -0.991   1.287   0.650  0.00  0.00    +0.000 A 
ATOM      7  C   UNL     1      -1.751   0.144   0.426  0.00  0.00    +0.000 A 
ATOM      8  C   UNL     1      -1.126  -1.035   0.024  0.00  0.00    +0.000 A 
ATOM      9  C   UNL     1       0.265  -1.075  -0.161  0.00  0.00    +0.000 A 
ENDBRANCH   1   9
BRANCH   1  10
ATOM     10  O   UNL     1       1.653  -2.143  -1.697  0.00  0.00    +0.000 OA
BRANCH  10  11
ATOM     11  C   UNL     1       2.080  -3.333  -2.293  0.00  0.00    +0.000 A 
ATOM     12  C   UNL     1       3.326  -3.886  -1.983  0.00  0.00    +0.000 A 
ATOM     13  C   UNL     1       3.740  -5.056  -2.621  0.00  0.00    +0.000 A 
ATOM     14  C   UNL     1       2.910  -5.653  -3.569  0.00  0.00    +0.000 A 
ATOM     15  C   UNL     1       1.674  -5.090  -3.893  0.00  0.00    +0.000 A 
ATOM     16  C   UNL     1       1.257  -3.919  -3.259  0.00  0.00    +0.000 A 
ATOM     17 CL   UNL     1       3.419  -7.094  -4.359  0.00  0.00    +0.000 Cl
ATOM     18 CL   UNL     1       4.381  -3.150  -0.836  0.00  0.00    +0.000 Cl
ENDBRANCH  10  11
ENDBRANCH   1  10
TORSDOF 3
