REMARK  Name = *****
REMARK  5 active torsions:
REMARK  status: ('A' for Active; 'I' for Inactive)
REMARK    1  A    between atoms: C_4  and  C_7
REMARK    2  A    between atoms: C_7  and  C_8
REMARK    3  A    between atoms: C_7  and  C_17
REMARK    4  A    between atoms: C_8  and  C_9
REMARK    5  A    between atoms: C_9  and  C_11
REMARK                            x       y       z     vdW  Elec       q    Type
REMARK                         _______ _______ _______ _____ _____    ______ ____
ROOT
ATOM      1  C   UNL     1      -2.829   0.213  -0.334  0.00  0.00    +0.000 C 
ENDROOT
BRANCH   1   5
ATOM      2  C   UNL     1       1.421  -0.282   0.371  0.00  0.00    +0.000 A 
ATOM      3  C   UNL     1       0.620   0.364   1.310  0.00  0.00    +0.000 A 
ATOM      4  C   UNL     1      -0.748   0.516   1.078  0.00  0.00    +0.000 A 
ATOM      5  C   UNL     1      -1.335   0.021  -0.098  0.00  0.00    +0.000 A 
ATOM      6  C   UNL     1      -0.514  -0.622  -1.037  0.00  0.00    +0.000 A 
ATOM      7  C   UNL     1       0.854  -0.774  -0.802  0.00  0.00    +0.000 A 
ENDBRANCH   1   5
BRANCH   1   8
ATOM      8  C   UNL     1      -3.544  -1.117  -0.613  0.00  0.00    +0.000 C 
ATOM      9  F   UNL     1      -3.252  -1.552  -1.871  0.00  0.00    +0.000 F 
ENDBRANCH   1   8
BRANCH   1  10
ATOM     10  C   UNL     1      -3.055   1.237  -1.461  0.00  0.00    +0.000 C 
BRANCH  10  11
ATOM     11  C   UNL     1      -4.497   1.706  -1.541  0.00  0.00    +0.000 C 
ATOM     12  O   UNL     1      -5.315   1.453  -0.658  0.00  0.00    +0.000 OA
BRANCH  11  13
ATOM     13  C   UNL     1      -4.924   2.519  -2.721  0.00  0.00    +0.000 A 
ATOM     14  C   UNL     1      -6.287   2.809  -2.873  0.00  0.00    +0.000 A 
ATOM     15  C   UNL     1      -6.732   3.566  -3.959  0.00  0.00    +0.000 A 
ATOM     16  C   UNL     1      -5.819   4.041  -4.898  0.00  0.00    +0.000 A 
ATOM     17  C   UNL     1      -4.461   3.762  -4.752  0.00  0.00    +0.000 A 
ATOM     18  C   UNL     1      -4.011   3.004  -3.666  0.00  0.00    +0.000 A 
ENDBRANCH  11  13
ENDBRANCH  10  11
ENDBRANCH   1  10
TORSDOF 5
