REMARK  Name = *****
REMARK  3 active torsions:
REMARK  status: ('A' for Active; 'I' for Inactive)
REMARK    1  A    between atoms: C_4  and  C_9
REMARK    2  A    between atoms: C_5  and  C_7
REMARK    3  A    between atoms: C_10  and  C_11
REMARK                            x       y       z     vdW  Elec       q    Type
REMARK                         _______ _______ _______ _____ _____    ______ ____
ROOT
ATOM      1  C   UNL     1       1.345   2.631  -0.191  0.00  0.00    +0.000 C 
ATOM      2  C   UNL     1       1.859   3.710  -0.310  0.00  0.00    +0.000 C 
ENDROOT
BRANCH   2   3
ATOM      3  C   UNL     1       2.477   4.987  -0.493  0.00  0.00    +0.000 A 
ATOM      4  C   UNL     1       1.807   6.150  -0.115  0.00  0.00    +0.000 A 
ATOM      5  C   UNL     1       2.415   7.384  -0.325  0.00  0.00    +0.000 A 
ATOM      6  C   UNL     1       3.677   7.477  -0.903  0.00  0.00    +0.000 A 
ATOM      7  C   UNL     1       4.349   6.314  -1.277  0.00  0.00    +0.000 A 
ATOM      8  C   UNL     1       3.749   5.069  -1.071  0.00  0.00    +0.000 A 
ATOM      9  F   UNL     1       1.771   8.503   0.031  0.00  0.00    +0.000 F 
ENDBRANCH   2   3
BRANCH   1  13
ATOM     10  C   UNL     1      -0.586  -1.135   0.052  0.00  0.00    +0.000 A 
ATOM     11  C   UNL     1      -1.324   0.047   0.044  0.00  0.00    +0.000 A 
ATOM     12  C   UNL     1      -0.669   1.280  -0.026  0.00  0.00    +0.000 A 
ATOM     13  C   UNL     1       0.729   1.340  -0.089  0.00  0.00    +0.000 A 
ATOM     14  C   UNL     1       1.468   0.149  -0.075  0.00  0.00    +0.000 A 
ATOM     15  C   UNL     1       0.807  -1.086  -0.006  0.00  0.00    +0.000 A 
BRANCH  14  16
ATOM     16  C   UNL     1       2.948   0.152  -0.135  0.00  0.00    +0.000 C 
ATOM     17  O   UNL     1       3.600  -0.887  -0.146  0.00  0.00    +0.000 OA
ENDBRANCH  14  16
ENDBRANCH   1  13
TORSDOF 3
