REMARK  Name = *****
REMARK  2 active torsions:
REMARK  status: ('A' for Active; 'I' for Inactive)
REMARK    1  A    between atoms: C_1  and  C_2
REMARK    2  A    between atoms: C_5  and  C_8
REMARK                            x       y       z     vdW  Elec       q    Type
REMARK                         _______ _______ _______ _____ _____    ______ ____
ROOT
ATOM      1  C   UNL     1      -3.643   1.298  -0.194  0.00  0.00    +0.000 C 
ATOM      2  C   UNL     1      -4.075   2.571  -0.151  0.00  0.00    +0.000 C 
ATOM      3  C   UNL     1      -5.490   2.967  -0.216  0.00  0.00    +0.000 A 
ATOM      4  C   UNL     1      -5.817   4.300  -0.498  0.00  0.00    +0.000 A 
ATOM      5  C   UNL     1      -7.151   4.709  -0.548  0.00  0.00    +0.000 A 
ATOM      6  C   UNL     1      -8.169   3.790  -0.310  0.00  0.00    +0.000 A 
ATOM      7  C   UNL     1      -7.855   2.463  -0.018  0.00  0.00    +0.000 A 
ATOM      8  C   UNL     1      -6.517   2.037   0.025  0.00  0.00    +0.000 A 
ATOM      9  C   UNL     1      -6.199   0.621   0.426  0.00  0.00    +0.000 C 
ATOM     10  S   UNL     1      -4.717  -0.053  -0.368  0.00  0.00    +0.000 S 
ENDROOT
BRANCH   1  15
ATOM     11  C   UNL     1       2.036   0.126   0.084  0.00  0.00    +0.000 C 
ATOM     12  C   UNL     1       0.574   0.451  -0.005  0.00  0.00    +0.000 A 
ATOM     13  C   UNL     1      -0.049   1.199   0.999  0.00  0.00    +0.000 A 
ATOM     14  C   UNL     1      -1.420   1.470   0.934  0.00  0.00    +0.000 A 
ATOM     15  C   UNL     1      -2.198   0.994  -0.133  0.00  0.00    +0.000 A 
ATOM     16  C   UNL     1      -1.568   0.233  -1.128  0.00  0.00    +0.000 A 
ATOM     17  C   UNL     1      -0.199  -0.043  -1.061  0.00  0.00    +0.000 A 
ENDBRANCH   1  15
TORSDOF 1
