REMARK  Name = *****
REMARK  4 active torsions:
REMARK  status: ('A' for Active; 'I' for Inactive)
REMARK    1  A    between atoms: C_4  and  C_7
REMARK    2  A    between atoms: C_7  and  O_8
REMARK    3  A    between atoms: O_8  and  C_9
REMARK    4  A    between atoms: C_12  and  C_15
REMARK                            x       y       z     vdW  Elec       q    Type
REMARK                         _______ _______ _______ _____ _____    ______ ____
ROOT
ATOM      1  C   UNL     1      -4.712  -0.642  -1.170  0.00  0.00    +0.000 A 
ATOM      2  C   UNL     1      -5.333  -1.877  -1.374  0.00  0.00    +0.000 A 
ATOM      3  C   UNL     1      -6.671  -1.953  -1.776  0.00  0.00    +0.000 A 
ATOM      4  C   UNL     1      -7.409  -0.782  -1.979  0.00  0.00    +0.000 A 
ATOM      5  C   UNL     1      -6.784   0.457  -1.773  0.00  0.00    +0.000 A 
ATOM      6  C   UNL     1      -5.444   0.527  -1.371  0.00  0.00    +0.000 A 
ENDROOT
BRANCH   4   7
ATOM      7  C   UNL     1      -8.846  -0.808  -2.410  0.00  0.00    +0.000 C 
ATOM      8  O   UNL     1      -9.409   0.276  -2.557  0.00  0.00    +0.000 OA
ATOM      9 CL   UNL     1      -9.649  -2.341  -2.682  0.00  0.00    +0.000 Cl
ENDBRANCH   4   7
BRANCH   1  10
ATOM     10  O   UNL     1      -3.405  -0.720  -0.780  0.00  0.00    +0.000 OA
BRANCH  10  11
ATOM     11  C   UNL     1      -2.709   0.510  -0.573  0.00  0.00    +0.000 C 
BRANCH  11  15
ATOM     12  C   UNL     1       1.410  -0.275   0.457  0.00  0.00    +0.000 A 
ATOM     13  C   UNL     1       0.827  -0.928  -0.627  0.00  0.00    +0.000 A 
ATOM     14  C   UNL     1      -0.507  -0.681  -0.955  0.00  0.00    +0.000 A 
ATOM     15  C   UNL     1      -1.276   0.215  -0.197  0.00  0.00    +0.000 A 
ATOM     16  C   UNL     1      -0.674   0.873   0.885  0.00  0.00    +0.000 A 
ATOM     17  C   UNL     1       0.661   0.625   1.212  0.00  0.00    +0.000 A 
ENDBRANCH  11  15
ENDBRANCH  10  11
ENDBRANCH   1  10
TORSDOF 4
