REMARK  Name = *****
REMARK  3 active torsions:
REMARK  status: ('A' for Active; 'I' for Inactive)
REMARK    1  A    between atoms: C_4  and  C_16
REMARK    2  A    between atoms: C_5  and  C_7
REMARK    3  A    between atoms: C_8  and  C_9
REMARK                            x       y       z     vdW  Elec       q    Type
REMARK                         _______ _______ _______ _____ _____    ______ ____
ROOT
ATOM      1  C   UNL     1      -0.576   2.450   0.092  0.00  0.00    +0.000 C 
ATOM      2  C   UNL     1      -1.798   2.646  -0.427  0.00  0.00    +0.000 C 
ENDROOT
BRANCH   2   3
ATOM      3  C   UNL     1      -2.496   3.935  -0.363  0.00  0.00    +0.000 A 
ATOM      4  C   UNL     1      -1.866   5.137  -0.703  0.00  0.00    +0.000 A 
ATOM      5  C   UNL     1      -2.579   6.330  -0.651  0.00  0.00    +0.000 A 
ATOM      6  C   UNL     1      -3.916   6.355  -0.274  0.00  0.00    +0.000 A 
ATOM      7  C   UNL     1      -4.556   5.162   0.055  0.00  0.00    +0.000 A 
ATOM      8  C   UNL     1      -3.849   3.956   0.005  0.00  0.00    +0.000 A 
ATOM      9  F   UNL     1      -1.966   7.477  -0.976  0.00  0.00    +0.000 F 
ENDBRANCH   2   3
BRANCH   1  14
ATOM     10  C   UNL     1       2.080  -0.078  -0.702  0.00  0.00    +0.000 A 
ATOM     11  C   UNL     1       1.580  -1.242  -0.126  0.00  0.00    +0.000 A 
ATOM     12  C   UNL     1       0.354  -1.217   0.539  0.00  0.00    +0.000 A 
ATOM     13  C   UNL     1      -0.384  -0.026   0.630  0.00  0.00    +0.000 A 
ATOM     14  C   UNL     1       0.113   1.152   0.039  0.00  0.00    +0.000 A 
ATOM     15  C   UNL     1       1.353   1.112  -0.617  0.00  0.00    +0.000 A 
BRANCH  13  16
ATOM     16  C   UNL     1      -1.629  -0.052   1.345  0.00  0.00    +0.000 C 
ATOM     17  N   UNL     1      -2.639  -0.099   1.916  0.00  0.00    +0.000 NA
ENDBRANCH  13  16
ENDBRANCH   1  14
TORSDOF 3
