REMARK  Name = *****
REMARK  5 active torsions:
REMARK  status: ('A' for Active; 'I' for Inactive)
REMARK    1  A    between atoms: C_1  and  C_2
REMARK    2  A    between atoms: C_2  and  O_3
REMARK    3  A    between atoms: O_3  and  C_4
REMARK    4  A    between atoms: C_7  and  C_11
REMARK    5  A    between atoms: C_12  and  C_13
REMARK                            x       y       z     vdW  Elec       q    Type
REMARK                         _______ _______ _______ _____ _____    ______ ____
ROOT
ATOM      1  C   UNL     1       4.512   1.421  -0.724  0.00  0.00    +0.000 A 
ATOM      2  C   UNL     1       5.431   0.480  -1.192  0.00  0.00    +0.000 A 
ATOM      3  C   UNL     1       6.793   0.776  -1.277  0.00  0.00    +0.000 A 
ATOM      4  C   UNL     1       7.260   2.032  -0.891  0.00  0.00    +0.000 A 
ATOM      5  C   UNL     1       6.361   2.985  -0.419  0.00  0.00    +0.000 A 
ATOM      6  C   UNL     1       5.005   2.673  -0.341  0.00  0.00    +0.000 A 
ATOM      7  F   UNL     1       4.164   3.613   0.117  0.00  0.00    +0.000 F 
ATOM      8  F   UNL     1       5.046  -0.746  -1.577  0.00  0.00    +0.000 F 
ENDROOT
BRANCH   4   9
ATOM      9  C   UNL     1       8.653   2.339  -0.981  0.00  0.00    +0.000 C 
ATOM     10  C   UNL     1       9.823   2.598  -1.060  0.00  0.00    +0.000 C 
BRANCH  10  11
ATOM     11  C   UNL     1      11.216   2.909  -1.156  0.00  0.00    +0.000 A 
ATOM     12  C   UNL     1      11.637   4.241  -1.178  0.00  0.00    +0.000 A 
ATOM     13  C   UNL     1      12.996   4.543  -1.274  0.00  0.00    +0.000 A 
ATOM     14  C   UNL     1      13.936   3.515  -1.348  0.00  0.00    +0.000 A 
ATOM     15  C   UNL     1      13.519   2.184  -1.326  0.00  0.00    +0.000 A 
ATOM     16  C   UNL     1      12.159   1.881  -1.230  0.00  0.00    +0.000 A 
ENDBRANCH  10  11
ENDBRANCH   4   9
BRANCH   1  17
ATOM     17  O   UNL     1       3.160   1.261  -0.594  0.00  0.00    +0.000 OA
BRANCH  17  19
ATOM     18  C   UNL     1       1.098   0.085  -0.781  0.00  0.00    +0.000 C 
ATOM     19  C   UNL     1       2.599   0.012  -0.994  0.00  0.00    +0.000 C 
ENDBRANCH  17  19
ENDBRANCH   1  17
TORSDOF 4
