REMARK  Name = *****
REMARK  3 active torsions:
REMARK  status: ('A' for Active; 'I' for Inactive)
REMARK    1  A    between atoms: C_1  and  C_2
REMARK    2  A    between atoms: C_3  and  C_7
REMARK    3  A    between atoms: C_10  and  C_12
REMARK                            x       y       z     vdW  Elec       q    Type
REMARK                         _______ _______ _______ _____ _____    ______ ____
ROOT
ATOM      1  C   UNL     1       0.202  -2.557   0.237  0.00  0.00    +0.000 A 
ATOM      2  N   UNL     1      -0.389  -3.396  -0.595  0.00  0.00    +0.000 NA
ATOM      3  N   UNL     1       0.059  -4.663  -0.288  0.00  0.00    +0.000 NA
ATOM      4  C   UNL     1       0.899  -4.527   0.715  0.00  0.00    +0.000 A 
ATOM      5  O   UNL     1       1.042  -3.222   1.103  0.00  0.00    +0.000 OA
ENDROOT
BRANCH   1   8
ATOM      6  C   UNL     1      -1.715  -0.910  -1.661  0.00  0.00    +0.000 C 
ATOM      7  C   UNL     1      -0.834  -0.374  -0.577  0.00  0.00    +0.000 A 
ATOM      8  C   UNL     1      -0.001  -1.131   0.241  0.00  0.00    +0.000 A 
ATOM      9  S   UNL     1       0.848  -0.146   1.365  0.00  0.00    +0.000 S 
ATOM     10  C   UNL     1       0.124   1.280   0.778  0.00  0.00    +0.000 A 
ATOM     11  C   UNL     1      -0.750   1.023  -0.253  0.00  0.00    +0.000 A 
ENDBRANCH   1   8
BRANCH   4  12
ATOM     12  C   UNL     1       1.620  -5.694   1.360  0.00  0.00    +0.000 C 
ATOM     13  C   UNL     1       1.546  -5.699   2.917  0.00  0.00    +0.000 C 
ATOM     14  C   UNL     1       3.009  -6.176   2.918  0.00  0.00    +0.000 C 
ATOM     15  C   UNL     1       3.148  -5.461   1.562  0.00  0.00    +0.000 C 
ENDBRANCH   4  12
TORSDOF 2
