REMARK  Name = *****
REMARK  4 active torsions:
REMARK  status: ('A' for Active; 'I' for Inactive)
REMARK    1  A    between atoms: C_1  and  C_2
REMARK    2  A    between atoms: N_8  and  C_9
REMARK    3  A    between atoms: C_9  and  C_10
REMARK    4  A    between atoms: C_9  and  C_11
REMARK                            x       y       z     vdW  Elec       q    Type
REMARK                         _______ _______ _______ _____ _____    ______ ____
ROOT
ATOM      1  C   UNL     1       0.933   0.101   0.019  0.00  0.00    +0.000 C 
ATOM      2  C   UNL     1       2.458   0.034  -0.075  0.00  0.00    +0.000 C 
ATOM      3  C   UNL     1       3.018   0.985  -1.141  0.00  0.00    +0.000 C 
ATOM      4  C   UNL     1       2.722   0.535  -2.574  0.00  0.00    +0.000 C 
ATOM      5  C   UNL     1       3.200  -0.895  -2.822  0.00  0.00    +0.000 C 
ATOM      6  C   UNL     1       2.610  -1.871  -1.813  0.00  0.00    +0.000 C 
ATOM      7  C   UNL     1       2.911  -1.385  -0.404  0.00  0.00    +0.000 C 
ATOM      8  N   UNL     1       3.515  -2.207   0.378  0.00  0.00    +0.000 NA
ENDROOT
BRANCH   8   9
ATOM      9  C   UNL     1       3.928  -1.872   1.741  0.00  0.00    +0.000 C 
ATOM     10  C   UNL     1       2.771  -2.138   2.704  0.00  0.00    +0.000 C 
BRANCH   9  11
ATOM     11  C   UNL     1       5.137  -2.695   2.168  0.00  0.00    +0.000 A 
ATOM     12  C   UNL     1       6.113  -2.131   3.006  0.00  0.00    +0.000 A 
ATOM     13  C   UNL     1       7.212  -2.884   3.427  0.00  0.00    +0.000 A 
ATOM     14  C   UNL     1       7.347  -4.210   3.020  0.00  0.00    +0.000 A 
ATOM     15  C   UNL     1       6.385  -4.785   2.193  0.00  0.00    +0.000 A 
ATOM     16  C   UNL     1       5.286  -4.033   1.772  0.00  0.00    +0.000 A 
ENDBRANCH   9  11
ENDBRANCH   8   9
TORSDOF 2
