REMARK  Name = *****
REMARK  3 active torsions:
REMARK  status: ('A' for Active; 'I' for Inactive)
REMARK    1  A    between atoms: C_4  and  C_7
REMARK    2  A    between atoms: C_7  and  C_8
REMARK    3  A    between atoms: C_8  and  C_9
REMARK                            x       y       z     vdW  Elec       q    Type
REMARK                         _______ _______ _______ _____ _____    ______ ____
ROOT
ATOM      1  C   UNL     1      -4.833   1.539  -1.665  0.00  0.00    +0.000 C 
ATOM      2  F   UNL     1      -5.417   0.303  -1.770  0.00  0.00    +0.000 F 
ENDROOT
BRANCH   1   6
ATOM      3  C   UNL     1      -5.583   3.900  -5.211  0.00  0.00    +0.000 A 
ATOM      4  C   UNL     1      -5.790   2.523  -5.232  0.00  0.00    +0.000 A 
ATOM      5  C   UNL     1      -5.548   1.762  -4.087  0.00  0.00    +0.000 A 
ATOM      6  C   UNL     1      -5.096   2.371  -2.908  0.00  0.00    +0.000 A 
ATOM      7  C   UNL     1      -4.895   3.760  -2.899  0.00  0.00    +0.000 A 
ATOM      8  C   UNL     1      -5.136   4.519  -4.045  0.00  0.00    +0.000 A 
ENDBRANCH   1   6
BRANCH   1   9
ATOM      9  C   UNL     1      -3.325   1.357  -1.390  0.00  0.00    +0.000 C 
ATOM     10  F   UNL     1      -2.742   2.593  -1.274  0.00  0.00    +0.000 F 
BRANCH   9  11
ATOM     11  C   UNL     1      -3.063   0.517  -0.153  0.00  0.00    +0.000 A 
ATOM     12  C   UNL     1      -2.649   1.122   1.043  0.00  0.00    +0.000 A 
ATOM     13  C   UNL     1      -2.411   0.352   2.183  0.00  0.00    +0.000 A 
ATOM     14  C   UNL     1      -2.584  -1.030   2.140  0.00  0.00    +0.000 A 
ATOM     15  C   UNL     1      -2.994  -1.644   0.959  0.00  0.00    +0.000 A 
ATOM     16  C   UNL     1      -3.232  -0.876  -0.182  0.00  0.00    +0.000 A 
ENDBRANCH   9  11
ENDBRANCH   1   9
TORSDOF 3
