REMARK  Name = *****
REMARK  3 active torsions:
REMARK  status: ('A' for Active; 'I' for Inactive)
REMARK    1  A    between atoms: C_4  and  C_7
REMARK    2  A    between atoms: C_8  and  C_9
REMARK    3  A    between atoms: C_9  and  C_11
REMARK                            x       y       z     vdW  Elec       q    Type
REMARK                         _______ _______ _______ _____ _____    ______ ____
ROOT
ATOM      1  C   UNL     1      -2.789   0.392  -0.345  0.00  0.00    +0.000 C 
ATOM      2  C   UNL     1      -3.640  -0.591  -0.676  0.00  0.00    +0.000 C 
ENDROOT
BRANCH   1   6
ATOM      3  C   UNL     1       1.415  -0.062   0.304  0.00  0.00    +0.000 A 
ATOM      4  C   UNL     1       0.788  -0.823  -0.680  0.00  0.00    +0.000 A 
ATOM      5  C   UNL     1      -0.586  -0.690  -0.901  0.00  0.00    +0.000 A 
ATOM      6  C   UNL     1      -1.349   0.197  -0.130  0.00  0.00    +0.000 A 
ATOM      7  C   UNL     1      -0.703   0.969   0.845  0.00  0.00    +0.000 A 
ATOM      8  C   UNL     1       0.670   0.836   1.065  0.00  0.00    +0.000 A 
ENDBRANCH   1   6
BRANCH   2   9
ATOM      9  C   UNL     1      -5.088  -0.284  -0.836  0.00  0.00    +0.000 C 
ATOM     10  O   UNL     1      -5.567   0.789  -0.484  0.00  0.00    +0.000 OA
BRANCH   9  11
ATOM     11  C   UNL     1      -5.967  -1.345  -1.400  0.00  0.00    +0.000 A 
ATOM     12  C   UNL     1      -7.314  -1.359  -1.012  0.00  0.00    +0.000 A 
ATOM     13  C   UNL     1      -8.181  -2.329  -1.517  0.00  0.00    +0.000 A 
ATOM     14  C   UNL     1      -7.711  -3.281  -2.420  0.00  0.00    +0.000 A 
ATOM     15  C   UNL     1      -6.377  -3.262  -2.825  0.00  0.00    +0.000 A 
ATOM     16  C   UNL     1      -5.504  -2.293  -2.321  0.00  0.00    +0.000 A 
ENDBRANCH   9  11
ENDBRANCH   2   9
TORSDOF 3
