REMARK  Name = *****
REMARK  5 active torsions:
REMARK  status: ('A' for Active; 'I' for Inactive)
REMARK    1  A    between atoms: C_1  and  C_2
REMARK    2  A    between atoms: C_3  and  C_8
REMARK    3  A    between atoms: C_8  and  O_9
REMARK    4  A    between atoms: O_9  and  C_10
REMARK    5  A    between atoms: C_10  and  C_12
REMARK                            x       y       z     vdW  Elec       q    Type
REMARK                         _______ _______ _______ _____ _____    ______ ____
ROOT
ATOM      1  O   UNL     1       0.701   3.277  -1.179  0.00  0.00    +0.000 OA
ENDROOT
BRANCH   1   2
ATOM      2  C   UNL     1       0.157   4.515  -1.140  0.00  0.00    +0.000 C 
ATOM      3  O   UNL     1      -0.138   5.145  -0.137  0.00  0.00    +0.000 OA
BRANCH   2   4
ATOM      4  C   UNL     1      -0.062   5.024  -2.521  0.00  0.00    +0.000 A 
ATOM      5  C   UNL     1       0.391   4.338  -3.657  0.00  0.00    +0.000 A 
ATOM      6  C   UNL     1       0.163   4.863  -4.932  0.00  0.00    +0.000 A 
ATOM      7  C   UNL     1      -0.516   6.072  -5.079  0.00  0.00    +0.000 A 
ATOM      8  C   UNL     1      -0.970   6.760  -3.955  0.00  0.00    +0.000 A 
ATOM      9  C   UNL     1      -0.743   6.239  -2.679  0.00  0.00    +0.000 A 
ENDBRANCH   2   4
ENDBRANCH   1   2
BRANCH   1  10
ATOM     10  C   UNL     1       0.941   2.644   0.086  0.00  0.00    +0.000 C 
BRANCH  10  13
ATOM     11  C   UNL     1       2.598   0.004   0.118  0.00  0.00    +0.000 C 
ATOM     12  C   UNL     1       1.097   0.094   0.021  0.00  0.00    +0.000 C 
ATOM     13  C   UNL     1       0.376   1.241   0.013  0.00  0.00    +0.000 C 
ATOM     14  C   UNL     1      -1.143   1.227  -0.057  0.00  0.00    +0.000 C 
ATOM     15  C   UNL     1      -1.774  -0.133   0.230  0.00  0.00    +0.000 C 
ATOM     16  C   UNL     1      -1.030  -1.230  -0.510  0.00  0.00    +0.000 C 
ATOM     17  C   UNL     1       0.435  -1.268  -0.082  0.00  0.00    +0.000 C 
ENDBRANCH  10  13
ENDBRANCH   1  10
TORSDOF 4
