REMARK  Name = *****
REMARK  6 active torsions:
REMARK  status: ('A' for Active; 'I' for Inactive)
REMARK    1  A    between atoms: C_1  and  C_2
REMARK    2  A    between atoms: C_5  and  S_8
REMARK    3  A    between atoms: S_8  and  C_9
REMARK    4  A    between atoms: C_9  and  C_10
REMARK    5  A    between atoms: C_9  and  C_13
REMARK    6  A    between atoms: C_10  and  C_11
REMARK                            x       y       z     vdW  Elec       q    Type
REMARK                         _______ _______ _______ _____ _____    ______ ____
ROOT
ATOM      1  C   UNL     1      -3.923   1.741  -0.101  0.00  0.00    +0.000 C 
ENDROOT
BRANCH   1   2
ATOM      2  C   UNL     1      -2.975   2.933  -0.294  0.00  0.00    +0.000 A 
ATOM      3  C   UNL     1      -1.586   2.879  -0.079  0.00  0.00    +0.000 A 
ATOM      4  C   UNL     1      -0.776   4.008  -0.246  0.00  0.00    +0.000 A 
ATOM      5  C   UNL     1      -1.337   5.226  -0.609  0.00  0.00    +0.000 A 
ATOM      6  C   UNL     1      -2.711   5.320  -0.792  0.00  0.00    +0.000 A 
ATOM      7  C   UNL     1      -3.519   4.191  -0.627  0.00  0.00    +0.000 A 
ENDBRANCH   1   2
BRANCH   1   8
ATOM      8  S   UNL     1      -3.113   0.156   0.445  0.00  0.00    +0.000 S 
BRANCH   8  13
ATOM      9  C   UNL     1      -1.581  -2.892  -4.619  0.00  0.00    +0.000 C 
ATOM     10  C   UNL     1      -1.978  -2.118  -3.397  0.00  0.00    +0.000 A 
ATOM     11  C   UNL     1      -1.668  -0.759  -3.288  0.00  0.00    +0.000 A 
ATOM     12  C   UNL     1      -2.004  -0.042  -2.134  0.00  0.00    +0.000 A 
ATOM     13  C   UNL     1      -2.658  -0.669  -1.072  0.00  0.00    +0.000 A 
ATOM     14  C   UNL     1      -2.935  -2.038  -1.170  0.00  0.00    +0.000 A 
ATOM     15  C   UNL     1      -2.600  -2.757  -2.321  0.00  0.00    +0.000 A 
ENDBRANCH   8  13
ENDBRANCH   1   8
BRANCH   1  16
ATOM     16  C   UNL     1      -4.917   1.537  -1.257  0.00  0.00    +0.000 C 
BRANCH  16  17
ATOM     17  C   UNL     1      -6.035   0.606  -0.870  0.00  0.00    +0.000 C 
ATOM     18  O   UNL     1      -7.166   0.999  -0.598  0.00  0.00    +0.000 OA
ENDBRANCH  16  17
ENDBRANCH   1  16
TORSDOF 5
