REMARK  Name = *****
REMARK  6 active torsions:
REMARK  status: ('A' for Active; 'I' for Inactive)
REMARK    1  A    between atoms: C_1  and  C_2
REMARK    2  A    between atoms: C_3  and  C_19
REMARK    3  A    between atoms: C_5  and  C_8
REMARK    4  A    between atoms: C_5  and  S_10
REMARK    5  A    between atoms: S_10  and  C_11
REMARK    6  A    between atoms: C_11  and  C_13
REMARK                            x       y       z     vdW  Elec       q    Type
REMARK                         _______ _______ _______ _____ _____    ______ ____
ROOT
ATOM      1  C   UNL     1       0.857   0.012   0.146  0.00  0.00    +0.000 C 
ATOM      2  C   UNL     1       2.342   0.043  -0.107  0.00  0.00    +0.000 C 
ATOM      3  C   UNL     1       3.093   1.166  -0.166  0.00  0.00    +0.000 C 
ATOM      4  C   UNL     1       4.603   1.114  -0.350  0.00  0.00    +0.000 C 
ATOM      5  C   UNL     1       5.260  -0.267  -0.104  0.00  0.00    +0.000 C 
ATOM      6  C   UNL     1       4.388  -1.334  -0.782  0.00  0.00    +0.000 C 
ATOM      7  C   UNL     1       2.946  -1.335  -0.278  0.00  0.00    +0.000 C 
ATOM      8  C   UNL     1       2.556   2.572  -0.075  0.00  0.00    +0.000 C 
ENDROOT
BRANCH   5   9
ATOM      9  C   UNL     1       6.650  -0.236  -0.733  0.00  0.00    +0.000 C 
ATOM     10  O   UNL     1       7.422   0.720  -0.660  0.00  0.00    +0.000 OA
ENDBRANCH   5   9
BRANCH   5  11
ATOM     11  S   UNL     1       5.438  -0.522   1.721  0.00  0.00    +0.000 S 
BRANCH  11  12
ATOM     12  C   UNL     1       6.451  -1.955   1.810  0.00  0.00    +0.000 C 
ATOM     13  O   UNL     1       6.727  -2.601   0.806  0.00  0.00    +0.000 OA
BRANCH  12  14
ATOM     14  C   UNL     1       6.944  -2.393   3.152  0.00  0.00    +0.000 A 
ATOM     15  C   UNL     1       6.825  -1.619   4.316  0.00  0.00    +0.000 A 
ATOM     16  C   UNL     1       7.310  -2.099   5.536  0.00  0.00    +0.000 A 
ATOM     17  C   UNL     1       7.919  -3.351   5.607  0.00  0.00    +0.000 A 
ATOM     18  C   UNL     1       8.048  -4.126   4.457  0.00  0.00    +0.000 A 
ATOM     19  C   UNL     1       7.565  -3.650   3.236  0.00  0.00    +0.000 A 
ENDBRANCH  12  14
ENDBRANCH  11  12
ENDBRANCH   5  11
TORSDOF 4
