REMARK  Name = *****
REMARK  4 active torsions:
REMARK  status: ('A' for Active; 'I' for Inactive)
REMARK    1  A    between atoms: C_1  and  C_2
REMARK    2  A    between atoms: C_5  and  N_8
REMARK    3  A    between atoms: N_8  and  C_9
REMARK    4  A    between atoms: C_9  and  C_11
REMARK                            x       y       z     vdW  Elec       q    Type
REMARK                         _______ _______ _______ _____ _____    ______ ____
ROOT
ATOM      1  N   UNL     1      -3.128   0.140  -0.094  0.00  0.00    +0.000 N 
ATOM      2  H   UNL     1      -3.525  -0.720   0.172  0.00  0.00    +0.000 HD
ENDROOT
BRANCH   1   7
ATOM      3  C   UNL     1       2.589  -0.095   0.218  0.00  0.00    +0.000 C 
ATOM      4  C   UNL     1       1.093  -0.006   0.165  0.00  0.00    +0.000 A 
ATOM      5  C   UNL     1       0.459   1.230   0.010  0.00  0.00    +0.000 A 
ATOM      6  C   UNL     1      -0.937   1.312  -0.074  0.00  0.00    +0.000 A 
ATOM      7  C   UNL     1      -1.720   0.159  -0.032  0.00  0.00    +0.000 A 
ATOM      8  C   UNL     1      -1.082  -1.076   0.135  0.00  0.00    +0.000 A 
ATOM      9  C   UNL     1       0.311  -1.161   0.219  0.00  0.00    +0.000 A 
ENDBRANCH   1   7
BRANCH   1  10
ATOM     10  C   UNL     1      -4.056   1.094  -0.454  0.00  0.00    +0.000 C 
ATOM     11  S   UNL     1      -5.668   0.773  -0.085  0.00  0.00    +0.000 S 
BRANCH  10  12
ATOM     12  C   UNL     1      -3.672   2.282  -1.245  0.00  0.00    +0.000 A 
ATOM     13  C   UNL     1      -3.076   2.105  -2.498  0.00  0.00    +0.000 A 
ATOM     14  C   UNL     1      -2.736   3.224  -3.247  0.00  0.00    +0.000 A 
ATOM     15  C   UNL     1      -2.985   4.510  -2.776  0.00  0.00    +0.000 A 
ATOM     16  C   UNL     1      -3.591   4.686  -1.531  0.00  0.00    +0.000 A 
ATOM     17  C   UNL     1      -3.940   3.572  -0.765  0.00  0.00    +0.000 A 
ATOM     18  F   UNL     1      -2.158   3.064  -4.445  0.00  0.00    +0.000 F 
ENDBRANCH  10  12
ENDBRANCH   1  10
TORSDOF 3
