REMARK  Name = *****
REMARK  4 active torsions:
REMARK  status: ('A' for Active; 'I' for Inactive)
REMARK    1  A    between atoms: C_6  and  C_7
REMARK    2  A    between atoms: C_7  and  N_8
REMARK    3  A    between atoms: N_8  and  C_9
REMARK    4  A    between atoms: N_8  and  O_16
REMARK                            x       y       z     vdW  Elec       q    Type
REMARK                         _______ _______ _______ _____ _____    ______ ____
ROOT
ATOM      1  N   UNL     1       4.322   1.446   0.301  0.00  0.00    +0.000 N 
ENDROOT
BRANCH   1   2
ATOM      2  C   UNL     1       4.857   2.140  -0.802  0.00  0.00    +0.000 A 
ATOM      3  C   UNL     1       4.338   2.009  -2.100  0.00  0.00    +0.000 A 
ATOM      4  C   UNL     1       4.868   2.732  -3.177  0.00  0.00    +0.000 A 
ATOM      5  C   UNL     1       5.927   3.607  -2.969  0.00  0.00    +0.000 A 
ATOM      6  C   UNL     1       6.455   3.770  -1.694  0.00  0.00    +0.000 A 
ATOM      7  C   UNL     1       5.918   3.046  -0.624  0.00  0.00    +0.000 A 
ATOM      8 CL   UNL     1       6.579   4.496  -4.289  0.00  0.00    +0.000 Cl
ENDBRANCH   1   2
BRANCH   1   9
ATOM      9  O   UNL     1       4.913   1.595   1.562  0.00  0.00    +0.000 OA
ATOM     10  H   UNL     1       4.432   1.057   2.210  0.00  0.00    +0.000 HD
ENDBRANCH   1   9
BRANCH   1  11
ATOM     11  C   UNL     1       3.783   0.087   0.110  0.00  0.00    +0.000 C 
BRANCH  11  17
ATOM     12  C   UNL     1       1.757  -0.844  -1.083  0.00  0.00    +0.000 A 
ATOM     13  C   UNL     1       0.384  -0.880  -1.338  0.00  0.00    +0.000 A 
ATOM     14  C   UNL     1      -0.466   0.005  -0.680  0.00  0.00    +0.000 A 
ATOM     15  C   UNL     1       0.044   0.922   0.235  0.00  0.00    +0.000 A 
ATOM     16  C   UNL     1       1.417   0.957   0.490  0.00  0.00    +0.000 A 
ATOM     17  C   UNL     1       2.293   0.087  -0.178  0.00  0.00    +0.000 A 
ATOM     18 CL   UNL     1      -2.157  -0.040  -0.995  0.00  0.00    +0.000 Cl
ENDBRANCH  11  17
ENDBRANCH   1  11
TORSDOF 4
