REMARK  Name = *****
REMARK  4 active torsions:
REMARK  status: ('A' for Active; 'I' for Inactive)
REMARK    1  A    between atoms: C_1  and  C_2
REMARK    2  A    between atoms: C_4  and  O_9
REMARK    3  A    between atoms: O_9  and  C_10
REMARK    4  A    between atoms: C_10  and  C_12
REMARK                            x       y       z     vdW  Elec       q    Type
REMARK                         _______ _______ _______ _____ _____    ______ ____
ROOT
ATOM      1  C   UNL     1       3.537  -0.197   0.451  0.00  0.00    +0.000 C 
ATOM      2  C   UNL     1       2.079   0.006   0.161  0.00  0.00    +0.000 A 
ATOM      3  C   UNL     1       1.475   1.247   0.400  0.00  0.00    +0.000 A 
ATOM      4  C   UNL     1       0.114   1.416   0.139  0.00  0.00    +0.000 A 
ATOM      5  C   UNL     1      -0.670   0.353  -0.315  0.00  0.00    +0.000 A 
ATOM      6  C   UNL     1      -0.075  -0.887  -0.538  0.00  0.00    +0.000 A 
ATOM      7  C   UNL     1       1.292  -1.060  -0.299  0.00  0.00    +0.000 A 
ATOM      8 CL   UNL     1      -2.363   0.533  -0.585  0.00  0.00    +0.000 Cl
ENDROOT
BRANCH   4   9
ATOM      9  O   UNL     1      -0.462   2.660   0.416  0.00  0.00    +0.000 OA
BRANCH   9  10
ATOM     10  C   UNL     1      -0.494   3.505  -0.693  0.00  0.00    +0.000 C 
ATOM     11  O   UNL     1       0.002   3.246  -1.786  0.00  0.00    +0.000 OA
BRANCH  10  12
ATOM     12  C   UNL     1      -1.185   4.731  -0.333  0.00  0.00    +0.000 A 
ATOM     13  C   UNL     1      -1.797   5.085   0.858  0.00  0.00    +0.000 A 
ATOM     14  C   UNL     1      -2.372   6.389   0.814  0.00  0.00    +0.000 A 
ATOM     15  C   UNL     1      -2.182   6.992  -0.408  0.00  0.00    +0.000 A 
ATOM     16  S   UNL     1      -1.319   5.991  -1.491  0.00  0.00    +0.000 S 
ENDBRANCH  10  12
ENDBRANCH   9  10
ENDBRANCH   4   9
TORSDOF 3
