REMARK  Name = *****
REMARK  4 active torsions:
REMARK  status: ('A' for Active; 'I' for Inactive)
REMARK    1  A    between atoms: C_1  and  C_2
REMARK    2  A    between atoms: C_7  and  C_8
REMARK    3  A    between atoms: C_8  and  N_10
REMARK    4  A    between atoms: N_10  and  C_11
REMARK                            x       y       z     vdW  Elec       q    Type
REMARK                         _______ _______ _______ _____ _____    ______ ____
ROOT
ATOM      1  C   UNL     1       0.737  -2.525  -0.739  0.00  0.00    +0.000 C 
ATOM      2  S   UNL     1      -0.285  -3.481  -1.661  0.00  0.00    +0.000 S 
ENDROOT
BRANCH   1   9
ATOM      3  C   UNL     1       1.678  -0.007  -2.017  0.00  0.00    +0.000 C 
ATOM      4  C   UNL     1       0.719  -0.002  -0.860  0.00  0.00    +0.000 A 
ATOM      5  C   UNL     1       0.277   1.220  -0.332  0.00  0.00    +0.000 A 
ATOM      6  C   UNL     1      -0.608   1.254   0.749  0.00  0.00    +0.000 A 
ATOM      7  C   UNL     1      -1.062   0.069   1.323  0.00  0.00    +0.000 A 
ATOM      8  C   UNL     1      -0.629  -1.157   0.820  0.00  0.00    +0.000 A 
ATOM      9  C   UNL     1       0.254  -1.192  -0.269  0.00  0.00    +0.000 A 
ENDBRANCH   1   9
BRANCH   1  10
ATOM     10  N   UNL     1       2.017  -2.785  -0.266  0.00  0.00    +0.000 N 
ATOM     11  H   UNL     1       2.356  -2.095   0.349  0.00  0.00    +0.000 HD
BRANCH  10  12
ATOM     12  C   UNL     1       2.932  -3.840  -0.488  0.00  0.00    +0.000 A 
ATOM     13  C   UNL     1       2.789  -4.860  -1.427  0.00  0.00    +0.000 A 
ATOM     14  C   UNL     1       3.772  -5.848  -1.567  0.00  0.00    +0.000 A 
ATOM     15  C   UNL     1       4.915  -5.824  -0.773  0.00  0.00    +0.000 A 
ATOM     16  C   UNL     1       5.079  -4.807   0.160  0.00  0.00    +0.000 A 
ATOM     17  C   UNL     1       4.097  -3.822   0.297  0.00  0.00    +0.000 A 
ENDBRANCH  10  12
ENDBRANCH   1  10
TORSDOF 3
