REMARK  Name = *****
REMARK  4 active torsions:
REMARK  status: ('A' for Active; 'I' for Inactive)
REMARK    1  A    between atoms: C_4  and  C_7
REMARK    2  A    between atoms: C_7  and  S_8
REMARK    3  A    between atoms: S_8  and  C_9
REMARK    4  A    between atoms: C_10  and  C_16
REMARK                            x       y       z     vdW  Elec       q    Type
REMARK                         _______ _______ _______ _____ _____    ______ ____
ROOT
ATOM      1  C   UNL     1      -5.424  -0.839  -0.805  0.00  0.00    +0.000 A 
ATOM      2  C   UNL     1      -6.346  -1.867  -1.124  0.00  0.00    +0.000 A 
ATOM      3  C   UNL     1      -7.712  -1.560  -1.263  0.00  0.00    +0.000 A 
ATOM      4  C   UNL     1      -8.169  -0.253  -1.091  0.00  0.00    +0.000 A 
ATOM      5  C   UNL     1      -7.270   0.759  -0.778  0.00  0.00    +0.000 A 
ATOM      6  C   UNL     1      -5.912   0.468  -0.636  0.00  0.00    +0.000 A 
ATOM      7 CL   UNL     1      -8.897  -2.762  -1.652  0.00  0.00    +0.000 Cl
ENDROOT
BRANCH   2   8
ATOM      8  C   UNL     1      -5.912  -3.226  -1.308  0.00  0.00    +0.000 C 
ATOM      9  N   UNL     1      -5.580  -4.328  -1.461  0.00  0.00    +0.000 NA
ENDBRANCH   2   8
BRANCH   1  10
ATOM     10  S   UNL     1      -3.672  -1.236  -0.629  0.00  0.00    +0.000 S 
BRANCH  10  11
ATOM     11  C   UNL     1      -2.871   0.352  -0.228  0.00  0.00    +0.000 C 
BRANCH  11  15
ATOM     12  C   UNL     1       1.386  -0.146   0.270  0.00  0.00    +0.000 A 
ATOM     13  C   UNL     1       0.864   0.174  -0.981  0.00  0.00    +0.000 A 
ATOM     14  C   UNL     1      -0.513   0.336  -1.144  0.00  0.00    +0.000 A 
ATOM     15  C   UNL     1      -1.382   0.186  -0.052  0.00  0.00    +0.000 A 
ATOM     16  C   UNL     1      -0.844  -0.147   1.200  0.00  0.00    +0.000 A 
ATOM     17  C   UNL     1       0.533  -0.308   1.360  0.00  0.00    +0.000 A 
ENDBRANCH  11  15
ENDBRANCH  10  11
ENDBRANCH   1  10
TORSDOF 4
