REMARK  Name = *****
REMARK  4 active torsions:
REMARK  status: ('A' for Active; 'I' for Inactive)
REMARK    1  A    between atoms: C_1  and  C_2
REMARK    2  A    between atoms: C_7  and  C_8
REMARK    3  A    between atoms: N_9  and  C_10
REMARK    4  A    between atoms: C_15  and  S_16
REMARK                            x       y       z     vdW  Elec       q    Type
REMARK                         _______ _______ _______ _____ _____    ______ ____
ROOT
ATOM      1  C   UNL     1       1.171  -2.513   0.086  0.00  0.00    +0.000 C 
ATOM      2  N   UNL     1       2.372  -2.719  -0.362  0.00  0.00    +0.000 NA
ENDROOT
BRANCH   1   9
ATOM      3  C   UNL     1      -1.589  -2.079   1.138  0.00  0.00    +0.000 C 
ATOM      4  C   UNL     1      -0.788  -0.984   0.492  0.00  0.00    +0.000 A 
ATOM      5  C   UNL     1      -1.356   0.297   0.380  0.00  0.00    +0.000 A 
ATOM      6  C   UNL     1      -0.650   1.346  -0.211  0.00  0.00    +0.000 A 
ATOM      7  C   UNL     1       0.635   1.134  -0.700  0.00  0.00    +0.000 A 
ATOM      8  C   UNL     1       1.217  -0.129  -0.598  0.00  0.00    +0.000 A 
ATOM      9  C   UNL     1       0.514  -1.188  -0.005  0.00  0.00    +0.000 A 
ENDBRANCH   1   9
BRANCH   2  10
ATOM     10  C   UNL     1       2.870  -4.028  -0.202  0.00  0.00    +0.000 A 
ATOM     11  C   UNL     1       2.569  -4.993  -1.172  0.00  0.00    +0.000 A 
ATOM     12  C   UNL     1       3.049  -6.298  -1.052  0.00  0.00    +0.000 A 
ATOM     13  C   UNL     1       3.844  -6.649   0.037  0.00  0.00    +0.000 A 
ATOM     14  C   UNL     1       4.166  -5.694   1.003  0.00  0.00    +0.000 A 
ATOM     15  C   UNL     1       3.691  -4.382   0.886  0.00  0.00    +0.000 A 
BRANCH  15  16
ATOM     16  S   UNL     1       4.147  -3.191   2.141  0.00  0.00    +0.000 S 
ATOM     17  H   UNL     1       3.589  -1.986   1.847  0.00  0.00    +0.000 HD
ENDBRANCH  15  16
ENDBRANCH   2  10
TORSDOF 3
