REMARK  Name = *****
REMARK  5 active torsions:
REMARK  status: ('A' for Active; 'I' for Inactive)
REMARK    1  A    between atoms: C_1  and  C_2
REMARK    2  A    between atoms: C_2  and  C_4
REMARK    3  A    between atoms: C_4  and  C_5
REMARK    4  A    between atoms: C_4  and  C_12
REMARK    5  A    between atoms: C_5  and  C_6
REMARK                            x       y       z     vdW  Elec       q    Type
REMARK                         _______ _______ _______ _____ _____    ______ ____
ROOT
ATOM      1  C   UNL     1       3.402  -0.937  -0.806  0.00  0.00    +0.000 C 
ATOM      2 CL   UNL     1       5.234  -0.762  -0.739  0.00  0.00    +0.000 Cl
ENDROOT
BRANCH   1   3
ATOM      3  C   UNL     1       2.899  -0.695  -2.239  0.00  0.00    +0.000 A 
ATOM      4  C   UNL     1       1.613  -0.160  -2.460  0.00  0.00    +0.000 A 
ATOM      5  C   UNL     1       1.120   0.035  -3.752  0.00  0.00    +0.000 A 
ATOM      6  C   UNL     1       1.894  -0.315  -4.854  0.00  0.00    +0.000 A 
ATOM      7  C   UNL     1       3.153  -0.873  -4.663  0.00  0.00    +0.000 A 
ATOM      8  C   UNL     1       3.647  -1.071  -3.370  0.00  0.00    +0.000 A 
ENDBRANCH   1   3
BRANCH   1  10
ATOM      9  C   UNL     1       3.222   1.601  -0.122  0.00  0.00    +0.000 C 
ATOM     10  C   UNL     1       2.939   0.147   0.202  0.00  0.00    +0.000 C 
ATOM     11  O   UNL     1       2.429  -0.124   1.294  0.00  0.00    +0.000 OA
ENDBRANCH   1  10
BRANCH   1  12
ATOM     12  C   UNL     1       3.092  -2.380  -0.317  0.00  0.00    +0.000 C 
BRANCH  12  13
ATOM     13  C   UNL     1       1.654  -2.853  -0.411  0.00  0.00    +0.000 A 
ATOM     14  C   UNL     1       1.186  -3.482  -1.574  0.00  0.00    +0.000 A 
ATOM     15  C   UNL     1      -0.139  -3.911  -1.669  0.00  0.00    +0.000 A 
ATOM     16  C   UNL     1      -1.011  -3.724  -0.599  0.00  0.00    +0.000 A 
ATOM     17  C   UNL     1      -0.557  -3.112   0.566  0.00  0.00    +0.000 A 
ATOM     18  C   UNL     1       0.768  -2.681   0.661  0.00  0.00    +0.000 A 
ENDBRANCH  12  13
ENDBRANCH   1  12
TORSDOF 4
