REMARK  Name = *****
REMARK  7 active torsions:
REMARK  status: ('A' for Active; 'I' for Inactive)
REMARK    1  A    between atoms: C_1  and  C_2
REMARK    2  A    between atoms: C_4  and  C_8
REMARK    3  A    between atoms: C_8  and  C_9
REMARK    4  A    between atoms: C_8  and  O_16
REMARK    5  A    between atoms: C_9  and  C_10
REMARK    6  A    between atoms: O_16  and  C_17
REMARK    7  A    between atoms: C_17  and  C_19
REMARK                            x       y       z     vdW  Elec       q    Type
REMARK                         _______ _______ _______ _____ _____    ______ ____
ROOT
ATOM      1  C   UNL     1      -1.816   2.672   0.224  0.00  0.00    +0.000 C 
ENDROOT
BRANCH   1   5
ATOM      2  C   UNL     1      -0.702  -2.033   1.871  0.00  0.00    +0.000 C 
ATOM      3  C   UNL     1      -0.610  -0.951   0.836  0.00  0.00    +0.000 A 
ATOM      4  C   UNL     1      -1.236   0.290   1.034  0.00  0.00    +0.000 A 
ATOM      5  C   UNL     1      -1.152   1.310   0.072  0.00  0.00    +0.000 A 
ATOM      6  C   UNL     1      -0.403   1.062  -1.092  0.00  0.00    +0.000 A 
ATOM      7  C   UNL     1       0.238  -0.162  -1.289  0.00  0.00    +0.000 A 
ATOM      8  C   UNL     1       0.135  -1.164  -0.329  0.00  0.00    +0.000 A 
ENDBRANCH   1   5
BRANCH   1   9
ATOM      9  C   UNL     1      -2.846   2.787   1.369  0.00  0.00    +0.000 C 
BRANCH   9  10
ATOM     10  C   UNL     1      -3.535   4.135   1.421  0.00  0.00    +0.000 A 
ATOM     11  C   UNL     1      -4.426   4.525   0.412  0.00  0.00    +0.000 A 
ATOM     12  C   UNL     1      -5.046   5.775   0.461  0.00  0.00    +0.000 A 
ATOM     13  C   UNL     1      -4.787   6.644   1.519  0.00  0.00    +0.000 A 
ATOM     14  C   UNL     1      -3.907   6.265   2.530  0.00  0.00    +0.000 A 
ATOM     15  C   UNL     1      -3.283   5.018   2.481  0.00  0.00    +0.000 A 
ENDBRANCH   9  10
ENDBRANCH   1   9
BRANCH   1  16
ATOM     16  O   UNL     1      -0.765   3.627   0.486  0.00  0.00    +0.000 OA
BRANCH  16  17
ATOM     17  C   UNL     1      -0.579   4.589  -0.455  0.00  0.00    +0.000 C 
ATOM     18  O   UNL     1      -1.148   4.661  -1.535  0.00  0.00    +0.000 OA
ATOM     19  C   UNL     1       0.464   5.559   0.007  0.00  0.00    +0.000 C 
ENDBRANCH  16  17
ENDBRANCH   1  16
TORSDOF 5
