REMARK  Name = *****
REMARK  2 active torsions:
REMARK  status: ('A' for Active; 'I' for Inactive)
REMARK    1  A    between atoms: C_4  and  C_7
REMARK    2  A    between atoms: C_7  and  N_8
REMARK                            x       y       z     vdW  Elec       q    Type
REMARK                         _______ _______ _______ _____ _____    ______ ____
ROOT
ATOM      1  N   UNL     1      -3.930  -0.122  -0.866  0.00  0.00    +0.000 NA
ATOM      2  S   UNL     1      -4.066  -0.973  -2.307  0.00  0.00    +0.000 S 
ATOM      3  O   UNL     1      -2.799  -1.027  -3.108  0.00  0.00    +0.000 OA
ATOM      4  C   UNL     1      -5.035   0.316  -3.058  0.00  0.00    +0.000 A 
ATOM      5  C   UNL     1      -5.177   0.534  -4.423  0.00  0.00    +0.000 A 
ATOM      6  C   UNL     1      -6.001   1.576  -4.855  0.00  0.00    +0.000 A 
ATOM      7  C   UNL     1      -6.671   2.379  -3.924  0.00  0.00    +0.000 A 
ATOM      8  C   UNL     1      -6.515   2.151  -2.554  0.00  0.00    +0.000 A 
ATOM      9  C   UNL     1      -5.683   1.118  -2.140  0.00  0.00    +0.000 A 
ATOM     10  S   UNL     1      -5.345   0.687  -0.447  0.00  0.00    +0.000 S 
ATOM     11  O   UNL     1      -6.466  -0.238  -0.078  0.00  0.00    +0.000 OA
ENDROOT
BRANCH   1  12
ATOM     12  C   UNL     1      -2.630   0.487  -0.554  0.00  0.00    +0.000 C 
BRANCH  12  16
ATOM     13  C   UNL     1      -2.211   1.676   3.578  0.00  0.00    +0.000 A 
ATOM     14  C   UNL     1      -2.381   0.332   3.254  0.00  0.00    +0.000 A 
ATOM     15  C   UNL     1      -2.513  -0.053   1.919  0.00  0.00    +0.000 A 
ATOM     16  C   UNL     1      -2.480   0.905   0.895  0.00  0.00    +0.000 A 
ATOM     17  C   UNL     1      -2.305   2.255   1.234  0.00  0.00    +0.000 A 
ATOM     18  C   UNL     1      -2.173   2.637   2.570  0.00  0.00    +0.000 A 
ENDBRANCH  12  16
ENDBRANCH   1  12
TORSDOF 2
