REMARK  Name = *****
REMARK  3 active torsions:
REMARK  status: ('A' for Active; 'I' for Inactive)
REMARK    1  A    between atoms: C_4  and  C_7
REMARK    2  A    between atoms: C_7  and  O_9
REMARK    3  A    between atoms: O_9  and  C_10
REMARK                            x       y       z     vdW  Elec       q    Type
REMARK                         _______ _______ _______ _____ _____    ______ ____
ROOT
ATOM      1  C   UNL     1      -2.710   0.151   0.441  0.00  0.00    +0.000 C 
ATOM      2  O   UNL     1      -3.368   1.145   0.172  0.00  0.00    +0.000 OA
ENDROOT
BRANCH   1   6
ATOM      3  C   UNL     1       1.451  -0.127  -0.573  0.00  0.00    +0.000 A 
ATOM      4  C   UNL     1       0.837  -1.197   0.076  0.00  0.00    +0.000 A 
ATOM      5  C   UNL     1      -0.517  -1.129   0.417  0.00  0.00    +0.000 A 
ATOM      6  C   UNL     1      -1.264   0.017   0.106  0.00  0.00    +0.000 A 
ATOM      7  C   UNL     1      -0.638   1.088  -0.547  0.00  0.00    +0.000 A 
ATOM      8  C   UNL     1       0.715   1.015  -0.885  0.00  0.00    +0.000 A 
ENDBRANCH   1   6
BRANCH   1   9
ATOM      9  O   UNL     1      -3.151  -0.995   1.077  0.00  0.00    +0.000 OA
BRANCH   9  10
ATOM     10  C   UNL     1      -4.498  -0.974   1.451  0.00  0.00    +0.000 A 
ATOM     11  C   UNL     1      -4.942  -0.135   2.473  0.00  0.00    +0.000 A 
ATOM     12  C   UNL     1      -6.283  -0.181   2.859  0.00  0.00    +0.000 A 
ATOM     13  C   UNL     1      -7.154  -1.074   2.233  0.00  0.00    +0.000 A 
ATOM     14  C   UNL     1      -6.697  -1.926   1.226  0.00  0.00    +0.000 A 
ATOM     15  C   UNL     1      -5.358  -1.883   0.836  0.00  0.00    +0.000 A 
ATOM     16 CL   UNL     1      -8.806  -1.132   2.714  0.00  0.00    +0.000 Cl
ENDBRANCH   9  10
ENDBRANCH   1   9
TORSDOF 3
