REMARK  Name = *****
REMARK  3 active torsions:
REMARK  status: ('A' for Active; 'I' for Inactive)
REMARK    1  A    between atoms: C_1  and  N_2
REMARK    2  A    between atoms: C_3  and  C_9
REMARK    3  A    between atoms: C_10  and  C_11
REMARK                            x       y       z     vdW  Elec       q    Type
REMARK                         _______ _______ _______ _____ _____    ______ ____
ROOT
ATOM      1  C   UNL     1       2.745   2.623  -0.262  0.00  0.00    +0.000 C 
ATOM      2  C   UNL     1       2.466   3.098  -1.487  0.00  0.00    +0.000 C 
ATOM      3 CL   UNL     1       2.606   2.135  -2.917  0.00  0.00    +0.000 Cl
ENDROOT
BRANCH   1   6
ATOM      4  C   UNL     1       1.044   0.191  -0.372  0.00  0.00    +0.000 C 
ATOM      5  N   UNL     1       2.521   0.162  -0.107  0.00  0.00    +0.000 NA
ATOM      6  C   UNL     1       3.245   1.240  -0.027  0.00  0.00    +0.000 C 
ATOM      7  C   UNL     1       4.710   1.106   0.353  0.00  0.00    +0.000 C 
ATOM      8  C   UNL     1       5.550   0.504  -0.768  0.00  0.00    +0.000 C 
ATOM      9  C   UNL     1       5.462  -1.018  -0.833  0.00  0.00    +0.000 C 
ATOM     10  C   UNL     1       4.052  -1.555  -1.067  0.00  0.00    +0.000 C 
ATOM     11  C   UNL     1       3.085  -1.226   0.063  0.00  0.00    +0.000 C 
ENDBRANCH   1   6
BRANCH   2  12
ATOM     12  C   UNL     1       2.019   4.487  -1.676  0.00  0.00    +0.000 A 
ATOM     13  C   UNL     1       2.821   5.561  -1.258  0.00  0.00    +0.000 A 
ATOM     14  C   UNL     1       2.390   6.880  -1.433  0.00  0.00    +0.000 A 
ATOM     15  C   UNL     1       1.157   7.134  -2.028  0.00  0.00    +0.000 A 
ATOM     16  C   UNL     1       0.352   6.081  -2.454  0.00  0.00    +0.000 A 
ATOM     17  C   UNL     1       0.781   4.762  -2.279  0.00  0.00    +0.000 A 
ATOM     18 CL   UNL     1       0.628   8.756  -2.241  0.00  0.00    +0.000 Cl
ENDBRANCH   2  12
TORSDOF 2
