REMARK  Name = *****
REMARK  5 active torsions:
REMARK  status: ('A' for Active; 'I' for Inactive)
REMARK    1  A    between atoms: C_1  and  C_2
REMARK    2  A    between atoms: C_3  and  C_18
REMARK    3  A    between atoms: C_5  and  N_8
REMARK    4  A    between atoms: N_8  and  C_9
REMARK    5  A    between atoms: C_9  and  C_10
REMARK                            x       y       z     vdW  Elec       q    Type
REMARK                         _______ _______ _______ _____ _____    ______ ____
ROOT
ATOM      1  N   UNL     1      -2.798  -1.505  -0.481  0.00  0.00    +0.000 N 
ATOM      2  O   UNL     1      -3.839  -0.910  -0.916  0.00  0.00    +0.000 OA
ENDROOT
BRANCH   1   7
ATOM      3  C   UNL     1       1.958   1.631   0.310  0.00  0.00    +0.000 C 
ATOM      4  C   UNL     1       0.731   0.789   0.081  0.00  0.00    +0.000 A 
ATOM      5  C   UNL     1       0.743  -0.294  -0.825  0.00  0.00    +0.000 A 
ATOM      6  C   UNL     1      -0.427  -1.045  -1.015  0.00  0.00    +0.000 A 
ATOM      7  C   UNL     1      -1.584  -0.736  -0.291  0.00  0.00    +0.000 A 
ATOM      8  C   UNL     1      -1.609   0.349   0.585  0.00  0.00    +0.000 A 
ATOM      9  C   UNL     1      -0.452   1.103   0.772  0.00  0.00    +0.000 A 
ATOM     10  C   UNL     1       1.981  -0.653  -1.600  0.00  0.00    +0.000 C 
ENDBRANCH   1   7
BRANCH   1  11
ATOM     11  C   UNL     1      -2.855  -2.794  -0.234  0.00  0.00    +0.000 C 
BRANCH  11  12
ATOM     12  C   UNL     1      -1.798  -3.642   0.321  0.00  0.00    +0.000 A 
ATOM     13  C   UNL     1      -1.063  -3.284   1.453  0.00  0.00    +0.000 A 
ATOM     14  C   UNL     1      -0.088  -4.154   1.948  0.00  0.00    +0.000 A 
ATOM     15  C   UNL     1       0.130  -5.382   1.324  0.00  0.00    +0.000 A 
ATOM     16  C   UNL     1      -0.626  -5.754   0.213  0.00  0.00    +0.000 A 
ATOM     17  C   UNL     1      -1.600  -4.886  -0.285  0.00  0.00    +0.000 A 
ATOM     18 CL   UNL     1       1.331  -6.449   1.936  0.00  0.00    +0.000 Cl
ENDBRANCH  11  12
ENDBRANCH   1  11
TORSDOF 3
