REMARK  Name = *****
REMARK  3 active torsions:
REMARK  status: ('A' for Active; 'I' for Inactive)
REMARK    1  A    between atoms: C_4  and  O_7
REMARK    2  A    between atoms: O_7  and  C_8
REMARK    3  A    between atoms: C_8  and  C_10
REMARK                            x       y       z     vdW  Elec       q    Type
REMARK                         _______ _______ _______ _____ _____    ______ ____
ROOT
ATOM      1  C   UNL     1      -3.636  -0.820  -0.158  0.00  0.00    +0.000 C 
ATOM      2  O   UNL     1      -3.277  -1.980  -0.301  0.00  0.00    +0.000 OA
ENDROOT
BRANCH   1   3
ATOM      3  C   UNL     1      -5.060  -0.422  -0.178  0.00  0.00    +0.000 A 
ATOM      4  C   UNL     1      -5.968  -1.243  -0.865  0.00  0.00    +0.000 A 
ATOM      5  C   UNL     1      -7.324  -0.909  -0.908  0.00  0.00    +0.000 A 
ATOM      6  C   UNL     1      -7.782   0.239  -0.261  0.00  0.00    +0.000 A 
ATOM      7  C   UNL     1      -6.886   1.049   0.436  0.00  0.00    +0.000 A 
ATOM      8  C   UNL     1      -5.532   0.715   0.478  0.00  0.00    +0.000 A 
ATOM      9  F   UNL     1      -4.714   1.503   1.190  0.00  0.00    +0.000 F 
ENDBRANCH   1   3
BRANCH   1  10
ATOM     10  O   UNL     1      -2.840   0.302  -0.035  0.00  0.00    +0.000 OA
BRANCH  10  14
ATOM     11  C   UNL     1       1.315  -0.124   0.051  0.00  0.00    +0.000 A 
ATOM     12  C   UNL     1       0.600  -0.653  -1.027  0.00  0.00    +0.000 A 
ATOM     13  C   UNL     1      -0.789  -0.534  -1.070  0.00  0.00    +0.000 A 
ATOM     14  C   UNL     1      -1.452   0.100  -0.020  0.00  0.00    +0.000 A 
ATOM     15  C   UNL     1      -0.746   0.650   1.048  0.00  0.00    +0.000 A 
ATOM     16  C   UNL     1       0.643   0.530   1.086  0.00  0.00    +0.000 A 
ENDBRANCH  10  14
ENDBRANCH   1  10
TORSDOF 3
