REMARK  Name = *****
REMARK  4 active torsions:
REMARK  status: ('A' for Active; 'I' for Inactive)
REMARK    1  A    between atoms: C_3  and  C_8
REMARK    2  A    between atoms: C_8  and  O_9
REMARK    3  A    between atoms: O_9  and  C_10
REMARK    4  A    between atoms: C_14  and  C_16
REMARK                            x       y       z     vdW  Elec       q    Type
REMARK                         _______ _______ _______ _____ _____    ______ ____
ROOT
ATOM      1  O   UNL     1       1.592   3.627   0.194  0.00  0.00    +0.000 OA
ENDROOT
BRANCH   1   2
ATOM      2  C   UNL     1       2.100   4.893   0.116  0.00  0.00    +0.000 A 
ATOM      3  C   UNL     1       3.422   5.231  -0.173  0.00  0.00    +0.000 A 
ATOM      4  C   UNL     1       3.807   6.573  -0.221  0.00  0.00    +0.000 A 
ATOM      5  C   UNL     1       2.876   7.585   0.019  0.00  0.00    +0.000 A 
ATOM      6  C   UNL     1       1.545   7.260   0.311  0.00  0.00    +0.000 A 
ATOM      7  C   UNL     1       1.170   5.909   0.357  0.00  0.00    +0.000 A 
BRANCH   6   8
ATOM      8  C   UNL     1       0.508   8.311   0.575  0.00  0.00    +0.000 C 
ATOM      9  O   UNL     1      -0.636   7.930   0.819  0.00  0.00    +0.000 OA
ATOM     10 CL   UNL     1       0.952  10.006   0.529  0.00  0.00    +0.000 Cl
ENDBRANCH   6   8
ENDBRANCH   1   2
BRANCH   1  11
ATOM     11  C   UNL     1       2.482   2.545  -0.076  0.00  0.00    +0.000 C 
BRANCH  11  14
ATOM     12  C   UNL     1       1.502  -1.037   0.815  0.00  0.00    +0.000 A 
ATOM     13  C   UNL     1       2.200   0.172   0.764  0.00  0.00    +0.000 A 
ATOM     14  C   UNL     1       1.713   1.246   0.004  0.00  0.00    +0.000 A 
ATOM     15  C   UNL     1       0.520   1.079  -0.718  0.00  0.00    +0.000 A 
ATOM     16  C   UNL     1      -0.172  -0.130  -0.663  0.00  0.00    +0.000 A 
ATOM     17  C   UNL     1       0.314  -1.188   0.101  0.00  0.00    +0.000 A 
ATOM     18 CL   UNL     1      -1.635  -0.318  -1.550  0.00  0.00    +0.000 Cl
ENDBRANCH  11  14
ENDBRANCH   1  11
TORSDOF 4
