REMARK  Name = *****
REMARK  3 active torsions:
REMARK  status: ('A' for Active; 'I' for Inactive)
REMARK    1  A    between atoms: C_6  and  C_7
REMARK    2  A    between atoms: C_7  and  C_8
REMARK    3  A    between atoms: C_8  and  C_10
REMARK                            x       y       z     vdW  Elec       q    Type
REMARK                         _______ _______ _______ _____ _____    ______ ____
ROOT
ATOM      1  C   UNL     1       4.566   1.448  -0.026  0.00  0.00    +0.000 C 
ATOM      2  O   UNL     1       4.844   2.029  -1.076  0.00  0.00    +0.000 OA
ENDROOT
BRANCH   1   3
ATOM      3  C   UNL     1       4.881   2.113   1.277  0.00  0.00    +0.000 A 
ATOM      4  C   UNL     1       4.440   1.618   2.511  0.00  0.00    +0.000 A 
ATOM      5  C   UNL     1       4.776   2.281   3.697  0.00  0.00    +0.000 A 
ATOM      6  C   UNL     1       5.549   3.440   3.655  0.00  0.00    +0.000 A 
ATOM      7  C   UNL     1       5.988   3.947   2.435  0.00  0.00    +0.000 A 
ATOM      8  C   UNL     1       5.653   3.286   1.249  0.00  0.00    +0.000 A 
ATOM      9 CL   UNL     1       5.962   4.247   5.116  0.00  0.00    +0.000 Cl
ENDBRANCH   1   3
BRANCH   1  10
ATOM     10  C   UNL     1       3.917   0.076  -0.044  0.00  0.00    +0.000 C 
BRANCH  10  16
ATOM     11  C   UNL     1       1.701  -0.635   0.948  0.00  0.00    +0.000 A 
ATOM     12  C   UNL     1       0.304  -0.613   0.973  0.00  0.00    +0.000 A 
ATOM     13  C   UNL     1      -0.395   0.151   0.042  0.00  0.00    +0.000 A 
ATOM     14  C   UNL     1       0.291   0.891  -0.917  0.00  0.00    +0.000 A 
ATOM     15  C   UNL     1       1.687   0.871  -0.941  0.00  0.00    +0.000 A 
ATOM     16  C   UNL     1       2.408   0.118  -0.001  0.00  0.00    +0.000 A 
ATOM     17 CL   UNL     1      -2.115   0.172   0.072  0.00  0.00    +0.000 Cl
ENDBRANCH  10  16
ENDBRANCH   1  10
TORSDOF 3
