REMARK  Name = *****
REMARK  3 active torsions:
REMARK  status: ('A' for Active; 'I' for Inactive)
REMARK    1  A    between atoms: C_4  and  S_7
REMARK    2  A    between atoms: S_7  and  C_8
REMARK    3  A    between atoms: C_8  and  C_9
REMARK                            x       y       z     vdW  Elec       q    Type
REMARK                         _______ _______ _______ _____ _____    ______ ____
ROOT
ATOM      1  C   UNL     1      -5.402  -0.690  -0.476  0.00  0.00    +0.000 A 
ATOM      2  C   UNL     1      -5.974  -0.793  -1.747  0.00  0.00    +0.000 A 
ATOM      3  C   UNL     1      -7.338  -0.589  -1.941  0.00  0.00    +0.000 A 
ATOM      4  C   UNL     1      -8.152  -0.275  -0.863  0.00  0.00    +0.000 A 
ATOM      5  C   UNL     1      -7.605  -0.166   0.407  0.00  0.00    +0.000 A 
ATOM      6  C   UNL     1      -6.240  -0.371   0.597  0.00  0.00    +0.000 A 
ATOM      7  F   UNL     1      -5.727  -0.267   1.831  0.00  0.00    +0.000 F 
ATOM      8  F   UNL     1      -8.389   0.131   1.453  0.00  0.00    +0.000 F 
ATOM      9  F   UNL     1      -9.466  -0.083  -1.047  0.00  0.00    +0.000 F 
ATOM     10  F   UNL     1      -7.863  -0.701  -3.169  0.00  0.00    +0.000 F 
ATOM     11  F   UNL     1      -5.200  -1.102  -2.798  0.00  0.00    +0.000 F 
ENDROOT
BRANCH   1  12
ATOM     12  C   UNL     1      -3.926  -0.875  -0.274  0.00  0.00    +0.000 C 
BRANCH  12  13
ATOM     13  S   UNL     1      -3.038   0.706  -0.464  0.00  0.00    +0.000 S 
BRANCH  13  17
ATOM     14  C   UNL     1       1.186  -0.628   0.703  0.00  0.00    +0.000 A 
ATOM     15  C   UNL     1       0.588  -1.155  -0.441  0.00  0.00    +0.000 A 
ATOM     16  C   UNL     1      -0.699  -0.753  -0.805  0.00  0.00    +0.000 A 
ATOM     17  C   UNL     1      -1.397   0.172  -0.021  0.00  0.00    +0.000 A 
ATOM     18  C   UNL     1      -0.785   0.707   1.117  0.00  0.00    +0.000 A 
ATOM     19  C   UNL     1       0.502   0.304   1.480  0.00  0.00    +0.000 A 
ENDBRANCH  13  17
ENDBRANCH  12  13
ENDBRANCH   1  12
TORSDOF 3
