REMARK  Name = *****
REMARK  5 active torsions:
REMARK  status: ('A' for Active; 'I' for Inactive)
REMARK    1  A    between atoms: C_1  and  O_2
REMARK    2  A    between atoms: O_2  and  C_3
REMARK    3  A    between atoms: C_6  and  C_9
REMARK    4  A    between atoms: C_9  and  C_10
REMARK    5  A    between atoms: C_10  and  C_11
REMARK                            x       y       z     vdW  Elec       q    Type
REMARK                         _______ _______ _______ _____ _____    ______ ____
ROOT
ATOM      1  C   UNL     1       3.040  -0.908   0.733  0.00  0.00    +0.000 A 
ATOM      2  C   UNL     1       2.611  -1.059   2.051  0.00  0.00    +0.000 A 
ATOM      3  C   UNL     1       3.386  -1.783   2.965  0.00  0.00    +0.000 A 
ATOM      4  C   UNL     1       4.600  -2.361   2.573  0.00  0.00    +0.000 A 
ATOM      5  C   UNL     1       5.023  -2.211   1.248  0.00  0.00    +0.000 A 
ATOM      6  C   UNL     1       4.248  -1.488   0.339  0.00  0.00    +0.000 A 
ENDROOT
BRANCH   1   8
ATOM      7  C   UNL     1       1.145   0.377   0.096  0.00  0.00    +0.000 C 
ATOM      8  O   UNL     1       2.382  -0.229  -0.256  0.00  0.00    +0.000 OA
ENDBRANCH   1   8
BRANCH   4   9
ATOM      9  C   UNL     1       5.421  -3.160   3.554  0.00  0.00    +0.000 C 
BRANCH   9  10
ATOM     10  C   UNL     1       4.983  -4.626   3.595  0.00  0.00    +0.000 C 
BRANCH  10  11
ATOM     11  C   UNL     1       5.816  -5.429   4.563  0.00  0.00    +0.000 A 
ATOM     12  C   UNL     1       5.467  -5.491   5.919  0.00  0.00    +0.000 A 
ATOM     13  C   UNL     1       6.250  -6.218   6.818  0.00  0.00    +0.000 A 
ATOM     14  C   UNL     1       7.388  -6.886   6.371  0.00  0.00    +0.000 A 
ATOM     15  C   UNL     1       7.746  -6.826   5.025  0.00  0.00    +0.000 A 
ATOM     16  C   UNL     1       6.966  -6.100   4.125  0.00  0.00    +0.000 A 
ENDBRANCH  10  11
ENDBRANCH   9  10
ENDBRANCH   4   9
TORSDOF 4
