REMARK  Name = *****
REMARK  5 active torsions:
REMARK  status: ('A' for Active; 'I' for Inactive)
REMARK    1  A    between atoms: C_1  and  C_2
REMARK    2  A    between atoms: C_4  and  C_8
REMARK    3  A    between atoms: C_8  and  C_9
REMARK    4  A    between atoms: C_9  and  C_10
REMARK    5  A    between atoms: C_10  and  C_12
REMARK                            x       y       z     vdW  Elec       q    Type
REMARK                         _______ _______ _______ _____ _____    ______ ____
ROOT
ATOM      1  C   UNL     1      -1.867   2.440   0.093  0.00  0.00    +0.000 C 
ATOM      2  F   UNL     1      -1.056   3.525  -0.115  0.00  0.00    +0.000 F 
ENDROOT
BRANCH   1   6
ATOM      3  C   UNL     1       2.501  -0.057  -0.373  0.00  0.00    +0.000 C 
ATOM      4  C   UNL     1       1.003  -0.063  -0.291  0.00  0.00    +0.000 A 
ATOM      5  C   UNL     1       0.291   1.135  -0.148  0.00  0.00    +0.000 A 
ATOM      6  C   UNL     1      -1.109   1.137  -0.052  0.00  0.00    +0.000 A 
ATOM      7  C   UNL     1      -1.793  -0.087  -0.096  0.00  0.00    +0.000 A 
ATOM      8  C   UNL     1      -1.089  -1.285  -0.219  0.00  0.00    +0.000 A 
ATOM      9  C   UNL     1       0.302  -1.273  -0.310  0.00  0.00    +0.000 A 
ENDBRANCH   1   6
BRANCH   1  10
ATOM     10  C   UNL     1      -2.466   2.584   1.484  0.00  0.00    +0.000 C 
BRANCH  10  11
ATOM     11  C   UNL     1      -3.400   3.770   1.494  0.00  0.00    +0.000 C 
ATOM     12  O   UNL     1      -4.531   3.670   1.018  0.00  0.00    +0.000 OA
BRANCH  11  13
ATOM     13  C   UNL     1      -2.964   5.068   2.093  0.00  0.00    +0.000 A 
ATOM     14  C   UNL     1      -1.622   5.367   2.358  0.00  0.00    +0.000 A 
ATOM     15  C   UNL     1      -1.276   6.596   2.927  0.00  0.00    +0.000 A 
ATOM     16  C   UNL     1      -2.262   7.533   3.228  0.00  0.00    +0.000 A 
ATOM     17  C   UNL     1      -3.599   7.249   2.955  0.00  0.00    +0.000 A 
ATOM     18  C   UNL     1      -3.949   6.022   2.388  0.00  0.00    +0.000 A 
ENDBRANCH  11  13
ENDBRANCH  10  11
ENDBRANCH   1  10
TORSDOF 4
