REMARK  Name = *****
REMARK  2 active torsions:
REMARK  status: ('A' for Active; 'I' for Inactive)
REMARK    1  A    between atoms: C_1  and  N_2
REMARK    2  A    between atoms: C_3  and  C_11
REMARK                            x       y       z     vdW  Elec       q    Type
REMARK                         _______ _______ _______ _____ _____    ______ ____
ROOT
ATOM      1  C   UNL     1      -1.491  -2.496   0.164  0.00  0.00    +0.000 C 
ATOM      2  N   UNL     1      -1.112  -1.092   0.047  0.00  0.00    +0.000 N 
ATOM      3  C   UNL     1      -2.009  -0.117  -0.055  0.00  0.00    +0.000 C 
ATOM      4  S   UNL     1      -1.238   1.416  -0.095  0.00  0.00    +0.000 S 
ATOM      5  C   UNL     1       0.329   0.712  -0.055  0.00  0.00    +0.000 A 
ATOM      6  C   UNL     1       1.577   1.354  -0.085  0.00  0.00    +0.000 A 
ATOM      7  C   UNL     1       2.726   0.561  -0.049  0.00  0.00    +0.000 A 
ATOM      8  C   UNL     1       2.635  -0.825   0.012  0.00  0.00    +0.000 A 
ATOM      9  C   UNL     1       1.387  -1.460   0.045  0.00  0.00    +0.000 A 
ATOM     10  C   UNL     1       0.216  -0.675   0.016  0.00  0.00    +0.000 A 
ENDROOT
BRANCH   3  11
ATOM     11  C   UNL     1      -3.512  -0.273  -0.100  0.00  0.00    +0.000 C 
ATOM     12  C   UNL     1      -4.159   0.491  -1.268  0.00  0.00    +0.000 C 
ATOM     13  C   UNL     1      -5.674   0.293  -1.290  0.00  0.00    +0.000 C 
ATOM     14  C   UNL     1      -6.309   0.681   0.042  0.00  0.00    +0.000 C 
ATOM     15  C   UNL     1      -5.670  -0.064   1.210  0.00  0.00    +0.000 C 
ATOM     16  C   UNL     1      -4.154   0.122   1.240  0.00  0.00    +0.000 C 
ENDBRANCH   3  11
TORSDOF 1
