REMARK  Name = *****
REMARK  4 active torsions:
REMARK  status: ('A' for Active; 'I' for Inactive)
REMARK    1  A    between atoms: C_1  and  C_2
REMARK    2  A    between atoms: C_2  and  C_3
REMARK    3  A    between atoms: C_2  and  C_10
REMARK    4  A    between atoms: C_3  and  C_4
REMARK                            x       y       z     vdW  Elec       q    Type
REMARK                         _______ _______ _______ _____ _____    ______ ____
ROOT
ATOM      1  C   UNL     1       0.915  -0.047   0.642  0.00  0.00    +0.000 C 
ATOM      2  C   UNL     1       2.420   0.046   0.355  0.00  0.00    +0.000 C 
ENDROOT
BRANCH   2   3
ATOM      3  C   UNL     1       3.140  -1.208   0.832  0.00  0.00    +0.000 A 
ATOM      4  C   UNL     1       3.854  -1.993  -0.087  0.00  0.00    +0.000 A 
ATOM      5  C   UNL     1       4.528  -3.143   0.330  0.00  0.00    +0.000 A 
ATOM      6  C   UNL     1       4.498  -3.523   1.670  0.00  0.00    +0.000 A 
ATOM      7  C   UNL     1       3.795  -2.753   2.594  0.00  0.00    +0.000 A 
ATOM      8  C   UNL     1       3.121  -1.603   2.179  0.00  0.00    +0.000 A 
ENDBRANCH   2   3
BRANCH   2   9
ATOM      9  C   UNL     1       3.060   1.307   0.977  0.00  0.00    +0.000 C 
BRANCH   9  10
ATOM     10  C   UNL     1       2.587   2.599   0.352  0.00  0.00    +0.000 A 
ATOM     11  C   UNL     1       1.684   3.430   1.028  0.00  0.00    +0.000 A 
ATOM     12  C   UNL     1       1.242   4.618   0.445  0.00  0.00    +0.000 A 
ATOM     13  C   UNL     1       1.700   4.988  -0.819  0.00  0.00    +0.000 A 
ATOM     14  C   UNL     1       2.600   4.171  -1.499  0.00  0.00    +0.000 A 
ATOM     15  C   UNL     1       3.042   2.982  -0.918  0.00  0.00    +0.000 A 
ENDBRANCH   9  10
ENDBRANCH   2   9
TORSDOF 3
