REMARK  Name = *****
REMARK  6 active torsions:
REMARK  status: ('A' for Active; 'I' for Inactive)
REMARK    1  A    between atoms: C_1  and  O_2
REMARK    2  A    between atoms: O_2  and  C_3
REMARK    3  A    between atoms: C_3  and  C_5
REMARK    4  A    between atoms: C_9  and  C_11
REMARK    5  A    between atoms: C_11  and  C_12
REMARK    6  A    between atoms: C_12  and  C_13
REMARK                            x       y       z     vdW  Elec       q    Type
REMARK                         _______ _______ _______ _____ _____    ______ ____
ROOT
ATOM      1  C   UNL     1       4.607   0.347   1.084  0.00  0.00    +0.000 A 
ATOM      2  C   UNL     1       5.184   0.510  -0.182  0.00  0.00    +0.000 A 
ATOM      3  C   UNL     1       6.556   0.319  -0.356  0.00  0.00    +0.000 A 
ATOM      4  C   UNL     1       7.358  -0.037   0.729  0.00  0.00    +0.000 A 
ATOM      5  C   UNL     1       6.797  -0.209   2.001  0.00  0.00    +0.000 A 
ATOM      6  C   UNL     1       5.419  -0.009   2.171  0.00  0.00    +0.000 A 
ENDROOT
BRANCH   1   7
ATOM      7  C   UNL     1       3.151   0.538   1.330  0.00  0.00    +0.000 C 
ATOM      8  O   UNL     1       2.631   0.427   2.429  0.00  0.00    +0.000 OA
BRANCH   7  10
ATOM      9  C   UNL     1       1.098   1.032   0.332  0.00  0.00    +0.000 C 
ATOM     10  O   UNL     1       2.505   0.842   0.176  0.00  0.00    +0.000 OA
ENDBRANCH   7  10
ENDBRANCH   1   7
BRANCH   5  11
ATOM     11  C   UNL     1       7.667  -0.578   3.178  0.00  0.00    +0.000 C 
BRANCH  11  12
ATOM     12  C   UNL     1       8.328   0.655   3.803  0.00  0.00    +0.000 C 
BRANCH  12  13
ATOM     13  C   UNL     1       9.173   0.286   4.997  0.00  0.00    +0.000 A 
ATOM     14  C   UNL     1      10.494  -0.149   4.826  0.00  0.00    +0.000 A 
ATOM     15  C   UNL     1      11.268  -0.510   5.930  0.00  0.00    +0.000 A 
ATOM     16  C   UNL     1      10.729  -0.441   7.213  0.00  0.00    +0.000 A 
ATOM     17  C   UNL     1       9.415  -0.014   7.394  0.00  0.00    +0.000 A 
ATOM     18  C   UNL     1       8.638   0.346   6.291  0.00  0.00    +0.000 A 
ENDBRANCH  12  13
ENDBRANCH  11  12
ENDBRANCH   5  11
TORSDOF 5
