REMARK  Name = *****
REMARK  4 active torsions:
REMARK  status: ('A' for Active; 'I' for Inactive)
REMARK    1  A    between atoms: C_2  and  C_3
REMARK    2  A    between atoms: C_3  and  C_7
REMARK    3  A    between atoms: C_7  and  C_8
REMARK    4  A    between atoms: C_9  and  C_10
REMARK                            x       y       z     vdW  Elec       q    Type
REMARK                         _______ _______ _______ _____ _____    ______ ____
ROOT
ATOM      1  C   UNL     1       5.572   0.006  -1.811  0.00  0.00    +0.000 C 
ATOM      2  C   UNL     1       6.220  -1.000  -2.419  0.00  0.00    +0.000 C 
ENDROOT
BRANCH   2   3
ATOM      3  C   UNL     1       7.653  -0.985  -2.741  0.00  0.00    +0.000 A 
ATOM      4  C   UNL     1       8.608  -0.431  -1.878  0.00  0.00    +0.000 A 
ATOM      5  C   UNL     1       9.967  -0.466  -2.204  0.00  0.00    +0.000 A 
ATOM      6  C   UNL     1      10.385  -1.063  -3.391  0.00  0.00    +0.000 A 
ATOM      7  C   UNL     1       9.447  -1.630  -4.250  0.00  0.00    +0.000 A 
ATOM      8  C   UNL     1       8.089  -1.597  -3.924  0.00  0.00    +0.000 A 
ENDBRANCH   2   3
BRANCH   1   9
ATOM      9  C   UNL     1       4.097  -0.014  -1.514  0.00  0.00    +0.000 C 
BRANCH   9  10
ATOM     10  C   UNL     1       3.767  -0.046  -0.006  0.00  0.00    +0.000 C 
ATOM     11  C   UNL     1       4.468  -1.148   0.857  0.00  0.00    +0.000 C 
ATOM     12  C   UNL     1       5.443  -0.083   1.388  0.00  0.00    +0.000 C 
ATOM     13  C   UNL     1       4.466   1.008   0.917  0.00  0.00    +0.000 C 
BRANCH  10  15
ATOM     14  C   UNL     1       1.119  -0.055   0.300  0.00  0.00    +0.000 C 
ATOM     15  C   UNL     1       2.312  -0.051   0.161  0.00  0.00    +0.000 C 
ENDBRANCH  10  15
ENDBRANCH   9  10
ENDBRANCH   1   9
TORSDOF 4
