REMARK  Name = *****
REMARK  4 active torsions:
REMARK  status: ('A' for Active; 'I' for Inactive)
REMARK    1  A    between atoms: C_1  and  C_2
REMARK    2  A    between atoms: C_5  and  S_8
REMARK    3  A    between atoms: S_8  and  S_10
REMARK    4  A    between atoms: S_10  and  C_11
REMARK                            x       y       z     vdW  Elec       q    Type
REMARK                         _______ _______ _______ _____ _____    ______ ____
ROOT
ATOM      1  S   UNL     1      -3.679  -0.020  -0.125  0.00  0.00    +0.000 S 
ATOM      2  O   UNL     1      -4.102   1.421  -0.093  0.00  0.00    +0.000 OA
ENDROOT
BRANCH   1   7
ATOM      3  C   UNL     1       2.442  -0.042   0.002  0.00  0.00    +0.000 C 
ATOM      4  C   UNL     1       0.942  -0.022  -0.026  0.00  0.00    +0.000 A 
ATOM      5  C   UNL     1       0.241   1.188  -0.076  0.00  0.00    +0.000 A 
ATOM      6  C   UNL     1      -1.156   1.196  -0.109  0.00  0.00    +0.000 A 
ATOM      7  C   UNL     1      -1.870  -0.007  -0.099  0.00  0.00    +0.000 A 
ATOM      8  C   UNL     1      -1.171  -1.218  -0.047  0.00  0.00    +0.000 A 
ATOM      9  C   UNL     1       0.226  -1.225  -0.013  0.00  0.00    +0.000 A 
ENDBRANCH   1   7
BRANCH   1  10
ATOM     10  S   UNL     1      -4.007  -0.425  -2.087  0.00  0.00    +0.000 S 
BRANCH  10  11
ATOM     11  C   UNL     1      -5.787  -0.497  -2.158  0.00  0.00    +0.000 A 
ATOM     12  C   UNL     1      -6.563   0.662  -2.039  0.00  0.00    +0.000 A 
ATOM     13  C   UNL     1      -7.956   0.591  -2.115  0.00  0.00    +0.000 A 
ATOM     14  C   UNL     1      -8.576  -0.639  -2.320  0.00  0.00    +0.000 A 
ATOM     15  C   UNL     1      -7.815  -1.798  -2.452  0.00  0.00    +0.000 A 
ATOM     16  C   UNL     1      -6.421  -1.727  -2.375  0.00  0.00    +0.000 A 
ATOM     17 CL   UNL     1     -10.292  -0.728  -2.415  0.00  0.00    +0.000 Cl
ENDBRANCH  10  11
ENDBRANCH   1  10
TORSDOF 3
