REMARK  Name = *****
REMARK  1 active torsions:
REMARK  status: ('A' for Active; 'I' for Inactive)
REMARK    1  A    between atoms: C_6  and  C_11
REMARK                            x       y       z     vdW  Elec       q    Type
REMARK                         _______ _______ _______ _____ _____    ______ ____
ROOT
ATOM      1  C   UNL     1      -2.489   0.001   0.022  0.00  0.00    +0.000 A 
ATOM      2  C   UNL     1      -1.913   1.208   0.083  0.00  0.00    +0.000 A 
ATOM      3  C   UNL     1      -0.511   1.558   0.085  0.00  0.00    +0.000 A 
ATOM      4  C   UNL     1       0.539   0.732   0.014  0.00  0.00    +0.000 A 
ATOM      5  C   UNL     1       1.922   1.172   0.016  0.00  0.00    +0.000 A 
ATOM      6  C   UNL     1       2.703   0.076  -0.077  0.00  0.00    +0.000 A 
ATOM      7  C   UNL     1       1.817  -1.092  -0.134  0.00  0.00    +0.000 A 
ATOM      8  C   UNL     1       0.523  -0.718  -0.081  0.00  0.00    +0.000 A 
ATOM      9  C   UNL     1      -0.585  -1.634  -0.103  0.00  0.00    +0.000 A 
ATOM     10  C   UNL     1      -1.884  -1.309  -0.057  0.00  0.00    +0.000 A 
ENDROOT
BRANCH   6  11
ATOM     11  C   UNL     1       4.133   0.026  -0.118  0.00  0.00    +0.000 A 
ATOM     12  C   UNL     1       4.949   1.068   0.282  0.00  0.00    +0.000 A 
ATOM     13  S   UNL     1       6.615   0.707   0.116  0.00  0.00    +0.000 S 
ATOM     14  C   UNL     1       6.269  -0.850  -0.494  0.00  0.00    +0.000 A 
ATOM     15  C   UNL     1       4.913  -1.087  -0.568  0.00  0.00    +0.000 A 
ENDBRANCH   6  11
TORSDOF 1
