REMARK  Name = *****
REMARK  4 active torsions:
REMARK  status: ('A' for Active; 'I' for Inactive)
REMARK    1  A    between atoms: C_4  and  C_7
REMARK    2  A    between atoms: C_7  and  C_8
REMARK    3  A    between atoms: C_8  and  C_9
REMARK    4  A    between atoms: C_9  and  C_11
REMARK                            x       y       z     vdW  Elec       q    Type
REMARK                         _______ _______ _______ _____ _____    ______ ____
ROOT
ATOM      1  C   UNL     1      -3.043   1.306  -1.468  0.00  0.00    +0.000 C 
ENDROOT
BRANCH   1   2
ATOM      2  C   UNL     1      -3.076   0.634  -0.093  0.00  0.00    +0.000 C 
ATOM      3 CL   UNL     1      -4.332   1.393   0.946  0.00  0.00    +0.000 Cl
BRANCH   2   7
ATOM      4  C   UNL     1      -3.791  -3.624  -0.435  0.00  0.00    +0.000 A 
ATOM      5  C   UNL     1      -2.603  -3.150   0.118  0.00  0.00    +0.000 A 
ATOM      6  C   UNL     1      -2.384  -1.776   0.232  0.00  0.00    +0.000 A 
ATOM      7  C   UNL     1      -3.350  -0.856  -0.206  0.00  0.00    +0.000 A 
ATOM      8  C   UNL     1      -4.542  -1.351  -0.761  0.00  0.00    +0.000 A 
ATOM      9  C   UNL     1      -4.760  -2.726  -0.873  0.00  0.00    +0.000 A 
ENDBRANCH   2   7
ENDBRANCH   1   2
BRANCH   1  10
ATOM     10  C   UNL     1      -2.426   2.688  -1.400  0.00  0.00    +0.000 C 
ATOM     11  O   UNL     1      -1.602   2.995  -0.541  0.00  0.00    +0.000 OA
BRANCH  10  12
ATOM     12  C   UNL     1      -2.798   3.691  -2.440  0.00  0.00    +0.000 A 
ATOM     13  C   UNL     1      -2.566   5.046  -2.169  0.00  0.00    +0.000 A 
ATOM     14  C   UNL     1      -2.896   6.020  -3.114  0.00  0.00    +0.000 A 
ATOM     15  C   UNL     1      -3.452   5.644  -4.335  0.00  0.00    +0.000 A 
ATOM     16  C   UNL     1      -3.675   4.296  -4.616  0.00  0.00    +0.000 A 
ATOM     17  C   UNL     1      -3.348   3.319  -3.672  0.00  0.00    +0.000 A 
ENDBRANCH  10  12
ENDBRANCH   1  10
TORSDOF 4
