REMARK  Name = *****
REMARK  3 active torsions:
REMARK  status: ('A' for Active; 'I' for Inactive)
REMARK    1  A    between atoms: C_4  and  C_7
REMARK    2  A    between atoms: C_7  and  N_8
REMARK    3  A    between atoms: C_9  and  C_10
REMARK                            x       y       z     vdW  Elec       q    Type
REMARK                         _______ _______ _______ _____ _____    ______ ____
ROOT
ATOM      1  N   UNL     1      -3.545  -0.719  -0.775  0.00  0.00    +0.000 NA
ATOM      2  C   UNL     1      -4.830  -0.676  -0.851  0.00  0.00    +0.000 C 
ATOM      3 CL   UNL     1      -5.582  -2.192  -1.229  0.00  0.00    +0.000 Cl
ENDROOT
BRANCH   2   4
ATOM      4  C   UNL     1      -5.675   0.519  -0.692  0.00  0.00    +0.000 A 
ATOM      5  C   UNL     1      -5.619   1.552  -1.634  0.00  0.00    +0.000 A 
ATOM      6  C   UNL     1      -6.442   2.669  -1.478  0.00  0.00    +0.000 A 
ATOM      7  C   UNL     1      -7.319   2.748  -0.393  0.00  0.00    +0.000 A 
ATOM      8  C   UNL     1      -7.378   1.709   0.537  0.00  0.00    +0.000 A 
ATOM      9  C   UNL     1      -6.558   0.596   0.382  0.00  0.00    +0.000 A 
ATOM     10  F   UNL     1      -6.621  -0.388   1.289  0.00  0.00    +0.000 F 
ENDBRANCH   2   4
BRANCH   1  11
ATOM     11  C   UNL     1      -2.795   0.482  -0.409  0.00  0.00    +0.000 C 
BRANCH  11  15
ATOM     12  C   UNL     1       1.350  -0.268   0.567  0.00  0.00    +0.000 A 
ATOM     13  C   UNL     1       0.680  -1.123  -0.304  0.00  0.00    +0.000 A 
ATOM     14  C   UNL     1      -0.662  -0.893  -0.616  0.00  0.00    +0.000 A 
ATOM     15  C   UNL     1      -1.354   0.187  -0.050  0.00  0.00    +0.000 A 
ATOM     16  C   UNL     1      -0.661   1.049   0.815  0.00  0.00    +0.000 A 
ATOM     17  C   UNL     1       0.681   0.819   1.125  0.00  0.00    +0.000 A 
ENDBRANCH  11  15
ENDBRANCH   1  11
TORSDOF 3
