REMARK  Name = *****
REMARK  4 active torsions:
REMARK  status: ('A' for Active; 'I' for Inactive)
REMARK    1  A    between atoms: C_1  and  C_2
REMARK    2  A    between atoms: C_4  and  C_16
REMARK    3  A    between atoms: C_5  and  C_8
REMARK    4  A    between atoms: C_10  and  C_11
REMARK                            x       y       z     vdW  Elec       q    Type
REMARK                         _______ _______ _______ _____ _____    ______ ____
ROOT
ATOM      1  C   UNL     1       2.497   1.304   0.158  0.00  0.00    +0.000 C 
ATOM      2  C   UNL     1       1.238   0.509  -0.018  0.00  0.00    +0.000 A 
ATOM      3  C   UNL     1      -0.012   1.091   0.213  0.00  0.00    +0.000 A 
ATOM      4  C   UNL     1      -1.202   0.350   0.076  0.00  0.00    +0.000 A 
ATOM      5  C   UNL     1      -1.151  -1.026  -0.243  0.00  0.00    +0.000 A 
ATOM      6  C   UNL     1       0.119  -1.583  -0.488  0.00  0.00    +0.000 A 
ATOM      7  C   UNL     1       1.295  -0.839  -0.366  0.00  0.00    +0.000 A 
ATOM      8  C   UNL     1      -2.510   1.057   0.312  0.00  0.00    +0.000 C 
ENDROOT
BRANCH   5   9
ATOM      9  C   UNL     1      -2.389  -1.889  -0.397  0.00  0.00    +0.000 C 
ATOM     10  C   UNL     1      -3.415  -2.016   0.686  0.00  0.00    +0.000 C 
ATOM     11  C   UNL     1      -2.578  -3.219   0.325  0.00  0.00    +0.000 C 
BRANCH  11  12
ATOM     12  C   UNL     1      -1.633  -3.765   1.386  0.00  0.00    +0.000 A 
ATOM     13  C   UNL     1      -0.945  -3.079   2.367  0.00  0.00    +0.000 A 
ATOM     14  C   UNL     1      -0.212  -4.043   3.102  0.00  0.00    +0.000 A 
ATOM     15  C   UNL     1      -0.503  -5.257   2.531  0.00  0.00    +0.000 A 
ATOM     16  O   UNL     1      -1.365  -5.100   1.495  0.00  0.00    +0.000 OA
ENDBRANCH  11  12
ENDBRANCH   5   9
TORSDOF 2
