REMARK  Name = *****
REMARK  3 active torsions:
REMARK  status: ('A' for Active; 'I' for Inactive)
REMARK    1  A    between atoms: C_4  and  C_7
REMARK    2  A    between atoms: C_7  and  C_8
REMARK    3  A    between atoms: C_8  and  C_9
REMARK                            x       y       z     vdW  Elec       q    Type
REMARK                         _______ _______ _______ _____ _____    ______ ____
ROOT
ATOM      1  C   UNL     1      -3.665  -0.905  -0.358  0.00  0.00    +0.000 C 
ATOM      2 CL   UNL     1      -3.562  -2.099   1.006  0.00  0.00    +0.000 Cl
ATOM      3 CL   UNL     1      -5.388  -0.291  -0.340  0.00  0.00    +0.000 Cl
ENDROOT
BRANCH   1   4
ATOM      4  C   UNL     1      -3.473  -1.580  -1.721  0.00  0.00    +0.000 A 
ATOM      5  C   UNL     1      -4.003  -2.861  -1.983  0.00  0.00    +0.000 A 
ATOM      6  C   UNL     1      -3.847  -3.477  -3.228  0.00  0.00    +0.000 A 
ATOM      7  C   UNL     1      -3.172  -2.820  -4.251  0.00  0.00    +0.000 A 
ATOM      8  C   UNL     1      -2.663  -1.545  -4.031  0.00  0.00    +0.000 A 
ATOM      9  C   UNL     1      -2.818  -0.929  -2.785  0.00  0.00    +0.000 A 
ENDBRANCH   1   4
BRANCH   1  10
ATOM     10  C   UNL     1      -2.755   0.308  -0.020  0.00  0.00    +0.000 C 
BRANCH  10  14
ATOM     11  C   UNL     1       1.574   0.111   0.197  0.00  0.00    +0.000 A 
ATOM     12  C   UNL     1       0.859  -1.050  -0.084  0.00  0.00    +0.000 A 
ATOM     13  C   UNL     1      -0.537  -1.020  -0.159  0.00  0.00    +0.000 A 
ATOM     14  C   UNL     1      -1.241   0.173   0.046  0.00  0.00    +0.000 A 
ATOM     15  C   UNL     1      -0.501   1.336   0.331  0.00  0.00    +0.000 A 
ATOM     16  C   UNL     1       0.893   1.306   0.405  0.00  0.00    +0.000 A 
ENDBRANCH  10  14
ENDBRANCH   1  10
TORSDOF 3
