REMARK  Name = *****
REMARK  3 active torsions:
REMARK  status: ('A' for Active; 'I' for Inactive)
REMARK    1  A    between atoms: C_5  and  O_8
REMARK    2  A    between atoms: O_8  and  C_9
REMARK    3  A    between atoms: C_9  and  C_11
REMARK                            x       y       z     vdW  Elec       q    Type
REMARK                         _______ _______ _______ _____ _____    ______ ____
ROOT
ATOM      1  C   UNL     1       3.326  -0.703  -1.790  0.00  0.00    +0.000 C 
ATOM      2  O   UNL     1       4.076  -1.278  -1.018  0.00  0.00    +0.000 OA
ENDROOT
BRANCH   1   3
ATOM      3  C   UNL     1       3.539  -0.657  -3.262  0.00  0.00    +0.000 A 
ATOM      4  C   UNL     1       2.619  -0.063  -4.139  0.00  0.00    +0.000 A 
ATOM      5  C   UNL     1       2.867  -0.050  -5.515  0.00  0.00    +0.000 A 
ATOM      6  C   UNL     1       4.031  -0.630  -6.017  0.00  0.00    +0.000 A 
ATOM      7  C   UNL     1       4.951  -1.225  -5.156  0.00  0.00    +0.000 A 
ATOM      8  C   UNL     1       4.706  -1.240  -3.780  0.00  0.00    +0.000 A 
ATOM      9 CL   UNL     1       4.333  -0.612  -7.711  0.00  0.00    +0.000 Cl
ENDBRANCH   1   3
BRANCH   1  10
ATOM     10  O   UNL     1       2.202  -0.024  -1.455  0.00  0.00    +0.000 OA
BRANCH  10  15
ATOM     11  C   UNL     1      -2.299  -0.135   0.378  0.00  0.00    +0.000 C 
ATOM     12  C   UNL     1      -1.060  -0.113  -0.134  0.00  0.00    +0.000 C 
ATOM     13  C   UNL     1      -0.256  -1.367  -0.367  0.00  0.00    +0.000 C 
ATOM     14  C   UNL     1       1.103  -1.275   0.331  0.00  0.00    +0.000 C 
ATOM     15  C   UNL     1       1.864   0.002  -0.052  0.00  0.00    +0.000 C 
ATOM     16  C   UNL     1       1.007   1.251   0.196  0.00  0.00    +0.000 C 
ATOM     17  C   UNL     1      -0.354   1.168  -0.498  0.00  0.00    +0.000 C 
ENDBRANCH  10  15
ENDBRANCH   1  10
TORSDOF 3
