REMARK  Name = *****
REMARK  4 active torsions:
REMARK  status: ('A' for Active; 'I' for Inactive)
REMARK    1  A    between atoms: C_4  and  C_7
REMARK    2  A    between atoms: C_7  and  S_8
REMARK    3  A    between atoms: S_8  and  S_9
REMARK    4  A    between atoms: S_9  and  C_12
REMARK                            x       y       z     vdW  Elec       q    Type
REMARK                         _______ _______ _______ _____ _____    ______ ____
ROOT
ATOM      1  S   UNL     1      -5.716  -0.711  -0.518  0.00  0.00    +0.000 S 
ATOM      2  O   UNL     1      -6.174   0.220   0.494  0.00  0.00    +0.000 OA
ATOM      3  O   UNL     1      -5.694  -0.343  -1.919  0.00  0.00    +0.000 OA
ENDROOT
BRANCH   1   4
ATOM      4  C   UNL     1      -6.667  -2.203  -0.358  0.00  0.00    +0.000 A 
ATOM      5  C   UNL     1      -7.262  -2.514   0.871  0.00  0.00    +0.000 A 
ATOM      6  C   UNL     1      -8.028  -3.676   0.988  0.00  0.00    +0.000 A 
ATOM      7  C   UNL     1      -8.202  -4.509  -0.118  0.00  0.00    +0.000 A 
ATOM      8  C   UNL     1      -7.620  -4.190  -1.346  0.00  0.00    +0.000 A 
ATOM      9  C   UNL     1      -6.852  -3.030  -1.471  0.00  0.00    +0.000 A 
ATOM     10 CL   UNL     1      -9.148  -5.938   0.032  0.00  0.00    +0.000 Cl
ENDBRANCH   1   4
BRANCH   1  11
ATOM     11  S   UNL     1      -3.797  -1.309   0.002  0.00  0.00    +0.000 S 
BRANCH  11  12
ATOM     12  C   UNL     1      -2.943   0.277  -0.146  0.00  0.00    +0.000 C 
BRANCH  12  16
ATOM     13  C   UNL     1       1.245  -0.109   0.807  0.00  0.00    +0.000 A 
ATOM     14  C   UNL     1       0.814  -0.259  -0.509  0.00  0.00    +0.000 A 
ATOM     15  C   UNL     1      -0.541  -0.132  -0.820  0.00  0.00    +0.000 A 
ATOM     16  C   UNL     1      -1.478   0.153   0.185  0.00  0.00    +0.000 A 
ATOM     17  C   UNL     1      -1.032   0.294   1.508  0.00  0.00    +0.000 A 
ATOM     18  C   UNL     1       0.323   0.166   1.816  0.00  0.00    +0.000 A 
ENDBRANCH  12  16
ENDBRANCH  11  12
ENDBRANCH   1  11
TORSDOF 4
