REMARK  Name = *****
REMARK  2 active torsions:
REMARK  status: ('A' for Active; 'I' for Inactive)
REMARK    1  A    between atoms: C_1  and  C_2
REMARK    2  A    between atoms: C_8  and  C_10
REMARK                            x       y       z     vdW  Elec       q    Type
REMARK                         _______ _______ _______ _____ _____    ______ ____
ROOT
ATOM      1  C   UNL     1       0.900   0.032   0.150  0.00  0.00    +0.000 C 
ATOM      2  C   UNL     1       2.400   0.020   0.125  0.00  0.00    +0.000 A 
ATOM      3  C   UNL     1       3.129   1.213   0.063  0.00  0.00    +0.000 A 
ATOM      4  C   UNL     1       4.534   1.203   0.043  0.00  0.00    +0.000 A 
ATOM      5  C   UNL     1       5.218  -0.025   0.057  0.00  0.00    +0.000 A 
ATOM      6  C   UNL     1       6.725  -0.092   0.060  0.00  0.00    +0.000 C 
ATOM      7  C   UNL     1       7.388   1.203  -0.406  0.00  0.00    +0.000 C 
ATOM      8  C   UNL     1       6.762   2.407   0.312  0.00  0.00    +0.000 C 
ATOM      9  C   UNL     1       5.272   2.518  -0.058  0.00  0.00    +0.000 C 
ATOM     10  C   UNL     1       4.484  -1.217   0.131  0.00  0.00    +0.000 A 
ATOM     11  C   UNL     1       3.089  -1.195   0.161  0.00  0.00    +0.000 A 
ENDROOT
BRANCH   8  12
ATOM     12  C   UNL     1       7.507   3.700   0.030  0.00  0.00    +0.000 A 
ATOM     13  C   UNL     1       7.703   4.170  -1.278  0.00  0.00    +0.000 A 
ATOM     14  C   UNL     1       8.387   5.365  -1.512  0.00  0.00    +0.000 A 
ATOM     15  C   UNL     1       8.883   6.107  -0.442  0.00  0.00    +0.000 A 
ATOM     16  C   UNL     1       8.695   5.655   0.862  0.00  0.00    +0.000 A 
ATOM     17  C   UNL     1       8.011   4.460   1.096  0.00  0.00    +0.000 A 
ENDBRANCH   8  12
TORSDOF 1
