REMARK  Name = *****
REMARK  3 active torsions:
REMARK  status: ('A' for Active; 'I' for Inactive)
REMARK    1  A    between atoms: C_4  and  C_7
REMARK    2  A    between atoms: C_7  and  C_16
REMARK    3  A    between atoms: C_8  and  C_9
REMARK                            x       y       z     vdW  Elec       q    Type
REMARK                         _______ _______ _______ _____ _____    ______ ____
ROOT
ATOM      1  C   UNL     1      -2.880   0.392  -0.084  0.00  0.00    +0.000 C 
ATOM      2  C   UNL     1      -3.290   1.673  -0.195  0.00  0.00    +0.000 C 
ENDROOT
BRANCH   2   3
ATOM      3  C   UNL     1      -2.426   2.865  -0.180  0.00  0.00    +0.000 A 
ATOM      4  C   UNL     1      -1.599   3.114  -1.286  0.00  0.00    +0.000 A 
ATOM      5  C   UNL     1      -0.768   4.236  -1.316  0.00  0.00    +0.000 A 
ATOM      6  C   UNL     1      -0.758   5.126  -0.244  0.00  0.00    +0.000 A 
ATOM      7  C   UNL     1      -1.580   4.896   0.859  0.00  0.00    +0.000 A 
ATOM      8  C   UNL     1      -2.412   3.772   0.892  0.00  0.00    +0.000 A 
ATOM      9 BR   UNL     1      -3.494   3.526   2.436  0.00  0.00    +0.000 Br
ENDBRANCH   2   3
BRANCH   1  13
ATOM     10  C   UNL     1       1.229  -0.703   0.396  0.00  0.00    +0.000 A 
ATOM     11  C   UNL     1       0.559  -0.048   1.428  0.00  0.00    +0.000 A 
ATOM     12  C   UNL     1      -0.782   0.308   1.275  0.00  0.00    +0.000 A 
ATOM     13  C   UNL     1      -1.463   0.016   0.085  0.00  0.00    +0.000 A 
ATOM     14  C   UNL     1      -0.781  -0.648  -0.945  0.00  0.00    +0.000 A 
ATOM     15  C   UNL     1       0.560  -1.004  -0.789  0.00  0.00    +0.000 A 
ENDBRANCH   1  13
BRANCH   1  16
ATOM     16  C   UNL     1      -3.854  -0.655  -0.144  0.00  0.00    +0.000 C 
ATOM     17  N   UNL     1      -4.655  -1.493  -0.207  0.00  0.00    +0.000 NA
ENDBRANCH   1  16
TORSDOF 3
