REMARK  Name = *****
REMARK  3 active torsions:
REMARK  status: ('A' for Active; 'I' for Inactive)
REMARK    1  A    between atoms: C_5  and  C_7
REMARK    2  A    between atoms: C_7  and  O_9
REMARK    3  A    between atoms: O_9  and  C_10
REMARK                            x       y       z     vdW  Elec       q    Type
REMARK                         _______ _______ _______ _____ _____    ______ ____
ROOT
ATOM      1  C   UNL     1      -0.527  -2.238   0.441  0.00  0.00    +0.000 C 
ATOM      2  O   UNL     1      -0.216  -3.355   0.061  0.00  0.00    +0.000 OA
ENDROOT
BRANCH   1   7
ATOM      3  C   UNL     1       2.457   0.008   0.150  0.00  0.00    +0.000 A 
ATOM      4  C   UNL     1       1.901   1.172  -0.380  0.00  0.00    +0.000 A 
ATOM      5  C   UNL     1       0.534   1.229  -0.664  0.00  0.00    +0.000 A 
ATOM      6  C   UNL     1      -0.287   0.125  -0.411  0.00  0.00    +0.000 A 
ATOM      7  C   UNL     1       0.268  -1.034   0.141  0.00  0.00    +0.000 A 
ATOM      8  C   UNL     1       1.645  -1.097   0.405  0.00  0.00    +0.000 A 
ATOM      9 CL   UNL     1      -1.952   0.249  -0.854  0.00  0.00    +0.000 Cl
ENDBRANCH   1   7
BRANCH   1  10
ATOM     10  O   UNL     1      -1.550  -1.879   1.298  0.00  0.00    +0.000 OA
BRANCH  10  11
ATOM     11  C   UNL     1      -2.387  -2.928   1.695  0.00  0.00    +0.000 A 
ATOM     12  C   UNL     1      -3.737  -2.832   1.364  0.00  0.00    +0.000 A 
ATOM     13  C   UNL     1      -4.604  -3.832   1.791  0.00  0.00    +0.000 A 
ATOM     14  C   UNL     1      -4.148  -4.905   2.547  0.00  0.00    +0.000 A 
ATOM     15  C   UNL     1      -2.801  -4.968   2.882  0.00  0.00    +0.000 A 
ATOM     16  C   UNL     1      -1.909  -3.982   2.472  0.00  0.00    +0.000 A 
ATOM     17  F   UNL     1      -2.354  -5.991   3.622  0.00  0.00    +0.000 F 
ATOM     18  F   UNL     1      -5.903  -3.754   1.475  0.00  0.00    +0.000 F 
ENDBRANCH  10  11
ENDBRANCH   1  10
TORSDOF 3
