REMARK  Name = *****
REMARK  4 active torsions:
REMARK  status: ('A' for Active; 'I' for Inactive)
REMARK    1  A    between atoms: C_1  and  O_2
REMARK    2  A    between atoms: O_2  and  C_3
REMARK    3  A    between atoms: C_6  and  C_9
REMARK    4  A    between atoms: C_10  and  C_11
REMARK                            x       y       z     vdW  Elec       q    Type
REMARK                         _______ _______ _______ _____ _____    ______ ____
ROOT
ATOM      1  C   UNL     1       2.933  -1.384  -0.022  0.00  0.00    +0.000 A 
ATOM      2  C   UNL     1       2.375  -2.430  -0.758  0.00  0.00    +0.000 A 
ATOM      3  C   UNL     1       2.950  -3.706  -0.714  0.00  0.00    +0.000 A 
ATOM      4  C   UNL     1       4.083  -3.942   0.067  0.00  0.00    +0.000 A 
ATOM      5  C   UNL     1       4.643  -2.899   0.804  0.00  0.00    +0.000 A 
ATOM      6  C   UNL     1       4.069  -1.627   0.757  0.00  0.00    +0.000 A 
ENDROOT
BRANCH   1   8
ATOM      7  C   UNL     1       1.315   0.200  -0.745  0.00  0.00    +0.000 C 
ATOM      8  O   UNL     1       2.474  -0.097   0.024  0.00  0.00    +0.000 OA
ENDBRANCH   1   8
BRANCH   4   9
ATOM      9  C   UNL     1       4.666  -5.247   0.110  0.00  0.00    +0.000 C 
ATOM     10  C   UNL     1       5.155  -6.344   0.147  0.00  0.00    +0.000 C 
BRANCH  10  11
ATOM     11  C   UNL     1       5.738  -7.649   0.192  0.00  0.00    +0.000 A 
ATOM     12  C   UNL     1       7.124  -7.800   0.113  0.00  0.00    +0.000 A 
ATOM     13  C   UNL     1       7.692  -9.075   0.157  0.00  0.00    +0.000 A 
ATOM     14  C   UNL     1       6.875 -10.199   0.280  0.00  0.00    +0.000 A 
ATOM     15  C   UNL     1       5.491 -10.050   0.359  0.00  0.00    +0.000 A 
ATOM     16  C   UNL     1       4.921  -8.776   0.315  0.00  0.00    +0.000 A 
ENDBRANCH  10  11
ENDBRANCH   4   9
TORSDOF 3
