REMARK  Name = *****
REMARK  2 active torsions:
REMARK  status: ('A' for Active; 'I' for Inactive)
REMARK    1  A    between atoms: C_6  and  C_11
REMARK    2  A    between atoms: C_11  and  C_12
REMARK                            x       y       z     vdW  Elec       q    Type
REMARK                         _______ _______ _______ _____ _____    ______ ____
ROOT
ATOM      1  C   UNL     1       2.468  -0.671  -0.117  0.00  0.00    +0.000 A 
ATOM      2  C   UNL     1       2.453   0.719  -0.039  0.00  0.00    +0.000 A 
ATOM      3  C   UNL     1       1.236   1.400   0.023  0.00  0.00    +0.000 A 
ATOM      4  C   UNL     1       0.019   0.700   0.007  0.00  0.00    +0.000 A 
ATOM      5  C   UNL     1      -1.213   1.372   0.070  0.00  0.00    +0.000 A 
ATOM      6  C   UNL     1      -2.419   0.662   0.054  0.00  0.00    +0.000 A 
ATOM      7  C   UNL     1      -2.398  -0.732  -0.022  0.00  0.00    +0.000 A 
ATOM      8  C   UNL     1      -1.181  -1.413  -0.085  0.00  0.00    +0.000 A 
ATOM      9  C   UNL     1       0.035  -0.712  -0.071  0.00  0.00    +0.000 A 
ATOM     10  C   UNL     1       1.267  -1.382  -0.133  0.00  0.00    +0.000 A 
ENDROOT
BRANCH   6  11
ATOM     11  C   UNL     1      -3.695   1.376   0.132  0.00  0.00    +0.000 C 
BRANCH  11  12
ATOM     12  C   UNL     1      -4.320   1.673   1.278  0.00  0.00    +0.000 C 
ATOM     13  C   UNL     1      -3.893   1.368   2.630  0.00  0.00    +0.000 C 
ATOM     14  C   UNL     1      -4.835   1.857   3.455  0.00  0.00    +0.000 C 
ATOM     15  C   UNL     1      -5.883   2.484   2.669  0.00  0.00    +0.000 C 
ATOM     16  C   UNL     1      -5.584   2.380   1.364  0.00  0.00    +0.000 C 
ENDBRANCH  11  12
ENDBRANCH   6  11
TORSDOF 2
