REMARK  Name = *****
REMARK  5 active torsions:
REMARK  status: ('A' for Active; 'I' for Inactive)
REMARK    1  A    between atoms: C_1  and  C_2
REMARK    2  A    between atoms: C_2  and  O_4
REMARK    3  A    between atoms: O_4  and  C_5
REMARK    4  A    between atoms: C_10  and  C_11
REMARK    5  A    between atoms: C_12  and  C_13
REMARK                            x       y       z     vdW  Elec       q    Type
REMARK                         _______ _______ _______ _____ _____    ______ ____
ROOT
ATOM      1  C   UNL     1       4.812   0.596   0.542  0.00  0.00    +0.000 A 
ATOM      2  C   UNL     1       5.622   0.808  -0.577  0.00  0.00    +0.000 A 
ATOM      3  C   UNL     1       7.000   0.930  -0.410  0.00  0.00    +0.000 A 
ATOM      4  C   UNL     1       7.559   0.833   0.864  0.00  0.00    +0.000 A 
ATOM      5  C   UNL     1       6.742   0.602   1.977  0.00  0.00    +0.000 A 
ATOM      6  C   UNL     1       5.357   0.462   1.829  0.00  0.00    +0.000 A 
ENDROOT
BRANCH   6   7
ATOM      7  C   UNL     1       4.546   0.227   3.033  0.00  0.00    +0.000 C 
ATOM      8  C   UNL     1       3.682  -0.794   3.141  0.00  0.00    +0.000 C 
BRANCH   8   9
ATOM      9  C   UNL     1       2.850  -1.049   4.326  0.00  0.00    +0.000 A 
ATOM     10  C   UNL     1       2.309  -0.013   5.099  0.00  0.00    +0.000 A 
ATOM     11  C   UNL     1       1.493  -0.296   6.198  0.00  0.00    +0.000 A 
ATOM     12  C   UNL     1       1.200  -1.617   6.528  0.00  0.00    +0.000 A 
ATOM     13  C   UNL     1       1.718  -2.656   5.757  0.00  0.00    +0.000 A 
ATOM     14  C   UNL     1       2.534  -2.372   4.658  0.00  0.00    +0.000 A 
ENDBRANCH   8   9
ENDBRANCH   6   7
BRANCH   1  15
ATOM     15  O   UNL     1       3.437   0.460   0.321  0.00  0.00    +0.000 OA
BRANCH  15  17
ATOM     16  C   UNL     1       1.259   1.325   0.453  0.00  0.00    +0.000 C 
ATOM     17  C   UNL     1       2.722   1.616   0.612  0.00  0.00    +0.000 C 
ATOM     18  O   UNL     1       3.174   2.708   0.930  0.00  0.00    +0.000 OA
ENDBRANCH  15  17
ENDBRANCH   1  15
TORSDOF 4
