REMARK  Name = *****
REMARK  4 active torsions:
REMARK  status: ('A' for Active; 'I' for Inactive)
REMARK    1  A    between atoms: C_2  and  C_3
REMARK    2  A    between atoms: C_3  and  C_4
REMARK    3  A    between atoms: C_3  and  S_10
REMARK    4  A    between atoms: S_10  and  C_11
REMARK                            x       y       z     vdW  Elec       q    Type
REMARK                         _______ _______ _______ _____ _____    ______ ____
ROOT
ATOM      1  C   UNL     1       3.125   0.437  -0.957  0.00  0.00    +0.000 C 
ENDROOT
BRANCH   1   2
ATOM      2  C   UNL     1       2.830   1.896  -0.646  0.00  0.00    +0.000 A 
ATOM      3  C   UNL     1       3.401   2.895  -1.458  0.00  0.00    +0.000 A 
ATOM      4  C   UNL     1       3.169   4.249  -1.206  0.00  0.00    +0.000 A 
ATOM      5  C   UNL     1       2.360   4.630  -0.140  0.00  0.00    +0.000 A 
ATOM      6  C   UNL     1       1.782   3.658   0.673  0.00  0.00    +0.000 A 
ATOM      7  C   UNL     1       2.014   2.303   0.422  0.00  0.00    +0.000 A 
ENDBRANCH   1   2
BRANCH   1   9
ATOM      8  C   UNL     1       1.252  -1.255  -1.075  0.00  0.00    +0.000 C 
ATOM      9  C   UNL     1       2.174  -0.581  -0.371  0.00  0.00    +0.000 C 
ENDBRANCH   1   9
BRANCH   1  10
ATOM     10  S   UNL     1       4.853  -0.093  -0.609  0.00  0.00    +0.000 S 
BRANCH  10  11
ATOM     11  C   UNL     1       5.287   0.804   0.937  0.00  0.00    +0.000 C 
ATOM     12  C   UNL     1       6.818   0.747   1.083  0.00  0.00    +0.000 C 
ATOM     13  C   UNL     1       7.285   1.430   2.368  0.00  0.00    +0.000 C 
ATOM     14  C   UNL     1       6.602   0.837   3.595  0.00  0.00    +0.000 C 
ATOM     15  C   UNL     1       5.084   0.875   3.460  0.00  0.00    +0.000 C 
ATOM     16  C   UNL     1       4.609   0.201   2.172  0.00  0.00    +0.000 C 
ENDBRANCH  10  11
ENDBRANCH   1  10
TORSDOF 4
