REMARK  Name = *****
REMARK  6 active torsions:
REMARK  status: ('A' for Active; 'I' for Inactive)
REMARK    1  A    between atoms: C_1  and  O_2
REMARK    2  A    between atoms: O_2  and  C_3
REMARK    3  A    between atoms: C_3  and  C_5
REMARK    4  A    between atoms: C_8  and  N_11
REMARK    5  A    between atoms: N_11  and  C_12
REMARK    6  A    between atoms: C_12  and  C_13
REMARK                            x       y       z     vdW  Elec       q    Type
REMARK                         _______ _______ _______ _____ _____    ______ ____
ROOT
ATOM      1  C   UNL     1       4.461  -0.624   0.731  0.00  0.00    +0.000 A 
ATOM      2  C   UNL     1       4.898   0.399  -0.122  0.00  0.00    +0.000 A 
ATOM      3  C   UNL     1       6.257   0.718  -0.194  0.00  0.00    +0.000 A 
ATOM      4  C   UNL     1       7.193   0.014   0.566  0.00  0.00    +0.000 A 
ATOM      5  C   UNL     1       6.753  -0.988   1.433  0.00  0.00    +0.000 A 
ATOM      6  C   UNL     1       5.396  -1.315   1.514  0.00  0.00    +0.000 A 
ENDROOT
BRANCH   1   7
ATOM      7  C   UNL     1       3.005  -0.930   0.774  0.00  0.00    +0.000 C 
ATOM      8  O   UNL     1       2.162  -0.333   0.122  0.00  0.00    +0.000 OA
BRANCH   7  10
ATOM      9  C   UNL     1       1.375  -2.308   1.722  0.00  0.00    +0.000 C 
ATOM     10  O   UNL     1       2.755  -1.955   1.630  0.00  0.00    +0.000 OA
ENDBRANCH   7  10
ENDBRANCH   1   7
BRANCH   4  11
ATOM     11  N   UNL     1       8.551   0.348   0.516  0.00  0.00    +0.000 NA
BRANCH  11  12
ATOM     12  C   UNL     1       9.324  -0.151  -0.404  0.00  0.00    +0.000 C 
ATOM     13  O   UNL     1      10.539   0.034  -0.603  0.00  0.00    +0.000 OA
BRANCH  12  14
ATOM     14  C   UNL     1       8.861  -1.111  -1.455  0.00  0.00    +0.000 A 
ATOM     15  C   UNL     1       8.473  -0.639  -2.715  0.00  0.00    +0.000 A 
ATOM     16  C   UNL     1       7.984  -1.530  -3.671  0.00  0.00    +0.000 A 
ATOM     17  C   UNL     1       7.875  -2.889  -3.366  0.00  0.00    +0.000 A 
ATOM     18  C   UNL     1       8.258  -3.361  -2.107  0.00  0.00    +0.000 A 
ATOM     19  C   UNL     1       8.748  -2.473  -1.149  0.00  0.00    +0.000 A 
ENDBRANCH  12  14
ENDBRANCH  11  12
ENDBRANCH   4  11
TORSDOF 5
