REMARK  Name = *****
REMARK  3 active torsions:
REMARK  status: ('A' for Active; 'I' for Inactive)
REMARK    1  A    between atoms: C_4  and  C_7
REMARK    2  A    between atoms: C_7  and  C_9
REMARK    3  A    between atoms: C_9  and  C_10
REMARK                            x       y       z     vdW  Elec       q    Type
REMARK                         _______ _______ _______ _____ _____    ______ ____
ROOT
ATOM      1  C   UNL     1      -3.705  -0.905  -0.137  0.00  0.00    +0.000 C 
ENDROOT
BRANCH   1   2
ATOM      2  C   UNL     1      -4.991  -0.158  -0.440  0.00  0.00    +0.000 A 
ATOM      3  C   UNL     1      -5.680  -0.328  -1.658  0.00  0.00    +0.000 A 
ATOM      4  C   UNL     1      -6.860   0.377  -1.930  0.00  0.00    +0.000 A 
ATOM      5  C   UNL     1      -7.389   1.255  -0.990  0.00  0.00    +0.000 A 
ATOM      6  C   UNL     1      -6.744   1.419   0.230  0.00  0.00    +0.000 A 
ATOM      7  C   UNL     1      -5.564   0.717   0.506  0.00  0.00    +0.000 A 
ATOM      8 CL   UNL     1      -4.872   0.964   2.072  0.00  0.00    +0.000 Cl
ATOM      9 CL   UNL     1      -5.141  -1.417  -2.890  0.00  0.00    +0.000 Cl
ENDBRANCH   1   2
BRANCH   1  10
ATOM     10  C   UNL     1      -2.491  -0.036   0.146  0.00  0.00    +0.000 C 
ATOM     11  O   UNL     1      -1.717  -0.291   1.068  0.00  0.00    +0.000 OA
BRANCH  10  15
ATOM     12  C   UNL     1      -1.621   3.372  -2.283  0.00  0.00    +0.000 A 
ATOM     13  C   UNL     1      -1.454   3.428  -0.900  0.00  0.00    +0.000 A 
ATOM     14  C   UNL     1      -1.735   2.307  -0.118  0.00  0.00    +0.000 A 
ATOM     15  C   UNL     1      -2.195   1.131  -0.722  0.00  0.00    +0.000 A 
ATOM     16  C   UNL     1      -2.341   1.069  -2.111  0.00  0.00    +0.000 A 
ATOM     17  C   UNL     1      -2.059   2.193  -2.889  0.00  0.00    +0.000 A 
ENDBRANCH  10  15
ENDBRANCH   1  10
TORSDOF 3
