REMARK  Name = *****
REMARK  5 active torsions:
REMARK  status: ('A' for Active; 'I' for Inactive)
REMARK    1  A    between atoms: C_1  and  C_2
REMARK    2  A    between atoms: C_2  and  C_4
REMARK    3  A    between atoms: C_4  and  C_5
REMARK    4  A    between atoms: C_4  and  N_12
REMARK    5  A    between atoms: C_5  and  C_6
REMARK                            x       y       z     vdW  Elec       q    Type
REMARK                         _______ _______ _______ _____ _____    ______ ____
ROOT
ATOM      1  C   UNL     1       3.466   1.017   0.148  0.00  0.00    +0.000 C 
ENDROOT
BRANCH   1   2
ATOM      2  N   UNL     1       4.890   1.008  -0.237  0.00  0.00    +0.000 N 
ATOM      3  C   UNL     1       5.362   0.167  -1.215  0.00  0.00    +0.000 C 
ATOM      4  O   UNL     1       4.692  -0.584  -1.916  0.00  0.00    +0.000 OA
ATOM      5  C   UNL     1       6.848   0.312  -1.418  0.00  0.00    +0.000 C 
ATOM      6  S   UNL     1       7.258   1.907  -0.705  0.00  0.00    +0.000 S 
ATOM      7  C   UNL     1       5.586   2.191  -0.259  0.00  0.00    +0.000 C 
ATOM      8  O   UNL     1       5.160   3.325  -0.112  0.00  0.00    +0.000 OA
ENDBRANCH   1   2
BRANCH   1  10
ATOM      9  C   UNL     1       2.048   2.685   1.494  0.00  0.00    +0.000 C 
ATOM     10  C   UNL     1       3.257   1.787   1.465  0.00  0.00    +0.000 C 
ATOM     11  C   UNL     1       4.083   1.723   2.527  0.00  0.00    +0.000 C 
ENDBRANCH   1  10
BRANCH   1  12
ATOM     12  C   UNL     1       2.741  -0.365   0.227  0.00  0.00    +0.000 C 
BRANCH  12  13
ATOM     13  C   UNL     1       3.308  -1.407   1.172  0.00  0.00    +0.000 A 
ATOM     14  C   UNL     1       2.966  -1.403   2.532  0.00  0.00    +0.000 A 
ATOM     15  C   UNL     1       3.487  -2.361   3.404  0.00  0.00    +0.000 A 
ATOM     16  C   UNL     1       4.344  -3.348   2.925  0.00  0.00    +0.000 A 
ATOM     17  C   UNL     1       4.672  -3.383   1.572  0.00  0.00    +0.000 A 
ATOM     18  C   UNL     1       4.153  -2.423   0.701  0.00  0.00    +0.000 A 
ENDBRANCH  12  13
ENDBRANCH   1  12
TORSDOF 4
