REMARK  Name = *****
REMARK  2 active torsions:
REMARK  status: ('A' for Active; 'I' for Inactive)
REMARK    1  A    between atoms: C_1  and  C_2
REMARK    2  A    between atoms: C_2  and  C_11
REMARK                            x       y       z     vdW  Elec       q    Type
REMARK                         _______ _______ _______ _____ _____    ______ ____
ROOT
ATOM      1  C   UNL     1      -3.391  -0.125  -0.338  0.00  0.00    +0.000 C 
ATOM      2  C   UNL     1      -2.065  -0.035   0.450  0.00  0.00    +0.000 C 
ATOM      3  C   UNL     1      -1.153  -1.254   0.094  0.00  0.00    +0.000 C 
ATOM      4  C   UNL     1       0.211  -0.641  -0.004  0.00  0.00    +0.000 A 
ATOM      5  C   UNL     1       1.432  -1.294  -0.036  0.00  0.00    +0.000 A 
ATOM      6  C   UNL     1       2.592  -0.528  -0.167  0.00  0.00    +0.000 A 
ATOM      7  C   UNL     1       2.517   0.869  -0.277  0.00  0.00    +0.000 A 
ATOM      8  C   UNL     1       1.280   1.517  -0.255  0.00  0.00    +0.000 A 
ATOM      9  C   UNL     1       0.137   0.749  -0.111  0.00  0.00    +0.000 A 
ATOM     10  C   UNL     1      -1.287   1.218  -0.087  0.00  0.00    +0.000 C 
ENDROOT
BRANCH   2  11
ATOM     11  C   UNL     1      -2.312  -0.019   1.978  0.00  0.00    +0.000 A 
ATOM     12  C   UNL     1      -3.354  -0.774   2.551  0.00  0.00    +0.000 A 
ATOM     13  C   UNL     1      -3.574  -0.786   3.933  0.00  0.00    +0.000 A 
ATOM     14  C   UNL     1      -2.749  -0.055   4.779  0.00  0.00    +0.000 A 
ATOM     15  C   UNL     1      -1.698   0.679   4.243  0.00  0.00    +0.000 A 
ATOM     16  C   UNL     1      -1.478   0.691   2.861  0.00  0.00    +0.000 A 
ENDBRANCH   2  11
TORSDOF 1
