REMARK  Name = *****
REMARK  5 active torsions:
REMARK  status: ('A' for Active; 'I' for Inactive)
REMARK    1  A    between atoms: C_1  and  O_2
REMARK    2  A    between atoms: O_2  and  C_3
REMARK    3  A    between atoms: C_3  and  C_4
REMARK    4  A    between atoms: C_4  and  C_12
REMARK    5  A    between atoms: C_5  and  C_6
REMARK                            x       y       z     vdW  Elec       q    Type
REMARK                         _______ _______ _______ _____ _____    ______ ____
ROOT
ATOM      1  C   UNL     1       4.278   0.084  -1.183  0.00  0.00    +0.000 C 
ATOM      2  C   UNL     1       4.957  -0.572  -0.216  0.00  0.00    +0.000 C 
ENDROOT
BRANCH   2   3
ATOM      3  C   UNL     1       4.417  -0.970   1.087  0.00  0.00    +0.000 A 
ATOM      4  C   UNL     1       4.260  -2.326   1.389  0.00  0.00    +0.000 A 
ATOM      5  C   UNL     1       3.753  -2.716   2.630  0.00  0.00    +0.000 A 
ATOM      6  C   UNL     1       3.407  -1.752   3.577  0.00  0.00    +0.000 A 
ATOM      7  C   UNL     1       3.568  -0.398   3.285  0.00  0.00    +0.000 A 
ATOM      8  C   UNL     1       4.073  -0.007   2.043  0.00  0.00    +0.000 A 
ENDBRANCH   2   3
BRANCH   1   9
ATOM      9  C   UNL     1       4.999   0.446  -2.474  0.00  0.00    +0.000 C 
ATOM     10  C   UNL     1       4.977   1.935  -2.864  0.00  0.00    +0.000 C 
ATOM     11  C   UNL     1       3.946   2.073  -3.986  0.00  0.00    +0.000 C 
ATOM     12  C   UNL     1       3.828   0.678  -4.509  0.00  0.00    +0.000 C 
ATOM     13  C   UNL     1       4.394  -0.210  -3.684  0.00  0.00    +0.000 C 
ENDBRANCH   1   9
BRANCH   1  14
ATOM     14  C   UNL     1       2.813   0.443  -1.064  0.00  0.00    +0.000 C 
BRANCH  14  16
ATOM     15  C   UNL     1       1.345   2.225  -0.611  0.00  0.00    +0.000 C 
ATOM     16  O   UNL     1       2.702   1.834  -0.765  0.00  0.00    +0.000 OA
ENDBRANCH  14  16
ENDBRANCH   1  14
TORSDOF 4
