REMARK  Name = *****
REMARK  2 active torsions:
REMARK  status: ('A' for Active; 'I' for Inactive)
REMARK    1  A    between atoms: C_2  and  C_11
REMARK    2  A    between atoms: C_4  and  C_5
REMARK                            x       y       z     vdW  Elec       q    Type
REMARK                         _______ _______ _______ _____ _____    ______ ____
ROOT
ATOM      1  C   UNL     1       0.043   0.854  -0.202  0.00  0.00    +0.000 C 
ATOM      2  C   UNL     1       0.795  -0.531  -0.126  0.00  0.00    +0.000 C 
ATOM      3  C   UNL     1      -0.616  -0.386  -0.112  0.00  0.00    +0.000 C 
ATOM      4  C   UNL     1      -1.766  -1.029  -0.050  0.00  0.00    +0.000 C 
ENDROOT
BRANCH   4   5
ATOM      5  C   UNL     1      -3.091  -0.394  -0.051  0.00  0.00    +0.000 A 
ATOM      6  C   UNL     1      -3.356   0.808  -0.719  0.00  0.00    +0.000 A 
ATOM      7  C   UNL     1      -4.641   1.358  -0.716  0.00  0.00    +0.000 A 
ATOM      8  C   UNL     1      -5.679   0.707  -0.053  0.00  0.00    +0.000 A 
ATOM      9  C   UNL     1      -5.433  -0.496   0.603  0.00  0.00    +0.000 A 
ATOM     10  C   UNL     1      -4.148  -1.046   0.600  0.00  0.00    +0.000 A 
ENDBRANCH   4   5
BRANCH   2  11
ATOM     11  C   UNL     1       1.500  -0.913   1.149  0.00  0.00    +0.000 A 
ATOM     12  C   UNL     1       1.271  -2.150   1.777  0.00  0.00    +0.000 A 
ATOM     13  C   UNL     1       1.943  -2.511   2.949  0.00  0.00    +0.000 A 
ATOM     14  C   UNL     1       2.870  -1.642   3.516  0.00  0.00    +0.000 A 
ATOM     15  C   UNL     1       3.127  -0.417   2.909  0.00  0.00    +0.000 A 
ATOM     16  C   UNL     1       2.451  -0.062   1.738  0.00  0.00    +0.000 A 
ENDBRANCH   2  11
TORSDOF 2
