REMARK  Name = *****
REMARK  5 active torsions:
REMARK  status: ('A' for Active; 'I' for Inactive)
REMARK    1  A    between atoms: C_1  and  C_2
REMARK    2  A    between atoms: C_2  and  C_4
REMARK    3  A    between atoms: C_5  and  C_6
REMARK    4  A    between atoms: C_6  and  C_7
REMARK    5  A    between atoms: C_7  and  C_8
REMARK                            x       y       z     vdW  Elec       q    Type
REMARK                         _______ _______ _______ _____ _____    ______ ____
ROOT
ATOM      1  C   UNL     1       6.959  -0.220  -2.230  0.00  0.00    +0.000 C 
ENDROOT
BRANCH   1   2
ATOM      2  C   UNL     1       7.741  -0.305  -3.518  0.00  0.00    +0.000 A 
ATOM      3  C   UNL     1       8.094   0.860  -4.212  0.00  0.00    +0.000 A 
ATOM      4  C   UNL     1       8.802   0.780  -5.413  0.00  0.00    +0.000 A 
ATOM      5  C   UNL     1       9.159  -0.463  -5.932  0.00  0.00    +0.000 A 
ATOM      6  C   UNL     1       8.806  -1.628  -5.252  0.00  0.00    +0.000 A 
ATOM      7  C   UNL     1       8.099  -1.550  -4.051  0.00  0.00    +0.000 A 
ENDBRANCH   1   2
BRANCH   1   8
ATOM      8  C   UNL     1       5.448  -0.261  -2.481  0.00  0.00    +0.000 C 
BRANCH   8  10
ATOM      9  C   UNL     1       3.835   0.792  -0.871  0.00  0.00    +0.000 C 
ATOM     10  C   UNL     1       4.677  -0.204  -1.190  0.00  0.00    +0.000 C 
BRANCH   9  12
ATOM     11  C   UNL     1       3.173  -0.174   1.406  0.00  0.00    +0.000 C 
ATOM     12  C   UNL     1       3.060   0.899   0.357  0.00  0.00    +0.000 C 
ATOM     13  C   UNL     1       2.251   1.956   0.544  0.00  0.00    +0.000 C 
ENDBRANCH   9  12
ENDBRANCH   8  10
ENDBRANCH   1   8
TORSDOF 4
