REMARK  Name = *****
REMARK  4 active torsions:
REMARK  status: ('A' for Active; 'I' for Inactive)
REMARK    1  A    between atoms: C_5  and  C_7
REMARK    2  A    between atoms: C_7  and  C_8
REMARK    3  A    between atoms: C_8  and  S_9
REMARK    4  A    between atoms: S_9  and  C_10
REMARK                            x       y       z     vdW  Elec       q    Type
REMARK                         _______ _______ _______ _____ _____    ______ ____
ROOT
ATOM      1  C   UNL     1       0.019  -6.525  -0.083  0.00  0.00    +0.000 A 
ATOM      2  C   UNL     1      -0.165  -7.506   0.899  0.00  0.00    +0.000 A 
ATOM      3  C   UNL     1       0.819  -8.463   1.146  0.00  0.00    +0.000 A 
ATOM      4  C   UNL     1       2.003  -8.473   0.420  0.00  0.00    +0.000 A 
ATOM      5  C   UNL     1       2.187  -7.511  -0.563  0.00  0.00    +0.000 A 
ATOM      6  C   UNL     1       1.209  -6.549  -0.818  0.00  0.00    +0.000 A 
ATOM      7  F   UNL     1       1.427  -5.654  -1.794  0.00  0.00    +0.000 F 
ATOM      8  F   UNL     1       3.321  -7.516  -1.276  0.00  0.00    +0.000 F 
ATOM      9  F   UNL     1       0.629  -9.391   2.094  0.00  0.00    +0.000 F 
ATOM     10  F   UNL     1      -1.292  -7.538   1.627  0.00  0.00    +0.000 F 
ENDROOT
BRANCH   1  11
ATOM     11  S   UNL     1      -1.272  -5.325  -0.391  0.00  0.00    +0.000 S 
BRANCH  11  12
ATOM     12  C   UNL     1      -0.331  -3.772  -0.165  0.00  0.00    +0.000 C 
BRANCH  12  13
ATOM     13  C   UNL     1      -1.290  -2.584  -0.118  0.00  0.00    +0.000 C 
BRANCH  13  18
ATOM     14  C   UNL     1       0.059   0.887  -0.827  0.00  0.00    +0.000 A 
ATOM     15  C   UNL     1       0.861   1.063   0.293  0.00  0.00    +0.000 A 
ATOM     16  C   UNL     1       0.921   0.038   1.220  0.00  0.00    +0.000 A 
ATOM     17  N   UNL     1       0.246  -1.127   1.099  0.00  0.00    +0.000 NA
ATOM     18  C   UNL     1      -0.531  -1.286  -0.000  0.00  0.00    +0.000 A 
ATOM     19  C   UNL     1      -0.651  -0.302  -0.978  0.00  0.00    +0.000 A 
ENDBRANCH  13  18
ENDBRANCH  12  13
ENDBRANCH  11  12
ENDBRANCH   1  11
TORSDOF 4
