REMARK  Name = *****
REMARK  2 active torsions:
REMARK  status: ('A' for Active; 'I' for Inactive)
REMARK    1  A    between atoms: C_11  and  C_12
REMARK    2  A    between atoms: C_14  and  C_17
REMARK                            x       y       z     vdW  Elec       q    Type
REMARK                         _______ _______ _______ _____ _____    ______ ____
ROOT
ATOM      1  C   UNL     1       2.792  -0.988  -0.105  0.00  0.00    +0.000 A 
ATOM      2  C   UNL     1       1.482  -1.475  -0.051  0.00  0.00    +0.000 A 
ATOM      3  C   UNL     1       0.394  -0.593  -0.003  0.00  0.00    +0.000 A 
ATOM      4  C   UNL     1       0.634   0.802  -0.011  0.00  0.00    +0.000 A 
ATOM      5  C   UNL     1      -0.457   1.689   0.035  0.00  0.00    +0.000 A 
ATOM      6  C   UNL     1      -1.764   1.204   0.089  0.00  0.00    +0.000 A 
ATOM      7  C   UNL     1      -1.985  -0.166   0.096  0.00  0.00    +0.000 A 
ATOM      8  C   UNL     1      -0.925  -1.065   0.051  0.00  0.00    +0.000 A 
ATOM      9  F   UNL     1      -3.240  -0.630   0.147  0.00  0.00    +0.000 F 
ATOM     10  C   UNL     1       1.958   1.273  -0.065  0.00  0.00    +0.000 A 
ATOM     11  C   UNL     1       3.047   0.389  -0.112  0.00  0.00    +0.000 A 
ENDROOT
BRANCH  11  12
ATOM     12  C   UNL     1       4.427   0.865  -0.170  0.00  0.00    +0.000 A 
ATOM     13  N   UNL     1       5.549   0.169  -0.222  0.00  0.00    +0.000 NA
ATOM     14  C   UNL     1       6.544   1.124  -0.270  0.00  0.00    +0.000 A 
ATOM     15  C   UNL     1       5.969   2.374  -0.224  0.00  0.00    +0.000 A 
ATOM     16  O   UNL     1       4.618   2.223  -0.162  0.00  0.00    +0.000 OA
BRANCH  14  17
ATOM     17  C   UNL     1       7.975   0.749  -0.327  0.00  0.00    +0.000 C 
ATOM     18 CL   UNL     1       8.704   1.354  -1.831  0.00  0.00    +0.000 Cl
ENDBRANCH  14  17
ENDBRANCH  11  12
TORSDOF 2
