REMARK  Name = *****
REMARK  4 active torsions:
REMARK  status: ('A' for Active; 'I' for Inactive)
REMARK    1  A    between atoms: C_1  and  C_2
REMARK    2  A    between atoms: C_2  and  C_3
REMARK    3  A    between atoms: C_2  and  C_10
REMARK    4  A    between atoms: C_3  and  C_4
REMARK                            x       y       z     vdW  Elec       q    Type
REMARK                         _______ _______ _______ _____ _____    ______ ____
ROOT
ATOM      1  C   UNL     1       3.217   0.421   1.096  0.00  0.00    +0.000 C 
ATOM      2  C   UNL     1       2.495  -0.065  -0.170  0.00  0.00    +0.000 C 
ENDROOT
BRANCH   2   3
ATOM      3  C   UNL     1       3.088  -1.391  -0.605  0.00  0.00    +0.000 A 
ATOM      4  C   UNL     1       2.780  -2.674  -0.192  0.00  0.00    +0.000 A 
ATOM      5  C   UNL     1       3.578  -3.663  -0.836  0.00  0.00    +0.000 A 
ATOM      6  C   UNL     1       4.479  -3.108  -1.715  0.00  0.00    +0.000 A 
ATOM      7  S   UNL     1       4.361  -1.405  -1.763  0.00  0.00    +0.000 S 
ENDBRANCH   2   3
BRANCH   2   8
ATOM      8  C   UNL     1       0.973  -0.124   0.100  0.00  0.00    +0.000 C 
BRANCH   8   9
ATOM      9  C   UNL     1       0.023  -0.385  -1.052  0.00  0.00    +0.000 A 
ATOM     10  C   UNL     1       0.415  -0.439  -2.395  0.00  0.00    +0.000 A 
ATOM     11  C   UNL     1      -0.524  -0.670  -3.405  0.00  0.00    +0.000 A 
ATOM     12  C   UNL     1      -1.870  -0.835  -3.090  0.00  0.00    +0.000 A 
ATOM     13  C   UNL     1      -2.280  -0.771  -1.762  0.00  0.00    +0.000 A 
ATOM     14  C   UNL     1      -1.341  -0.548  -0.753  0.00  0.00    +0.000 A 
ENDBRANCH   8   9
ENDBRANCH   2   8
TORSDOF 3
