REMARK  Name = *****
REMARK  7 active torsions:
REMARK  status: ('A' for Active; 'I' for Inactive)
REMARK    1  A    between atoms: C_1  and  C_2
REMARK    2  A    between atoms: C_4  and  C_17
REMARK    3  A    between atoms: C_5  and  C_9
REMARK    4  A    between atoms: C_6  and  C_8
REMARK    5  A    between atoms: C_9  and  C_10
REMARK    6  A    between atoms: C_10  and  C_11
REMARK    7  A    between atoms: C_11  and  C_16
REMARK                            x       y       z     vdW  Elec       q    Type
REMARK                         _______ _______ _______ _____ _____    ______ ____
ROOT
ATOM      1  C   UNL     1       2.216   2.017   0.320  0.00  0.00    +0.000 C 
ATOM      2  C   UNL     1       1.161   0.961   0.175  0.00  0.00    +0.000 A 
ATOM      3  C   UNL     1       1.513  -0.375  -0.025  0.00  0.00    +0.000 A 
ATOM      4  C   UNL     1       0.537  -1.380  -0.131  0.00  0.00    +0.000 A 
ATOM      5  C   UNL     1      -0.834  -1.040  -0.031  0.00  0.00    +0.000 A 
ATOM      6  C   UNL     1      -1.193   0.312   0.195  0.00  0.00    +0.000 A 
ATOM      7  C   UNL     1      -0.190   1.291   0.295  0.00  0.00    +0.000 A 
ATOM      8  C   UNL     1      -2.629   0.754   0.308  0.00  0.00    +0.000 C 
ATOM      9  C   UNL     1       1.000  -2.793  -0.378  0.00  0.00    +0.000 C 
ENDROOT
BRANCH   5  10
ATOM     10  C   UNL     1      -1.903  -2.113  -0.133  0.00  0.00    +0.000 C 
BRANCH  10  11
ATOM     11  C   UNL     1      -2.237  -2.723   1.233  0.00  0.00    +0.000 C 
BRANCH  11  12
ATOM     12  C   UNL     1      -3.435  -3.693   1.168  0.00  0.00    +0.000 C 
ATOM     13  C   UNL     1      -4.799  -2.997   0.892  0.00  0.00    +0.000 C 
ATOM     14  S   UNL     1      -5.559  -3.680   2.383  0.00  0.00    +0.000 S 
ATOM     15  C   UNL     1      -3.911  -4.117   2.596  0.00  0.00    +0.000 C 
ATOM     16  O   UNL     1      -3.405  -4.625   3.573  0.00  0.00    +0.000 OA
ATOM     17  C   UNL     1      -3.157  -4.913   0.281  0.00  0.00    +0.000 C 
ENDBRANCH  11  12
ENDBRANCH  10  11
ENDBRANCH   5  10
TORSDOF 3
