REMARK  Name = *****
REMARK  3 active torsions:
REMARK  status: ('A' for Active; 'I' for Inactive)
REMARK    1  A    between atoms: C_1  and  C_2
REMARK    2  A    between atoms: C_4  and  C_8
REMARK    3  A    between atoms: C_9  and  C_10
REMARK                            x       y       z     vdW  Elec       q    Type
REMARK                         _______ _______ _______ _____ _____    ______ ____
ROOT
ATOM      1  C   UNL     1       2.519  -0.084   0.083  0.00  0.00    +0.000 C 
ATOM      2  C   UNL     1       1.023  -0.025  -0.016  0.00  0.00    +0.000 A 
ATOM      3  C   UNL     1       0.353   1.205   0.067  0.00  0.00    +0.000 A 
ATOM      4  C   UNL     1      -1.046   1.271   0.005  0.00  0.00    +0.000 A 
ATOM      5  C   UNL     1      -1.775   0.080  -0.101  0.00  0.00    +0.000 A 
ATOM      6  C   UNL     1      -1.118  -1.150  -0.169  0.00  0.00    +0.000 A 
ATOM      7  C   UNL     1       0.275  -1.202  -0.124  0.00  0.00    +0.000 A 
ENDROOT
BRANCH   4   8
ATOM      8  C   UNL     1      -1.776   2.542   0.108  0.00  0.00    +0.000 C 
ATOM      9  C   UNL     1      -1.388   3.674  -0.498  0.00  0.00    +0.000 C 
BRANCH   9  10
ATOM     10  C   UNL     1      -2.145   4.872  -0.371  0.00  0.00    +0.000 A 
ATOM     11  C   UNL     1      -1.894   6.117  -0.938  0.00  0.00    +0.000 A 
ATOM     12  C   UNL     1      -2.921   7.000  -0.527  0.00  0.00    +0.000 A 
ATOM     13  C   UNL     1      -3.753   6.259   0.271  0.00  0.00    +0.000 A 
ATOM     14  O   UNL     1      -3.301   4.987   0.373  0.00  0.00    +0.000 OA
ENDBRANCH   9  10
ENDBRANCH   4   8
TORSDOF 2
