REMARK  Name = *****
REMARK  5 active torsions:
REMARK  status: ('A' for Active; 'I' for Inactive)
REMARK    1  A    between atoms: C_4  and  C_7
REMARK    2  A    between atoms: C_7  and  C_8
REMARK    3  A    between atoms: C_8  and  C_9
REMARK    4  A    between atoms: C_9  and  O_11
REMARK    5  A    between atoms: O_11  and  C_12
REMARK                            x       y       z     vdW  Elec       q    Type
REMARK                         _______ _______ _______ _____ _____    ______ ____
ROOT
ATOM      1  C   UNL     1       4.576  -2.398   0.144  0.00  0.00    +0.000 C 
ATOM      2  O   UNL     1       5.076  -2.809  -0.895  0.00  0.00    +0.000 OA
ENDROOT
BRANCH   1   3
ATOM      3  C   UNL     1       3.095  -2.180   0.337  0.00  0.00    +0.000 C 
BRANCH   3   4
ATOM      4  C   UNL     1       2.704  -0.776  -0.111  0.00  0.00    +0.000 C 
BRANCH   4   8
ATOM      5  C   UNL     1      -1.450   0.580  -0.492  0.00  0.00    +0.000 C 
ATOM      6  C   UNL     1      -1.210  -0.881  -0.129  0.00  0.00    +0.000 C 
ATOM      7  C   UNL     1       0.224  -1.313  -0.432  0.00  0.00    +0.000 C 
ATOM      8  C   UNL     1       1.255  -0.398   0.249  0.00  0.00    +0.000 C 
ATOM      9  C   UNL     1       0.996   1.073  -0.121  0.00  0.00    +0.000 C 
ATOM     10  C   UNL     1      -0.438   1.496   0.187  0.00  0.00    +0.000 C 
ENDBRANCH   4   8
ENDBRANCH   3   4
ENDBRANCH   1   3
BRANCH   1  11
ATOM     11  O   UNL     1       5.244  -2.019   1.304  0.00  0.00    +0.000 OA
BRANCH  11  12
ATOM     12  C   UNL     1       6.634  -2.162   1.260  0.00  0.00    +0.000 A 
ATOM     13  C   UNL     1       7.222  -3.426   1.218  0.00  0.00    +0.000 A 
ATOM     14  C   UNL     1       8.613  -3.530   1.237  0.00  0.00    +0.000 A 
ATOM     15  C   UNL     1       9.400  -2.379   1.314  0.00  0.00    +0.000 A 
ATOM     16  C   UNL     1       8.799  -1.119   1.377  0.00  0.00    +0.000 A 
ATOM     17  C   UNL     1       7.409  -1.008   1.358  0.00  0.00    +0.000 A 
ENDBRANCH  11  12
ENDBRANCH   1  11
TORSDOF 5
