REMARK  Name = *****
REMARK  7 active torsions:
REMARK  status: ('A' for Active; 'I' for Inactive)
REMARK    1  A    between atoms: C_1  and  C_2
REMARK    2  A    between atoms: C_2  and  O_3
REMARK    3  A    between atoms: O_3  and  C_4
REMARK    4  A    between atoms: C_5  and  C_10
REMARK    5  A    between atoms: C_7  and  C_9
REMARK    6  A    between atoms: C_10  and  C_11
REMARK    7  A    between atoms: C_11  and  C_12
REMARK                            x       y       z     vdW  Elec       q    Type
REMARK                         _______ _______ _______ _____ _____    ______ ____
ROOT
ATOM      1  C   UNL     1       4.440  -0.843  -1.042  0.00  0.00    +0.000 A 
ATOM      2  C   UNL     1       5.349  -1.194  -0.066  0.00  0.00    +0.000 A 
ATOM      3  N   UNL     1       6.557  -1.504  -0.657  0.00  0.00    +0.000 NA
ATOM      4  C   UNL     1       6.335  -1.322  -1.943  0.00  0.00    +0.000 A 
ATOM      5  O   UNL     1       5.066  -0.920  -2.253  0.00  0.00    +0.000 OA
ATOM      6  C   UNL     1       7.263  -1.497  -3.077  0.00  0.00    +0.000 C 
ENDROOT
BRANCH   1   7
ATOM      7  O   UNL     1       3.162  -0.474  -1.012  0.00  0.00    +0.000 OA
BRANCH   7   9
ATOM      8  C   UNL     1       1.115   0.202  -2.031  0.00  0.00    +0.000 C 
ATOM      9  C   UNL     1       2.566  -0.173  -2.272  0.00  0.00    +0.000 C 
ENDBRANCH   7   9
ENDBRANCH   1   7
BRANCH   2  10
ATOM     10  C   UNL     1       5.137  -1.265   1.405  0.00  0.00    +0.000 C 
BRANCH  10  11
ATOM     11  C   UNL     1       6.434  -1.388   2.207  0.00  0.00    +0.000 C 
BRANCH  11  12
ATOM     12  C   UNL     1       6.173  -1.395   3.694  0.00  0.00    +0.000 A 
ATOM     13  C   UNL     1       5.872  -2.592   4.357  0.00  0.00    +0.000 A 
ATOM     14  C   UNL     1       5.611  -2.593   5.728  0.00  0.00    +0.000 A 
ATOM     15  C   UNL     1       5.646  -1.399   6.447  0.00  0.00    +0.000 A 
ATOM     16  C   UNL     1       5.940  -0.203   5.796  0.00  0.00    +0.000 A 
ATOM     17  C   UNL     1       6.200  -0.199   4.424  0.00  0.00    +0.000 A 
ENDBRANCH  11  12
ENDBRANCH  10  11
ENDBRANCH   2  10
TORSDOF 5
