REMARK  Name = *****
REMARK  4 active torsions:
REMARK  status: ('A' for Active; 'I' for Inactive)
REMARK    1  A    between atoms: C_1  and  O_2
REMARK    2  A    between atoms: O_2  and  C_3
REMARK    3  A    between atoms: C_8  and  C_9
REMARK    4  A    between atoms: C_10  and  C_11
REMARK                            x       y       z     vdW  Elec       q    Type
REMARK                         _______ _______ _______ _____ _____    ______ ____
ROOT
ATOM      1  C   UNL     1       2.933   0.553   0.926  0.00  0.00    +0.000 A 
ATOM      2  C   UNL     1       2.506   0.629   2.258  0.00  0.00    +0.000 A 
ATOM      3  C   UNL     1       3.189   1.426   3.180  0.00  0.00    +0.000 A 
ATOM      4  C   UNL     1       4.307   2.153   2.783  0.00  0.00    +0.000 A 
ATOM      5  C   UNL     1       4.744   2.086   1.461  0.00  0.00    +0.000 A 
ATOM      6  C   UNL     1       4.061   1.297   0.522  0.00  0.00    +0.000 A 
ENDROOT
BRANCH   1   8
ATOM      7  C   UNL     1       1.185  -0.969   0.339  0.00  0.00    +0.000 C 
ATOM      8  O   UNL     1       2.334  -0.222  -0.034  0.00  0.00    +0.000 OA
ENDBRANCH   1   8
BRANCH   6   9
ATOM      9  C   UNL     1       4.593   1.274  -0.850  0.00  0.00    +0.000 C 
ATOM     10  C   UNL     1       3.873   1.666  -1.915  0.00  0.00    +0.000 C 
BRANCH  10  11
ATOM     11  C   UNL     1       4.386   1.660  -3.321  0.00  0.00    +0.000 C 
ATOM     12  S   UNL     1       4.359   3.362  -3.969  0.00  0.00    +0.000 S 
ATOM     13  C   UNL     1       3.358   3.027  -5.442  0.00  0.00    +0.000 C 
ATOM     14  C   UNL     1       2.385   1.915  -5.112  0.00  0.00    +0.000 C 
ATOM     15  S   UNL     1       3.340   0.586  -4.346  0.00  0.00    +0.000 S 
ENDBRANCH  10  11
ENDBRANCH   6   9
TORSDOF 3
