REMARK  Name = *****
REMARK  4 active torsions:
REMARK  status: ('A' for Active; 'I' for Inactive)
REMARK    1  A    between atoms: C_1  and  C_2
REMARK    2  A    between atoms: C_2  and  C_10
REMARK    3  A    between atoms: N_3  and  C_4
REMARK    4  A    between atoms: C_10  and  C_16
REMARK                            x       y       z     vdW  Elec       q    Type
REMARK                         _______ _______ _______ _____ _____    ______ ____
ROOT
ATOM      1  C   UNL     1       1.334   0.572  -0.936  0.00  0.00    +0.000 C 
ATOM      2  C   UNL     1       2.275  -0.057   0.077  0.00  0.00    +0.000 C 
ATOM      3  N   UNL     1       2.430  -1.341   0.239  0.00  0.00    +0.000 NA
ENDROOT
BRANCH   3   4
ATOM      4  C   UNL     1       1.712  -2.255  -0.538  0.00  0.00    +0.000 A 
ATOM      5  C   UNL     1       2.255  -2.744  -1.729  0.00  0.00    +0.000 A 
ATOM      6  C   UNL     1       1.551  -3.674  -2.496  0.00  0.00    +0.000 A 
ATOM      7  C   UNL     1       0.306  -4.131  -2.066  0.00  0.00    +0.000 A 
ATOM      8  C   UNL     1      -0.232  -3.664  -0.867  0.00  0.00    +0.000 A 
ATOM      9  C   UNL     1       0.474  -2.733  -0.103  0.00  0.00    +0.000 A 
ENDBRANCH   3   4
BRANCH   2  10
ATOM     10  C   UNL     1       3.129   0.869   0.993  0.00  0.00    +0.000 C 
ATOM     11  C   UNL     1       2.957   0.360   2.455  0.00  0.00    +0.000 C 
ATOM     12  C   UNL     1       3.607   1.254   3.512  0.00  0.00    +0.000 C 
ATOM     13  C   UNL     1       3.148   2.700   3.396  0.00  0.00    +0.000 C 
ATOM     14  C   UNL     1       3.345   3.239   1.985  0.00  0.00    +0.000 C 
ATOM     15  C   UNL     1       2.664   2.347   0.947  0.00  0.00    +0.000 C 
BRANCH  10  16
ATOM     16  C   UNL     1       4.606   0.695   0.561  0.00  0.00    +0.000 C 
ATOM     17 CL   UNL     1       4.940   1.274  -1.097  0.00  0.00    +0.000 Cl
ENDBRANCH  10  16
ENDBRANCH   2  10
TORSDOF 3
