REMARK  Name = *****
REMARK  3 active torsions:
REMARK  status: ('A' for Active; 'I' for Inactive)
REMARK    1  A    between atoms: C_4  and  C_7
REMARK    2  A    between atoms: C_7  and  C_8
REMARK    3  A    between atoms: C_8  and  C_9
REMARK                            x       y       z     vdW  Elec       q    Type
REMARK                         _______ _______ _______ _____ _____    ______ ____
ROOT
ATOM      1  C   UNL     1      -3.618  -0.846  -0.518  0.00  0.00    +0.000 C 
ATOM      2  F   UNL     1      -3.304  -1.637  -1.592  0.00  0.00    +0.000 F 
ENDROOT
BRANCH   1   3
ATOM      3  C   UNL     1      -5.098  -0.530  -0.474  0.00  0.00    +0.000 A 
ATOM      4  C   UNL     1      -5.864  -0.547  -1.648  0.00  0.00    +0.000 A 
ATOM      5  C   UNL     1      -7.224  -0.238  -1.611  0.00  0.00    +0.000 A 
ATOM      6  C   UNL     1      -7.832   0.093  -0.401  0.00  0.00    +0.000 A 
ATOM      7  C   UNL     1      -7.081   0.114   0.773  0.00  0.00    +0.000 A 
ATOM      8  C   UNL     1      -5.720  -0.195   0.738  0.00  0.00    +0.000 A 
ENDBRANCH   1   3
BRANCH   1   9
ATOM      9  C   UNL     1      -2.783   0.439  -0.610  0.00  0.00    +0.000 C 
BRANCH   9  13
ATOM     10  C   UNL     1       1.381  -0.239   0.310  0.00  0.00    +0.000 A 
ATOM     11  C   UNL     1       0.847  -0.706  -0.888  0.00  0.00    +0.000 A 
ATOM     12  C   UNL     1      -0.498  -0.484  -1.188  0.00  0.00    +0.000 A 
ATOM     13  C   UNL     1      -1.323   0.207  -0.289  0.00  0.00    +0.000 A 
ATOM     14  C   UNL     1      -0.775   0.672   0.914  0.00  0.00    +0.000 A 
ATOM     15  C   UNL     1       0.571   0.450   1.211  0.00  0.00    +0.000 A 
ENDBRANCH   9  13
ENDBRANCH   1   9
TORSDOF 3
