REMARK  Name = *****
REMARK  3 active torsions:
REMARK  status: ('A' for Active; 'I' for Inactive)
REMARK    1  A    between atoms: C_4  and  C_7
REMARK    2  A    between atoms: C_7  and  N_9
REMARK    3  A    between atoms: N_9  and  C_10
REMARK                            x       y       z     vdW  Elec       q    Type
REMARK                         _______ _______ _______ _____ _____    ______ ____
ROOT
ATOM      1  N   UNL     1      -3.624  -0.146  -0.629  0.00  0.00    +0.000 N 
ATOM      2  H   UNL     1      -3.311  -0.969  -0.189  0.00  0.00    +0.000 HD
ENDROOT
BRANCH   1   3
ATOM      3  C   UNL     1      -4.987  -0.188  -1.007  0.00  0.00    +0.000 A 
ATOM      4  C   UNL     1      -5.623   0.723  -1.848  0.00  0.00    +0.000 A 
ATOM      5  C   UNL     1      -6.972   0.558  -2.163  0.00  0.00    +0.000 A 
ATOM      6  C   UNL     1      -7.709  -0.506  -1.662  0.00  0.00    +0.000 A 
ATOM      7  C   UNL     1      -7.086  -1.431  -0.834  0.00  0.00    +0.000 A 
ATOM      8  C   UNL     1      -5.733  -1.274  -0.515  0.00  0.00    +0.000 A 
ATOM      9  F   UNL     1      -7.568   1.439  -2.978  0.00  0.00    +0.000 F 
ENDBRANCH   1   3
BRANCH   1  10
ATOM     10  C   UNL     1      -2.640   0.828  -0.755  0.00  0.00    +0.000 C 
ATOM     11  S   UNL     1      -2.787   2.425  -1.243  0.00  0.00    +0.000 S 
BRANCH  10  15
ATOM     12  C   UNL     1       1.156  -0.735   0.458  0.00  0.00    +0.000 A 
ATOM     13  C   UNL     1       0.583   0.318   1.174  0.00  0.00    +0.000 A 
ATOM     14  C   UNL     1      -0.649   0.842   0.781  0.00  0.00    +0.000 A 
ATOM     15  C   UNL     1      -1.304   0.308  -0.334  0.00  0.00    +0.000 A 
ATOM     16  C   UNL     1      -0.732  -0.751  -1.050  0.00  0.00    +0.000 A 
ATOM     17  C   UNL     1       0.500  -1.270  -0.652  0.00  0.00    +0.000 A 
ENDBRANCH  10  15
ENDBRANCH   1  10
TORSDOF 3
