REMARK  Name = *****
REMARK  3 active torsions:
REMARK  status: ('A' for Active; 'I' for Inactive)
REMARK    1  A    between atoms: C_5  and  O_7
REMARK    2  A    between atoms: O_7  and  C_8
REMARK    3  A    between atoms: C_8  and  C_9
REMARK                            x       y       z     vdW  Elec       q    Type
REMARK                         _______ _______ _______ _____ _____    ______ ____
ROOT
ATOM      1  O   UNL     1       0.967  -2.300   0.212  0.00  0.00    +0.000 OA
ENDROOT
BRANCH   1   6
ATOM      2  C   UNL     1      -1.867  -0.041   0.343  0.00  0.00    +0.000 A 
ATOM      3  C   UNL     1      -1.291   1.209   0.126  0.00  0.00    +0.000 A 
ATOM      4  C   UNL     1       0.085   1.310  -0.070  0.00  0.00    +0.000 A 
ATOM      5  C   UNL     1       0.879   0.163  -0.050  0.00  0.00    +0.000 A 
ATOM      6  C   UNL     1       0.316  -1.097   0.166  0.00  0.00    +0.000 A 
ATOM      7  C   UNL     1      -1.066  -1.186   0.363  0.00  0.00    +0.000 A 
ATOM      8  F   UNL     1       2.197   0.320  -0.242  0.00  0.00    +0.000 F 
ENDBRANCH   1   6
BRANCH   1   9
ATOM      9  C   UNL     1       2.377  -2.289  -0.011  0.00  0.00    +0.000 C 
BRANCH   9  10
ATOM     10  C   UNL     1       2.890  -3.713   0.033  0.00  0.00    +0.000 A 
ATOM     11  C   UNL     1       4.026  -4.036   0.792  0.00  0.00    +0.000 A 
ATOM     12  C   UNL     1       4.515  -5.344   0.809  0.00  0.00    +0.000 A 
ATOM     13  C   UNL     1       3.875  -6.327   0.064  0.00  0.00    +0.000 A 
ATOM     14  C   UNL     1       2.755  -6.027  -0.702  0.00  0.00    +0.000 A 
ATOM     15  C   UNL     1       2.265  -4.721  -0.721  0.00  0.00    +0.000 A 
ATOM     16  F   UNL     1       4.347  -7.580   0.081  0.00  0.00    +0.000 F 
ENDBRANCH   9  10
ENDBRANCH   1   9
TORSDOF 3
