REMARK  Name = *****
REMARK  4 active torsions:
REMARK  status: ('A' for Active; 'I' for Inactive)
REMARK    1  A    between atoms: C_4  and  C_7
REMARK    2  A    between atoms: C_8  and  C_9
REMARK    3  A    between atoms: C_12  and  C_15
REMARK    4  A    between atoms: C_15  and  C_16
REMARK                            x       y       z     vdW  Elec       q    Type
REMARK                         _______ _______ _______ _____ _____    ______ ____
ROOT
ATOM      1  C   UNL     1       2.021  -0.015   0.008  0.00  0.00    +0.000 A 
ATOM      2  C   UNL     1       2.698   1.204   0.055  0.00  0.00    +0.000 A 
ATOM      3  C   UNL     1       4.094   1.236  -0.005  0.00  0.00    +0.000 A 
ATOM      4  C   UNL     1       4.826   0.046  -0.112  0.00  0.00    +0.000 A 
ATOM      5  C   UNL     1       4.138  -1.175  -0.155  0.00  0.00    +0.000 A 
ATOM      6  C   UNL     1       2.742  -1.205  -0.093  0.00  0.00    +0.000 A 
ENDROOT
BRANCH   1   8
ATOM      7  C   UNL     1      -0.610  -0.040   0.052  0.00  0.00    +0.000 C 
ATOM      8  C   UNL     1       0.591  -0.039   0.044  0.00  0.00    +0.000 C 
BRANCH   7  12
ATOM      9  C   UNL     1      -4.833   0.033  -0.009  0.00  0.00    +0.000 A 
ATOM     10  C   UNL     1      -4.158  -1.187   0.035  0.00  0.00    +0.000 A 
ATOM     11  C   UNL     1      -2.762  -1.214   0.060  0.00  0.00    +0.000 A 
ATOM     12  C   UNL     1      -2.040  -0.018   0.039  0.00  0.00    +0.000 A 
ATOM     13  C   UNL     1      -2.718   1.203  -0.004  0.00  0.00    +0.000 A 
ATOM     14  C   UNL     1      -4.114   1.228  -0.029  0.00  0.00    +0.000 A 
ENDBRANCH   7  12
ENDBRANCH   1   8
BRANCH   4  15
ATOM     15  C   UNL     1       6.331   0.076  -0.196  0.00  0.00    +0.000 C 
BRANCH  15  16
ATOM     16  C   UNL     1       6.979  -0.587   0.991  0.00  0.00    +0.000 C 
ATOM     17  O   UNL     1       7.863  -1.434   0.893  0.00  0.00    +0.000 OA
ENDBRANCH  15  16
ENDBRANCH   4  15
TORSDOF 4
