REMARK  Name = *****
REMARK  3 active torsions:
REMARK  status: ('A' for Active; 'I' for Inactive)
REMARK    1  A    between atoms: C_4  and  C_7
REMARK    2  A    between atoms: C_8  and  C_9
REMARK    3  A    between atoms: C_14  and  C_15
REMARK                            x       y       z     vdW  Elec       q    Type
REMARK                         _______ _______ _______ _____ _____    ______ ____
ROOT
ATOM      1  C   UNL     1       2.033  -0.013  -0.001  0.00  0.00    +0.000 A 
ATOM      2  C   UNL     1       2.727   1.204  -0.006  0.00  0.00    +0.000 A 
ATOM      3  C   UNL     1       4.121   1.223   0.012  0.00  0.00    +0.000 A 
ATOM      4  C   UNL     1       4.831   0.026   0.035  0.00  0.00    +0.000 A 
ATOM      5  C   UNL     1       4.147  -1.190   0.040  0.00  0.00    +0.000 A 
ATOM      6  C   UNL     1       2.739  -1.227   0.022  0.00  0.00    +0.000 A 
ENDROOT
BRANCH   6   7
ATOM      7  C   UNL     1       2.019  -2.552   0.028  0.00  0.00    +0.000 C 
ATOM      8  F   UNL     1       1.200  -2.714   1.104  0.00  0.00    +0.000 F 
ATOM      9  F   UNL     1       1.242  -2.744  -1.075  0.00  0.00    +0.000 F 
ATOM     10  F   UNL     1       2.868  -3.623   0.059  0.00  0.00    +0.000 F 
ENDBRANCH   6   7
BRANCH   1  12
ATOM     11  C   UNL     1      -0.600   0.041  -0.031  0.00  0.00    +0.000 C 
ATOM     12  C   UNL     1       0.601   0.022  -0.019  0.00  0.00    +0.000 C 
BRANCH  11  16
ATOM     13  C   UNL     1      -4.823   0.054  -0.064  0.00  0.00    +0.000 A 
ATOM     14  C   UNL     1      -4.129  -1.155  -0.010  0.00  0.00    +0.000 A 
ATOM     15  C   UNL     1      -2.733  -1.160   0.001  0.00  0.00    +0.000 A 
ATOM     16  C   UNL     1      -2.030   0.047  -0.043  0.00  0.00    +0.000 A 
ATOM     17  C   UNL     1      -2.726   1.257  -0.098  0.00  0.00    +0.000 A 
ATOM     18  C   UNL     1      -4.122   1.259  -0.108  0.00  0.00    +0.000 A 
ENDBRANCH  11  16
ENDBRANCH   1  12
TORSDOF 3
