REMARK  Name = *****
REMARK  3 active torsions:
REMARK  status: ('A' for Active; 'I' for Inactive)
REMARK    1  A    between atoms: C_1  and  C_2
REMARK    2  A    between atoms: C_5  and  C_8
REMARK    3  A    between atoms: C_9  and  C_10
REMARK                            x       y       z     vdW  Elec       q    Type
REMARK                         _______ _______ _______ _____ _____    ______ ____
ROOT
ATOM      1  C   UNL     1      -3.008   0.218  -0.712  0.00  0.00    +0.000 C 
ATOM      2  C   UNL     1      -3.791   1.079  -0.040  0.00  0.00    +0.000 C 
ENDROOT
BRANCH   2   3
ATOM      3  C   UNL     1      -5.304   1.078   0.030  0.00  0.00    +0.000 C 
ATOM      4  C   UNL     1      -5.820   1.516   1.415  0.00  0.00    +0.000 C 
ATOM      5  C   UNL     1      -5.454   0.624   2.597  0.00  0.00    +0.000 C 
ATOM      6  C   UNL     1      -5.986  -0.802   2.492  0.00  0.00    +0.000 C 
ATOM      7  C   UNL     1      -5.199  -1.653   1.509  0.00  0.00    +0.000 C 
ATOM      8  C   UNL     1      -5.635  -1.511   0.070  0.00  0.00    +0.000 C 
ATOM      9  O   UNL     1      -5.662  -2.505  -0.664  0.00  0.00    +0.000 OA
ATOM     10  C   UNL     1      -6.045  -0.163  -0.487  0.00  0.00    +0.000 C 
ENDBRANCH   2   3
BRANCH   1  15
ATOM     11  C   UNL     1       2.775   0.428  -0.919  0.00  0.00    +0.000 C 
ATOM     12  C   UNL     1       1.279   0.355  -0.848  0.00  0.00    +0.000 A 
ATOM     13  C   UNL     1       0.608   0.660   0.341  0.00  0.00    +0.000 A 
ATOM     14  C   UNL     1      -0.789   0.623   0.397  0.00  0.00    +0.000 A 
ATOM     15  C   UNL     1      -1.541   0.302  -0.739  0.00  0.00    +0.000 A 
ATOM     16  C   UNL     1      -0.866  -0.006  -1.927  0.00  0.00    +0.000 A 
ATOM     17  C   UNL     1       0.530   0.032  -1.984  0.00  0.00    +0.000 A 
ENDBRANCH   1  15
TORSDOF 2
