REMARK  Name = *****
REMARK  5 active torsions:
REMARK  status: ('A' for Active; 'I' for Inactive)
REMARK    1  A    between atoms: C_1  and  C_2
REMARK    2  A    between atoms: C_5  and  C_7
REMARK    3  A    between atoms: C_7  and  N_8
REMARK    4  A    between atoms: N_8  and  C_9
REMARK    5  A    between atoms: C_12  and  C_14
REMARK                            x       y       z     vdW  Elec       q    Type
REMARK                         _______ _______ _______ _____ _____    ______ ____
ROOT
ATOM      1  C   UNL     1      -3.120   0.542   0.033  0.00  0.00    +0.000 C 
ENDROOT
BRANCH   1   6
ATOM      2  C   UNL     1       2.105  -0.038   0.519  0.00  0.00    +0.000 C 
ATOM      3  C   UNL     1       0.663  -0.261   0.215  0.00  0.00    +0.000 A 
ATOM      4  C   UNL     1       0.068  -1.362  -0.364  0.00  0.00    +0.000 A 
ATOM      5  C   UNL     1      -1.343  -1.205  -0.495  0.00  0.00    +0.000 A 
ATOM      6  C   UNL     1      -1.779   0.011  -0.011  0.00  0.00    +0.000 A 
ATOM      7  S   UNL     1      -0.487   0.949   0.596  0.00  0.00    +0.000 S 
ENDBRANCH   1   6
BRANCH   1   8
ATOM      8  N   UNL     1      -4.114  -0.140  -0.444  0.00  0.00    +0.000 NA
BRANCH   8   9
ATOM      9  C   UNL     1      -5.316   0.482  -0.338  0.00  0.00    +0.000 A 
ATOM     10  C   UNL     1      -5.901   1.394  -1.195  0.00  0.00    +0.000 A 
ATOM     11  C   UNL     1      -7.189   1.821  -0.758  0.00  0.00    +0.000 A 
ATOM     12  C   UNL     1      -7.566   1.207   0.417  0.00  0.00    +0.000 A 
ATOM     13  S   UNL     1      -6.364   0.124   0.974  0.00  0.00    +0.000 S 
ATOM     14  C   UNL     1      -8.831   1.370   1.186  0.00  0.00    +0.000 C 
ENDBRANCH   8   9
ENDBRANCH   1   8
TORSDOF 3
