REMARK  Name = *****
REMARK  1 active torsions:
REMARK  status: ('A' for Active; 'I' for Inactive)
REMARK    1  A    between atoms: C_10  and  C_12
REMARK                            x       y       z     vdW  Elec       q    Type
REMARK                         _______ _______ _______ _____ _____    ______ ____
ROOT
ATOM      1  C   UNL     1      -2.289   0.946  -0.204  0.00  0.00    +0.000 C 
ATOM      2  C   UNL     1      -0.915   1.427   0.247  0.00  0.00    +0.000 C 
ATOM      3  C   UNL     1       0.173   0.402   0.037  0.00  0.00    +0.000 A 
ATOM      4  C   UNL     1      -0.123  -0.959  -0.149  0.00  0.00    +0.000 A 
ATOM      5  C   UNL     1      -1.547  -1.448  -0.236  0.00  0.00    +0.000 C 
ATOM      6  C   UNL     1      -2.558  -0.454   0.322  0.00  0.00    +0.000 C 
ATOM      7  F   UNL     1      -3.806  -0.832  -0.071  0.00  0.00    +0.000 F 
ATOM      8  C   UNL     1       0.925  -1.873  -0.313  0.00  0.00    +0.000 A 
ATOM      9  C   UNL     1       2.255  -1.447  -0.265  0.00  0.00    +0.000 A 
ATOM     10  C   UNL     1       2.573  -0.098  -0.060  0.00  0.00    +0.000 A 
ATOM     11  C   UNL     1       1.516   0.814   0.091  0.00  0.00    +0.000 A 
ENDROOT
BRANCH  10  12
ATOM     12  C   UNL     1       3.973   0.350  -0.005  0.00  0.00    +0.000 A 
ATOM     13  C   UNL     1       4.872  -0.201   0.923  0.00  0.00    +0.000 A 
ATOM     14  C   UNL     1       6.202   0.225   0.978  0.00  0.00    +0.000 A 
ATOM     15  C   UNL     1       6.655   1.209   0.103  0.00  0.00    +0.000 A 
ATOM     16  C   UNL     1       5.780   1.768  -0.826  0.00  0.00    +0.000 A 
ATOM     17  C   UNL     1       4.450   1.342  -0.878  0.00  0.00    +0.000 A 
ENDBRANCH  10  12
TORSDOF 1
