REMARK  Name = *****
REMARK  5 active torsions:
REMARK  status: ('A' for Active; 'I' for Inactive)
REMARK    1  A    between atoms: C_1  and  C_2
REMARK    2  A    between atoms: C_2  and  C_3
REMARK    3  A    between atoms: C_2  and  C_4
REMARK    4  A    between atoms: C_2  and  C_11
REMARK    5  A    between atoms: C_4  and  C_5
REMARK                            x       y       z     vdW  Elec       q    Type
REMARK                         _______ _______ _______ _____ _____    ______ ____
ROOT
ATOM      1  C   UNL     1       0.889  -0.211   0.100  0.00  0.00    +0.000 C 
ATOM      2  C   UNL     1       2.430  -0.143   0.118  0.00  0.00    +0.000 C 
ATOM      3  C   UNL     1       2.974  -0.913  -1.103  0.00  0.00    +0.000 C 
ENDROOT
BRANCH   2   4
ATOM      4  C   UNL     1       2.935  -0.829   1.389  0.00  0.00    +0.000 C 
ATOM      5  C   UNL     1       3.696  -0.330   2.385  0.00  0.00    +0.000 C 
ATOM      6  C   UNL     1       3.929  -1.339   3.387  0.00  0.00    +0.000 C 
ATOM      7  C   UNL     1       3.318  -2.473   3.026  0.00  0.00    +0.000 C 
ATOM      8  C   UNL     1       2.617  -2.276   1.715  0.00  0.00    +0.000 C 
ENDBRANCH   2   4
BRANCH   2   9
ATOM      9  C   UNL     1       2.903   1.350   0.067  0.00  0.00    +0.000 C 
BRANCH   9  10
ATOM     10  C   UNL     1       2.480   2.183  -1.125  0.00  0.00    +0.000 A 
ATOM     11  C   UNL     1       1.292   2.925  -1.091  0.00  0.00    +0.000 A 
ATOM     12  C   UNL     1       0.906   3.699  -2.187  0.00  0.00    +0.000 A 
ATOM     13  C   UNL     1       1.706   3.744  -3.327  0.00  0.00    +0.000 A 
ATOM     14  C   UNL     1       2.895   3.018  -3.370  0.00  0.00    +0.000 A 
ATOM     15  C   UNL     1       3.282   2.244  -2.274  0.00  0.00    +0.000 A 
ENDBRANCH   9  10
ENDBRANCH   2   9
TORSDOF 3
