REMARK  Name = *****
REMARK  1 active torsions:
REMARK  status: ('A' for Active; 'I' for Inactive)
REMARK    1  A    between atoms: N_11  and  C_12
REMARK                            x       y       z     vdW  Elec       q    Type
REMARK                         _______ _______ _______ _____ _____    ______ ____
ROOT
ATOM      1  C   UNL     1       0.825  -0.189   0.077  0.00  0.00    +0.000 C 
ATOM      2  C   UNL     1       2.148  -0.350   0.163  0.00  0.00    +0.000 C 
ATOM      3  C   UNL     1       2.968  -1.583   0.230  0.00  0.00    +0.000 C 
ATOM      4  C   UNL     1       2.494  -2.916  -0.328  0.00  0.00    +0.000 C 
ATOM      5  C   UNL     1       3.642  -3.933  -0.228  0.00  0.00    +0.000 C 
ATOM      6  C   UNL     1       4.957  -3.426  -0.842  0.00  0.00    +0.000 C 
ATOM      7  C   UNL     1       5.339  -2.016  -0.371  0.00  0.00    +0.000 C 
ATOM      8  C   UNL     1       4.154  -1.084  -0.569  0.00  0.00    +0.000 C 
ATOM      9  O   UNL     1       4.362   0.248  -0.112  0.00  0.00    +0.000 OA
ATOM     10  C   UNL     1       3.122   0.778   0.145  0.00  0.00    +0.000 C 
ATOM     11  N   UNL     1       2.883   2.016   0.359  0.00  0.00    +0.000 NA
ENDROOT
BRANCH  11  12
ATOM     12  C   UNL     1       4.024   2.940   0.299  0.00  0.00    +0.000 C 
ATOM     13  C   UNL     1       4.732   2.990   1.659  0.00  0.00    +0.000 C 
ATOM     14  C   UNL     1       3.877   3.637   2.748  0.00  0.00    +0.000 C 
ATOM     15  C   UNL     1       3.384   5.018   2.330  0.00  0.00    +0.000 C 
ATOM     16  C   UNL     1       2.644   4.972   0.998  0.00  0.00    +0.000 C 
ATOM     17  C   UNL     1       3.493   4.325  -0.097  0.00  0.00    +0.000 C 
ENDBRANCH  11  12
TORSDOF 1
