REMARK  Name = *****
REMARK  4 active torsions:
REMARK  status: ('A' for Active; 'I' for Inactive)
REMARK    1  A    between atoms: C_4  and  C_7
REMARK    2  A    between atoms: C_7  and  C_8
REMARK    3  A    between atoms: C_8  and  C_9
REMARK    4  A    between atoms: C_9  and  C_10
REMARK                            x       y       z     vdW  Elec       q    Type
REMARK                         _______ _______ _______ _____ _____    ______ ____
ROOT
ATOM      1  C   UNL     1      -3.653  -0.775  -0.213  0.00  0.00    +0.000 C 
ENDROOT
BRANCH   1   2
ATOM      2  C   UNL     1      -5.136  -0.454  -0.405  0.00  0.00    +0.000 C 
ATOM      3  F   UNL     1      -5.550   0.270   0.679  0.00  0.00    +0.000 F 
BRANCH   2   4
ATOM      4  C   UNL     1      -5.954  -1.711  -0.599  0.00  0.00    +0.000 A 
ATOM      5  C   UNL     1      -6.690  -2.251   0.465  0.00  0.00    +0.000 A 
ATOM      6  C   UNL     1      -7.436  -3.418   0.291  0.00  0.00    +0.000 A 
ATOM      7  C   UNL     1      -7.454  -4.057  -0.947  0.00  0.00    +0.000 A 
ATOM      8  C   UNL     1      -6.725  -3.532  -2.012  0.00  0.00    +0.000 A 
ATOM      9  C   UNL     1      -5.978  -2.365  -1.841  0.00  0.00    +0.000 A 
ENDBRANCH   2   4
ENDBRANCH   1   2
BRANCH   1  10
ATOM     10  C   UNL     1      -2.828   0.507  -0.092  0.00  0.00    +0.000 C 
BRANCH  10  14
ATOM     11  C   UNL     1       1.360  -0.392   0.405  0.00  0.00    +0.000 A 
ATOM     12  C   UNL     1       0.835  -0.199  -0.872  0.00  0.00    +0.000 A 
ATOM     13  C   UNL     1      -0.519   0.097  -1.035  0.00  0.00    +0.000 A 
ATOM     14  C   UNL     1      -1.360   0.208   0.081  0.00  0.00    +0.000 A 
ATOM     15  C   UNL     1      -0.824   0.006   1.360  0.00  0.00    +0.000 A 
ATOM     16  C   UNL     1       0.531  -0.290   1.520  0.00  0.00    +0.000 A 
ENDBRANCH  10  14
ENDBRANCH   1  10
TORSDOF 4
