REMARK  Name = *****
REMARK  5 active torsions:
REMARK  status: ('A' for Active; 'I' for Inactive)
REMARK    1  A    between atoms: C_1  and  O_2
REMARK    2  A    between atoms: O_2  and  N_3
REMARK    3  A    between atoms: N_3  and  C_4
REMARK    4  A    between atoms: C_10  and  C_11
REMARK    5  A    between atoms: C_11  and  C_12
REMARK                            x       y       z     vdW  Elec       q    Type
REMARK                         _______ _______ _______ _____ _____    ______ ____
ROOT
ATOM      1  C   UNL     1       4.409  -0.374   1.112  0.00  0.00    +0.000 C 
ATOM      2  C   UNL     1       5.148  -1.002   2.225  0.00  0.00    +0.000 C 
ATOM      3  C   UNL     1       4.870  -2.164   2.838  0.00  0.00    +0.000 C 
ATOM      4  C   UNL     1       5.874  -2.424   3.931  0.00  0.00    +0.000 C 
ATOM      5  C   UNL     1       6.991  -1.429   3.628  0.00  0.00    +0.000 C 
ATOM      6  C   UNL     1       6.348  -0.322   2.804  0.00  0.00    +0.000 C 
ATOM      7  C   UNL     1       3.782  -3.074   2.556  0.00  0.00    +0.000 C 
ENDROOT
BRANCH   1   8
ATOM      8  N   UNL     1       4.758   0.761   0.597  0.00  0.00    +0.000 NA
BRANCH   8  10
ATOM      9  C   UNL     1       4.256   2.329  -0.996  0.00  0.00    +0.000 C 
ATOM     10  O   UNL     1       3.862   1.083  -0.434  0.00  0.00    +0.000 OA
ENDBRANCH   8  10
ENDBRANCH   1   8
BRANCH   7  11
ATOM     11  C   UNL     1       3.517  -4.197   3.245  0.00  0.00    +0.000 C 
BRANCH  11  12
ATOM     12  C   UNL     1       2.396  -5.098   2.936  0.00  0.00    +0.000 A 
ATOM     13  C   UNL     1       2.048  -5.434   1.621  0.00  0.00    +0.000 A 
ATOM     14  C   UNL     1       0.996  -6.318   1.369  0.00  0.00    +0.000 A 
ATOM     15  C   UNL     1       0.290  -6.885   2.428  0.00  0.00    +0.000 A 
ATOM     16  C   UNL     1       0.638  -6.572   3.740  0.00  0.00    +0.000 A 
ATOM     17  C   UNL     1       1.690  -5.687   3.993  0.00  0.00    +0.000 A 
ENDBRANCH  11  12
ENDBRANCH   7  11
TORSDOF 4
