REMARK  Name = *****
REMARK  4 active torsions:
REMARK  status: ('A' for Active; 'I' for Inactive)
REMARK    1  A    between atoms: C_1  and  O_2
REMARK    2  A    between atoms: O_2  and  C_3
REMARK    3  A    between atoms: C_3  and  C_11
REMARK    4  A    between atoms: C_4  and  C_5
REMARK                            x       y       z     vdW  Elec       q    Type
REMARK                         _______ _______ _______ _____ _____    ______ ____
ROOT
ATOM      1  C   UNL     1       3.175  -0.927   0.888  0.00  0.00    +0.000 C 
ATOM      2  C   UNL     1       2.443  -1.919   1.429  0.00  0.00    +0.000 C 
ENDROOT
BRANCH   2   3
ATOM      3  C   UNL     1       0.975  -2.016   1.425  0.00  0.00    +0.000 A 
ATOM      4  C   UNL     1       0.381  -3.261   1.178  0.00  0.00    +0.000 A 
ATOM      5  C   UNL     1      -1.008  -3.405   1.199  0.00  0.00    +0.000 A 
ATOM      6  C   UNL     1      -1.818  -2.306   1.481  0.00  0.00    +0.000 A 
ATOM      7  C   UNL     1      -1.239  -1.067   1.745  0.00  0.00    +0.000 A 
ATOM      8  C   UNL     1       0.150  -0.925   1.723  0.00  0.00    +0.000 A 
ENDBRANCH   2   3
BRANCH   1   9
ATOM      9  C   UNL     1       4.649  -0.909   0.997  0.00  0.00    +0.000 A 
ATOM     10  C   UNL     1       5.421  -2.033   0.669  0.00  0.00    +0.000 A 
ATOM     11  C   UNL     1       6.814  -1.992   0.763  0.00  0.00    +0.000 A 
ATOM     12  C   UNL     1       7.452  -0.826   1.181  0.00  0.00    +0.000 A 
ATOM     13  C   UNL     1       6.698   0.301   1.502  0.00  0.00    +0.000 A 
ATOM     14  C   UNL     1       5.305   0.261   1.408  0.00  0.00    +0.000 A 
ENDBRANCH   1   9
BRANCH   1  16
ATOM     15  C   UNL     1       2.709   0.126  -1.119  0.00  0.00    +0.000 C 
ATOM     16  O   UNL     1       2.599   0.187   0.302  0.00  0.00    +0.000 OA
ENDBRANCH   1  16
TORSDOF 3
