REMARK  Name = *****
REMARK  2 active torsions:
REMARK  status: ('A' for Active; 'I' for Inactive)
REMARK    1  A    between atoms: C_6  and  N_7
REMARK    2  A    between atoms: C_8  and  C_9
REMARK                            x       y       z     vdW  Elec       q    Type
REMARK                         _______ _______ _______ _____ _____    ______ ____
ROOT
ATOM      1  N   UNL     1       3.856  -0.057   0.085  0.00  0.00    +0.000 NA
ATOM      2  C   UNL     1       4.514   1.054  -0.013  0.00  0.00    +0.000 C 
ENDROOT
BRANCH   2   3
ATOM      3  C   UNL     1       5.989   1.088   0.035  0.00  0.00    +0.000 A 
ATOM      4  C   UNL     1       6.637   2.321  -0.063  0.00  0.00    +0.000 A 
ATOM      5  C   UNL     1       8.027   2.359  -0.018  0.00  0.00    +0.000 A 
ATOM      6  C   UNL     1       8.766   1.188   0.122  0.00  0.00    +0.000 A 
ATOM      7  C   UNL     1       8.124  -0.042   0.220  0.00  0.00    +0.000 A 
ATOM      8  C   UNL     1       6.729  -0.094   0.176  0.00  0.00    +0.000 A 
ATOM      9  F   UNL     1      10.104   1.237   0.164  0.00  0.00    +0.000 F 
ATOM     10  F   UNL     1       8.651   3.541  -0.111  0.00  0.00    +0.000 F 
ENDBRANCH   2   3
BRANCH   1  16
ATOM     11  C   UNL     1       1.718   0.302   1.182  0.00  0.00    +0.000 A 
ATOM     12  C   UNL     1       0.325   0.391   1.122  0.00  0.00    +0.000 A 
ATOM     13  C   UNL     1      -0.326   0.215  -0.097  0.00  0.00    +0.000 A 
ATOM     14  C   UNL     1       0.403  -0.053  -1.255  0.00  0.00    +0.000 A 
ATOM     15  C   UNL     1       1.796  -0.140  -1.190  0.00  0.00    +0.000 A 
ATOM     16  C   UNL     1       2.461   0.049   0.025  0.00  0.00    +0.000 A 
ATOM     17 CL   UNL     1      -2.041   0.324  -0.174  0.00  0.00    +0.000 Cl
ENDBRANCH   1  16
TORSDOF 2
