REMARK  Name = *****
REMARK  4 active torsions:
REMARK  status: ('A' for Active; 'I' for Inactive)
REMARK    1  A    between atoms: C_1  and  O_8
REMARK    2  A    between atoms: C_3  and  C_7
REMARK    3  A    between atoms: O_8  and  C_9
REMARK    4  A    between atoms: C_9  and  C_11
REMARK                            x       y       z     vdW  Elec       q    Type
REMARK                         _______ _______ _______ _____ _____    ______ ____
ROOT
ATOM      1  O   UNL     1       2.860   0.012   1.287  0.00  0.00    +0.000 OA
ENDROOT
BRANCH   1   2
ATOM      2  C   UNL     1       1.979   0.053   0.153  0.00  0.00    +0.000 C 
ATOM      3  C   UNL     1       2.151   1.367  -0.631  0.00  0.00    +0.000 C 
ATOM      4  C   UNL     1       3.364   1.368  -1.580  0.00  0.00    +0.000 C 
ATOM      5  C   UNL     1       3.290   0.173  -2.547  0.00  0.00    +0.000 C 
ATOM      6  C   UNL     1       2.874  -1.110  -1.889  0.00  0.00    +0.000 C 
ATOM      7  C   UNL     1       2.305  -1.160  -0.675  0.00  0.00    +0.000 C 
ATOM      8  C   UNL     1       4.695   1.394  -0.821  0.00  0.00    +0.000 C 
ENDBRANCH   1   2
BRANCH   1   9
ATOM      9  C   UNL     1       2.444   0.686   2.385  0.00  0.00    +0.000 C 
ATOM     10  O   UNL     1       1.396   1.303   2.495  0.00  0.00    +0.000 OA
BRANCH   9  11
ATOM     11  C   UNL     1       3.458   0.587   3.470  0.00  0.00    +0.000 A 
ATOM     12  C   UNL     1       3.198   1.243   4.681  0.00  0.00    +0.000 A 
ATOM     13  C   UNL     1       4.120   1.182   5.728  0.00  0.00    +0.000 A 
ATOM     14  C   UNL     1       5.305   0.465   5.571  0.00  0.00    +0.000 A 
ATOM     15  C   UNL     1       5.572  -0.191   4.370  0.00  0.00    +0.000 A 
ATOM     16  C   UNL     1       4.652  -0.132   3.320  0.00  0.00    +0.000 A 
ENDBRANCH   9  11
ENDBRANCH   1   9
TORSDOF 3
