REMARK  Name = *****
REMARK  2 active torsions:
REMARK  status: ('A' for Active; 'I' for Inactive)
REMARK    1  A    between atoms: C_1  and  C_2
REMARK    2  A    between atoms: C_9  and  C_11
REMARK                            x       y       z     vdW  Elec       q    Type
REMARK                         _______ _______ _______ _____ _____    ______ ____
ROOT
ATOM      1  C   UNL     1       1.071  -0.021   0.322  0.00  0.00    +0.000 C 
ATOM      2  C   UNL     1       2.589   0.015   0.195  0.00  0.00    +0.000 C 
ATOM      3  C   UNL     1       3.264  -1.217   0.835  0.00  0.00    +0.000 C 
ATOM      4  C   UNL     1       3.574  -0.850   2.294  0.00  0.00    +0.000 C 
ATOM      5  C   UNL     1       3.761   0.631   2.188  0.00  0.00    +0.000 A 
ATOM      6  C   UNL     1       3.196   1.123   1.009  0.00  0.00    +0.000 A 
ATOM      7  C   UNL     1       3.222   2.476   0.723  0.00  0.00    +0.000 A 
ATOM      8  C   UNL     1       3.828   3.339   1.643  0.00  0.00    +0.000 A 
ATOM      9  C   UNL     1       4.397   2.863   2.847  0.00  0.00    +0.000 A 
ATOM     10  C   UNL     1       4.350   1.482   3.112  0.00  0.00    +0.000 A 
ENDROOT
BRANCH   9  11
ATOM     11  C   UNL     1       5.022   3.793   3.804  0.00  0.00    +0.000 A 
ATOM     12  C   UNL     1       4.338   4.932   4.263  0.00  0.00    +0.000 A 
ATOM     13  C   UNL     1       4.930   5.814   5.171  0.00  0.00    +0.000 A 
ATOM     14  C   UNL     1       6.220   5.572   5.637  0.00  0.00    +0.000 A 
ATOM     15  C   UNL     1       6.917   4.450   5.197  0.00  0.00    +0.000 A 
ATOM     16  C   UNL     1       6.322   3.569   4.289  0.00  0.00    +0.000 A 
ENDBRANCH   9  11
TORSDOF 1
