REMARK  Name = *****
REMARK  4 active torsions:
REMARK  status: ('A' for Active; 'I' for Inactive)
REMARK    1  A    between atoms: C_1  and  C_2
REMARK    2  A    between atoms: C_4  and  C_9
REMARK    3  A    between atoms: C_9  and  O_11
REMARK    4  A    between atoms: O_11  and  C_12
REMARK                            x       y       z     vdW  Elec       q    Type
REMARK                         _______ _______ _______ _____ _____    ______ ____
ROOT
ATOM      1  C   UNL     1       1.154  -0.658  -2.723  0.00  0.00    +0.000 C 
ATOM      2  C   UNL     1       2.442  -0.504  -1.971  0.00  0.00    +0.000 A 
ATOM      3  C   UNL     1       3.329  -1.585  -1.870  0.00  0.00    +0.000 A 
ATOM      4  C   UNL     1       4.542  -1.456  -1.195  0.00  0.00    +0.000 A 
ATOM      5  C   UNL     1       4.884  -0.231  -0.636  0.00  0.00    +0.000 A 
ATOM      6  C   UNL     1       4.022   0.859  -0.736  0.00  0.00    +0.000 A 
ATOM      7  C   UNL     1       2.804   0.726  -1.405  0.00  0.00    +0.000 A 
ATOM      8  F   UNL     1       6.037  -0.073   0.029  0.00  0.00    +0.000 F 
ATOM      9  F   UNL     1       3.000  -2.745  -2.459  0.00  0.00    +0.000 F 
ENDROOT
BRANCH   4  10
ATOM     10  C   UNL     1       5.475  -2.580  -1.102  0.00  0.00    +0.000 C 
ATOM     11  O   UNL     1       6.665  -2.501  -1.352  0.00  0.00    +0.000 OA
BRANCH  10  12
ATOM     12  O   UNL     1       4.804  -3.672  -0.662  0.00  0.00    +0.000 OA
BRANCH  12  13
ATOM     13  C   UNL     1       5.578  -4.879  -0.534  0.00  0.00    +0.000 C 
ATOM     14  C   UNL     1       5.700  -5.564  -1.899  0.00  0.00    +0.000 C 
ATOM     15  C   UNL     1       6.369  -6.930  -1.787  0.00  0.00    +0.000 C 
ATOM     16  C   UNL     1       5.652  -7.826  -0.781  0.00  0.00    +0.000 C 
ATOM     17  C   UNL     1       5.518  -7.150   0.580  0.00  0.00    +0.000 C 
ATOM     18  C   UNL     1       4.850  -5.784   0.463  0.00  0.00    +0.000 C 
ENDBRANCH  12  13
ENDBRANCH  10  12
ENDBRANCH   4  10
TORSDOF 3
