REMARK  Name = *****
REMARK  5 active torsions:
REMARK  status: ('A' for Active; 'I' for Inactive)
REMARK    1  A    between atoms: C_1  and  C_2
REMARK    2  A    between atoms: C_5  and  C_8
REMARK    3  A    between atoms: N_10  and  C_11
REMARK    4  A    between atoms: N_10  and  C_12
REMARK    5  A    between atoms: C_15  and  C_18
REMARK                            x       y       z     vdW  Elec       q    Type
REMARK                         _______ _______ _______ _____ _____    ______ ____
ROOT
ATOM      1  C   UNL     1      -3.299  -0.091   0.286  0.00  0.00    +0.000 C 
ATOM      2  O   UNL     1      -3.737  -1.238   0.289  0.00  0.00    +0.000 OA
ATOM      3  N   UNL     1      -4.038   1.111   0.280  0.00  0.00    +0.000 N 
ATOM      4  C   UNL     1      -3.368   2.398   0.502  0.00  0.00    +0.000 C 
ENDROOT
BRANCH   1   9
ATOM      5  C   UNL     1       2.472   0.146   0.152  0.00  0.00    +0.000 C 
ATOM      6  C   UNL     1       0.972   0.118   0.197  0.00  0.00    +0.000 A 
ATOM      7  C   UNL     1       0.222   0.596  -0.887  0.00  0.00    +0.000 A 
ATOM      8  C   UNL     1      -1.172   0.536  -0.864  0.00  0.00    +0.000 A 
ATOM      9  C   UNL     1      -1.821  -0.001   0.252  0.00  0.00    +0.000 A 
ATOM     10  C   UNL     1      -1.085  -0.519   1.320  0.00  0.00    +0.000 A 
ATOM     11  C   UNL     1       0.309  -0.456   1.292  0.00  0.00    +0.000 A 
ENDBRANCH   1   9
BRANCH   3  12
ATOM     12  C   UNL     1      -5.473   1.145   0.083  0.00  0.00    +0.000 A 
ATOM     13  C   UNL     1      -6.283   0.006   0.181  0.00  0.00    +0.000 A 
ATOM     14  C   UNL     1      -7.671   0.067  -0.011  0.00  0.00    +0.000 A 
ATOM     15  C   UNL     1      -8.300   1.277  -0.302  0.00  0.00    +0.000 A 
ATOM     16  C   UNL     1      -7.512   2.419  -0.426  0.00  0.00    +0.000 A 
ATOM     17  C   UNL     1      -6.125   2.353  -0.232  0.00  0.00    +0.000 A 
ATOM     18  C   UNL     1      -9.779   1.332  -0.540  0.00  0.00    +0.000 C 
ENDBRANCH   3  12
TORSDOF 2
