REMARK  Name = *****
REMARK  3 active torsions:
REMARK  status: ('A' for Active; 'I' for Inactive)
REMARK    1  A    between atoms: C_4  and  C_7
REMARK    2  A    between atoms: C_8  and  C_9
REMARK    3  A    between atoms: C_12  and  C_15
REMARK                            x       y       z     vdW  Elec       q    Type
REMARK                         _______ _______ _______ _____ _____    ______ ____
ROOT
ATOM      1  C   UNL     1      -5.167  -0.286  -0.610  0.00  0.00    +0.000 A 
ATOM      2  C   UNL     1      -5.660   0.783  -1.368  0.00  0.00    +0.000 A 
ATOM      3  C   UNL     1      -7.039   0.972  -1.531  0.00  0.00    +0.000 A 
ATOM      4  C   UNL     1      -7.949   0.084  -0.945  0.00  0.00    +0.000 A 
ATOM      5  C   UNL     1      -7.455  -0.997  -0.200  0.00  0.00    +0.000 A 
ATOM      6  C   UNL     1      -6.078  -1.182  -0.040  0.00  0.00    +0.000 A 
ENDROOT
BRANCH   4   7
ATOM      7  C   UNL     1      -9.433   0.247  -1.094  0.00  0.00    +0.000 C 
ATOM      8  O   UNL     1     -10.149  -0.598  -0.558  0.00  0.00    +0.000 OA
ATOM      9 CL   UNL     1     -10.076   1.600  -2.001  0.00  0.00    +0.000 Cl
ENDBRANCH   4   7
BRANCH   1  11
ATOM     10  C   UNL     1      -2.817   0.440  -0.278  0.00  0.00    +0.000 C 
ATOM     11  C   UNL     1      -3.728  -0.533  -0.445  0.00  0.00    +0.000 C 
BRANCH  10  15
ATOM     12  C   UNL     1       1.382  -0.182   0.256  0.00  0.00    +0.000 A 
ATOM     13  C   UNL     1       0.677  -0.989  -0.634  0.00  0.00    +0.000 A 
ATOM     14  C   UNL     1      -0.696  -0.802  -0.813  0.00  0.00    +0.000 A 
ATOM     15  C   UNL     1      -1.380   0.188  -0.095  0.00  0.00    +0.000 A 
ATOM     16  C   UNL     1      -0.656   1.005   0.785  0.00  0.00    +0.000 A 
ATOM     17  C   UNL     1       0.717   0.817   0.964  0.00  0.00    +0.000 A 
ENDBRANCH  10  15
ENDBRANCH   1  11
TORSDOF 3
