REMARK  Name = *****
REMARK  3 active torsions:
REMARK  status: ('A' for Active; 'I' for Inactive)
REMARK    1  A    between atoms: C_4  and  C_7
REMARK    2  A    between atoms: C_8  and  C_9
REMARK    3  A    between atoms: C_9  and  C_11
REMARK                            x       y       z     vdW  Elec       q    Type
REMARK                         _______ _______ _______ _____ _____    ______ ____
ROOT
ATOM      1  C   UNL     1       2.771  -0.710  -0.288  0.00  0.00    +0.000 C 
ATOM      2  C   UNL     1       3.355  -1.905  -0.103  0.00  0.00    +0.000 C 
ENDROOT
BRANCH   1   6
ATOM      3  C   UNL     1      -0.861   1.542   0.486  0.00  0.00    +0.000 C 
ATOM      4  C   UNL     1      -0.930   0.371  -0.490  0.00  0.00    +0.000 C 
ATOM      5  C   UNL     1       0.460  -0.046  -0.969  0.00  0.00    +0.000 C 
ATOM      6  C   UNL     1       1.392  -0.361   0.211  0.00  0.00    +0.000 C 
ATOM      7  C   UNL     1       1.459   0.825   1.185  0.00  0.00    +0.000 C 
ATOM      8  C   UNL     1       0.068   1.241   1.659  0.00  0.00    +0.000 C 
ENDBRANCH   1   6
BRANCH   2   9
ATOM      9  C   UNL     1       4.721  -2.167  -0.641  0.00  0.00    +0.000 C 
ATOM     10  O   UNL     1       5.304  -1.339  -1.336  0.00  0.00    +0.000 OA
BRANCH   9  11
ATOM     11  C   UNL     1       5.343  -3.489  -0.303  0.00  0.00    +0.000 C 
ATOM     12  C   UNL     1       6.351  -3.914  -1.090  0.00  0.00    +0.000 C 
ATOM     13  C   UNL     1       7.094  -5.199  -0.874  0.00  0.00    +0.000 C 
ATOM     14  C   UNL     1       6.427  -6.119   0.149  0.00  0.00    +0.000 C 
ATOM     15  C   UNL     1       5.915  -5.327   1.348  0.00  0.00    +0.000 C 
ATOM     16  C   UNL     1       4.904  -4.261   0.912  0.00  0.00    +0.000 C 
ENDBRANCH   9  11
ENDBRANCH   2   9
TORSDOF 3
