REMARK  Name = *****
REMARK  7 active torsions:
REMARK  status: ('A' for Active; 'I' for Inactive)
REMARK    1  A    between atoms: C_1  and  C_2
REMARK    2  A    between atoms: C_3  and  C_17
REMARK    3  A    between atoms: C_4  and  C_8
REMARK    4  A    between atoms: C_8  and  C_9
REMARK    5  A    between atoms: C_9  and  C_10
REMARK    6  A    between atoms: C_15  and  C_16
REMARK    7  A    between atoms: C_17  and  C_19
REMARK                            x       y       z     vdW  Elec       q    Type
REMARK                         _______ _______ _______ _____ _____    ______ ____
ROOT
ATOM      1  C   UNL     1       1.683  -0.756  -2.733  0.00  0.00    +0.000 C 
ATOM      2  C   UNL     1       0.951  -0.341  -1.487  0.00  0.00    +0.000 A 
ATOM      3  C   UNL     1       0.214   0.860  -1.418  0.00  0.00    +0.000 A 
ATOM      4  C   UNL     1      -0.450   1.246  -0.236  0.00  0.00    +0.000 A 
ATOM      5  C   UNL     1      -0.383   0.391   0.875  0.00  0.00    +0.000 A 
ATOM      6  C   UNL     1       0.326  -0.808   0.812  0.00  0.00    +0.000 A 
ATOM      7  C   UNL     1       0.988  -1.172  -0.359  0.00  0.00    +0.000 A 
ENDROOT
BRANCH   3   8
ATOM      8  C   UNL     1       0.124   1.719  -2.619  0.00  0.00    +0.000 C 
ATOM      9  O   UNL     1       0.833   2.714  -2.716  0.00  0.00    +0.000 OA
ATOM     10  C   UNL     1      -0.867   1.315  -3.676  0.00  0.00    +0.000 C 
ENDBRANCH   3   8
BRANCH   4  11
ATOM     11  C   UNL     1      -1.210   2.551  -0.110  0.00  0.00    +0.000 C 
BRANCH  11  12
ATOM     12  C   UNL     1      -0.342   3.752   0.297  0.00  0.00    +0.000 C 
BRANCH  12  13
ATOM     13  C   UNL     1       0.114   3.721   1.742  0.00  0.00    +0.000 A 
ATOM     14  C   UNL     1       1.378   3.175   2.030  0.00  0.00    +0.000 A 
ATOM     15  C   UNL     1       1.847   3.098   3.341  0.00  0.00    +0.000 A 
ATOM     16  C   UNL     1       1.061   3.571   4.384  0.00  0.00    +0.000 A 
ATOM     17  C   UNL     1      -0.193   4.121   4.117  0.00  0.00    +0.000 A 
ATOM     18  C   UNL     1      -0.683   4.202   2.803  0.00  0.00    +0.000 A 
ATOM     19  C   UNL     1      -2.029   4.832   2.569  0.00  0.00    +0.000 C 
ENDBRANCH  12  13
ENDBRANCH  11  12
ENDBRANCH   4  11
TORSDOF 4
