REMARK  Name = *****
REMARK  1 active torsions:
REMARK  status: ('A' for Active; 'I' for Inactive)
REMARK    1  A    between atoms: C_10  and  C_12
REMARK                            x       y       z     vdW  Elec       q    Type
REMARK                         _______ _______ _______ _____ _____    ______ ____
ROOT
ATOM      1  C   UNL     1       1.280   1.425  -0.198  0.00  0.00    +0.000 C 
ATOM      2  C   UNL     1      -0.009   0.685  -0.062  0.00  0.00    +0.000 A 
ATOM      3  C   UNL     1       0.031  -0.697   0.091  0.00  0.00    +0.000 A 
ATOM      4  C   UNL     1      -1.163  -1.410   0.223  0.00  0.00    +0.000 A 
ATOM      5  C   UNL     1      -2.393  -0.749   0.204  0.00  0.00    +0.000 A 
ATOM      6  C   UNL     1      -2.426   0.634   0.052  0.00  0.00    +0.000 A 
ATOM      7  C   UNL     1      -1.241   1.356  -0.081  0.00  0.00    +0.000 A 
ATOM      8 CL   UNL     1      -3.935   1.459   0.027  0.00  0.00    +0.000 Cl
ATOM      9  N   UNL     1       1.238  -1.389   0.113  0.00  0.00    +0.000 NA
ATOM     10  C   UNL     1       2.342  -0.733  -0.027  0.00  0.00    +0.000 C 
ATOM     11  O   UNL     1       2.458   0.604  -0.194  0.00  0.00    +0.000 OA
ENDROOT
BRANCH  10  12
ATOM     12  C   UNL     1       3.676  -1.390  -0.022  0.00  0.00    +0.000 A 
ATOM     13  C   UNL     1       4.863  -0.665  -0.216  0.00  0.00    +0.000 A 
ATOM     14  C   UNL     1       6.098  -1.320  -0.205  0.00  0.00    +0.000 A 
ATOM     15  C   UNL     1       6.145  -2.695  -0.000  0.00  0.00    +0.000 A 
ATOM     16  C   UNL     1       4.981  -3.429   0.193  0.00  0.00    +0.000 A 
ATOM     17  C   UNL     1       3.746  -2.778   0.182  0.00  0.00    +0.000 A 
ATOM     18  F   UNL     1       7.329  -3.319   0.010  0.00  0.00    +0.000 F 
ENDBRANCH  10  12
TORSDOF 1
