REMARK  Name = *****
REMARK  3 active torsions:
REMARK  status: ('A' for Active; 'I' for Inactive)
REMARK    1  A    between atoms: C_6  and  N_7
REMARK    2  A    between atoms: N_7  and  N_8
REMARK    3  A    between atoms: N_8  and  C_10
REMARK                            x       y       z     vdW  Elec       q    Type
REMARK                         _______ _______ _______ _____ _____    ______ ____
ROOT
ATOM      1  N   UNL     1      -3.082  -1.593  -0.069  0.00  0.00    +0.000 N 
ATOM      2  H   UNL     1      -3.918  -1.076  -0.116  0.00  0.00    +0.000 HD
ENDROOT
BRANCH   1   8
ATOM      3  C   UNL     1      -2.035   0.584  -0.050  0.00  0.00    +0.000 A 
ATOM      4  C   UNL     1      -0.910   1.415  -0.027  0.00  0.00    +0.000 A 
ATOM      5  C   UNL     1       0.355   0.849   0.031  0.00  0.00    +0.000 A 
ATOM      6  C   UNL     1       0.498  -0.530   0.061  0.00  0.00    +0.000 A 
ATOM      7  C   UNL     1      -0.622  -1.362   0.036  0.00  0.00    +0.000 A 
ATOM      8  C   UNL     1      -1.911  -0.819  -0.008  0.00  0.00    +0.000 A 
ATOM      9  F   UNL     1       1.720  -1.077   0.112  0.00  0.00    +0.000 F 
ATOM     10  F   UNL     1       1.433   1.644   0.051  0.00  0.00    +0.000 F 
ENDBRANCH   1   8
BRANCH   1  11
ATOM     11  N   UNL     1      -3.252  -3.004  -0.072  0.00  0.00    +0.000 N 
ATOM     12  O   UNL     1      -2.310  -3.767  -0.016  0.00  0.00    +0.000 OA
BRANCH  11  13
ATOM     13  C   UNL     1      -4.585  -3.577  -0.114  0.00  0.00    +0.000 A 
ATOM     14  C   UNL     1      -4.842  -4.756   0.598  0.00  0.00    +0.000 A 
ATOM     15  C   UNL     1      -6.116  -5.310   0.555  0.00  0.00    +0.000 A 
ATOM     16  C   UNL     1      -7.124  -4.705  -0.188  0.00  0.00    +0.000 A 
ATOM     17  C   UNL     1      -6.872  -3.538  -0.905  0.00  0.00    +0.000 A 
ATOM     18  C   UNL     1      -5.596  -2.969  -0.874  0.00  0.00    +0.000 A 
ATOM     19  F   UNL     1      -8.351  -5.243  -0.225  0.00  0.00    +0.000 F 
ATOM     20  F   UNL     1      -6.366  -6.435   1.238  0.00  0.00    +0.000 F 
ENDBRANCH  11  13
ENDBRANCH   1  11
TORSDOF 3
