REMARK  Name = *****
REMARK  3 active torsions:
REMARK  status: ('A' for Active; 'I' for Inactive)
REMARK    1  A    between atoms: C_4  and  C_7
REMARK    2  A    between atoms: C_7  and  C_8
REMARK    3  A    between atoms: C_8  and  C_9
REMARK                            x       y       z     vdW  Elec       q    Type
REMARK                         _______ _______ _______ _____ _____    ______ ____
ROOT
ATOM      1  C   UNL     1      -3.894  -0.634  -0.161  0.00  0.00    +0.000 C 
ATOM      2 BR   UNL     1      -4.067   0.068   1.675  0.00  0.00    +0.000 Br
ENDROOT
BRANCH   1   3
ATOM      3  C   UNL     1      -3.799  -2.152  -0.171  0.00  0.00    +0.000 A 
ATOM      4  C   UNL     1      -4.749  -2.924   0.530  0.00  0.00    +0.000 A 
ATOM      5  C   UNL     1      -4.710  -4.321   0.510  0.00  0.00    +0.000 A 
ATOM      6  C   UNL     1      -3.730  -4.966  -0.229  0.00  0.00    +0.000 A 
ATOM      7  C   UNL     1      -2.799  -4.240  -0.955  0.00  0.00    +0.000 A 
ATOM      8  C   UNL     1      -2.840  -2.842  -0.935  0.00  0.00    +0.000 A 
ATOM      9  F   UNL     1      -3.691  -6.305  -0.253  0.00  0.00    +0.000 F 
ENDBRANCH   1   3
BRANCH   1  10
ATOM     10  C   UNL     1      -2.856   0.209  -0.932  0.00  0.00    +0.000 C 
BRANCH  10  14
ATOM     11  C   UNL     1       1.383   0.359  -0.030  0.00  0.00    +0.000 A 
ATOM     12  C   UNL     1       0.840   1.099  -1.074  0.00  0.00    +0.000 A 
ATOM     13  C   UNL     1      -0.530   1.032  -1.337  0.00  0.00    +0.000 A 
ATOM     14  C   UNL     1      -1.383   0.224  -0.562  0.00  0.00    +0.000 A 
ATOM     15  C   UNL     1      -0.815  -0.513   0.485  0.00  0.00    +0.000 A 
ATOM     16  C   UNL     1       0.556  -0.445   0.749  0.00  0.00    +0.000 A 
ENDBRANCH  10  14
ENDBRANCH   1  10
TORSDOF 3
