REMARK  Name = *****
REMARK  5 active torsions:
REMARK  status: ('A' for Active; 'I' for Inactive)
REMARK    1  A    between atoms: C_1  and  C_2
REMARK    2  A    between atoms: C_2  and  S_3
REMARK    3  A    between atoms: S_3  and  C_4
REMARK    4  A    between atoms: C_4  and  C_12
REMARK    5  A    between atoms: N_5  and  C_6
REMARK                            x       y       z     vdW  Elec       q    Type
REMARK                         _______ _______ _______ _____ _____    ______ ____
ROOT
ATOM      1  C   UNL     1       4.662   0.898  -1.227  0.00  0.00    +0.000 C 
ATOM      2  N   UNL     1       5.411   0.020  -0.627  0.00  0.00    +0.000 NA
ENDROOT
BRANCH   2   3
ATOM      3  C   UNL     1       4.879  -0.929   0.256  0.00  0.00    +0.000 A 
ATOM      4  C   UNL     1       4.254  -2.084  -0.222  0.00  0.00    +0.000 A 
ATOM      5  C   UNL     1       3.761  -3.043   0.665  0.00  0.00    +0.000 A 
ATOM      6  C   UNL     1       3.910  -2.861   2.040  0.00  0.00    +0.000 A 
ATOM      7  C   UNL     1       4.557  -1.725   2.525  0.00  0.00    +0.000 A 
ATOM      8  C   UNL     1       5.047  -0.769   1.633  0.00  0.00    +0.000 A 
ENDBRANCH   2   3
BRANCH   1   9
ATOM      9  C   UNL     1       5.305   1.856  -2.182  0.00  0.00    +0.000 A 
ATOM     10  C   UNL     1       6.645   2.211  -1.967  0.00  0.00    +0.000 A 
ATOM     11  C   UNL     1       7.290   3.100  -2.830  0.00  0.00    +0.000 A 
ATOM     12  C   UNL     1       6.604   3.634  -3.919  0.00  0.00    +0.000 A 
ATOM     13  C   UNL     1       5.277   3.276  -4.151  0.00  0.00    +0.000 A 
ATOM     14  C   UNL     1       4.629   2.387  -3.290  0.00  0.00    +0.000 A 
ENDBRANCH   1   9
BRANCH   1  15
ATOM     15  S   UNL     1       2.919   1.053  -0.984  0.00  0.00    +0.000 S 
BRANCH  15  17
ATOM     16  C   UNL     1       3.435   2.558   1.291  0.00  0.00    +0.000 C 
ATOM     17  C   UNL     1       2.858   2.645  -0.110  0.00  0.00    +0.000 C 
ENDBRANCH  15  17
ENDBRANCH   1  15
TORSDOF 4
