REMARK  Name = *****
REMARK  4 active torsions:
REMARK  status: ('A' for Active; 'I' for Inactive)
REMARK    1  A    between atoms: C_1  and  C_2
REMARK    2  A    between atoms: C_3  and  C_4
REMARK    3  A    between atoms: C_3  and  C_10
REMARK    4  A    between atoms: C_10  and  C_12
REMARK                            x       y       z     vdW  Elec       q    Type
REMARK                         _______ _______ _______ _____ _____    ______ ____
ROOT
ATOM      1  C   UNL     1      -0.101  -0.775   0.820  0.00  0.00    +0.000 C 
ATOM      2  C   UNL     1       1.282  -0.275   1.096  0.00  0.00    +0.000 C 
ATOM      3  C   UNL     1       2.401  -0.473   0.367  0.00  0.00    +0.000 C 
ENDROOT
BRANCH   3   4
ATOM      4  C   UNL     1       2.408  -1.252  -0.886  0.00  0.00    +0.000 A 
ATOM      5  C   UNL     1       1.700  -0.815  -2.015  0.00  0.00    +0.000 A 
ATOM      6  C   UNL     1       1.730  -1.554  -3.199  0.00  0.00    +0.000 A 
ATOM      7  C   UNL     1       2.468  -2.734  -3.266  0.00  0.00    +0.000 A 
ATOM      8  C   UNL     1       3.175  -3.178  -2.150  0.00  0.00    +0.000 A 
ATOM      9  C   UNL     1       3.145  -2.441  -0.964  0.00  0.00    +0.000 A 
ENDBRANCH   3   4
BRANCH   3  10
ATOM     10  C   UNL     1       3.677   0.060   0.971  0.00  0.00    +0.000 C 
ATOM     11  O   UNL     1       3.820   0.178   2.186  0.00  0.00    +0.000 OA
BRANCH  10  12
ATOM     12  C   UNL     1       4.807   0.420   0.078  0.00  0.00    +0.000 A 
ATOM     13  C   UNL     1       6.105   0.093   0.488  0.00  0.00    +0.000 A 
ATOM     14  C   UNL     1       7.197   0.428  -0.314  0.00  0.00    +0.000 A 
ATOM     15  C   UNL     1       6.996   1.102  -1.519  0.00  0.00    +0.000 A 
ATOM     16  C   UNL     1       5.706   1.451  -1.918  0.00  0.00    +0.000 A 
ATOM     17  C   UNL     1       4.610   1.118  -1.118  0.00  0.00    +0.000 A 
ENDBRANCH  10  12
ENDBRANCH   3  10
TORSDOF 3
