REMARK  Name = *****
REMARK  4 active torsions:
REMARK  status: ('A' for Active; 'I' for Inactive)
REMARK    1  A    between atoms: C_1  and  O_2
REMARK    2  A    between atoms: O_2  and  C_3
REMARK    3  A    between atoms: C_6  and  C_9
REMARK    4  A    between atoms: C_10  and  C_11
REMARK                            x       y       z     vdW  Elec       q    Type
REMARK                         _______ _______ _______ _____ _____    ______ ____
ROOT
ATOM      1  C   UNL     1       3.207   0.994  -0.568  0.00  0.00    +0.000 A 
ATOM      2  C   UNL     1       2.404   1.975  -1.149  0.00  0.00    +0.000 A 
ATOM      3  C   UNL     1       2.981   2.999  -1.911  0.00  0.00    +0.000 A 
ATOM      4  C   UNL     1       4.368   3.063  -2.095  0.00  0.00    +0.000 A 
ATOM      5  C   UNL     1       5.165   2.066  -1.525  0.00  0.00    +0.000 A 
ATOM      6  C   UNL     1       4.588   1.045  -0.764  0.00  0.00    +0.000 A 
ENDROOT
BRANCH   1   8
ATOM      7  C   UNL     1       1.376  -0.136   0.440  0.00  0.00    +0.000 C 
ATOM      8  O   UNL     1       2.775  -0.054   0.195  0.00  0.00    +0.000 OA
ENDBRANCH   1   8
BRANCH   4   9
ATOM      9  C   UNL     1       5.004   4.104  -2.915  0.00  0.00    +0.000 C 
ATOM     10  C   UNL     1       4.605   5.386  -2.938  0.00  0.00    +0.000 C 
BRANCH  10  11
ATOM     11  C   UNL     1       5.252   6.431  -3.745  0.00  0.00    +0.000 A 
ATOM     12  C   UNL     1       5.721   6.190  -5.043  0.00  0.00    +0.000 A 
ATOM     13  C   UNL     1       6.301   7.218  -5.792  0.00  0.00    +0.000 A 
ATOM     14  C   UNL     1       6.408   8.499  -5.254  0.00  0.00    +0.000 A 
ATOM     15  C   UNL     1       5.930   8.754  -3.970  0.00  0.00    +0.000 A 
ATOM     16  C   UNL     1       5.350   7.727  -3.222  0.00  0.00    +0.000 A 
ENDBRANCH  10  11
ENDBRANCH   4   9
TORSDOF 3
