REMARK  Name = *****
REMARK  4 active torsions:
REMARK  status: ('A' for Active; 'I' for Inactive)
REMARK    1  A    between atoms: C_1  and  C_2
REMARK    2  A    between atoms: C_4  and  C_8
REMARK    3  A    between atoms: C_8  and  N_9
REMARK    4  A    between atoms: N_9  and  C_10
REMARK                            x       y       z     vdW  Elec       q    Type
REMARK                         _______ _______ _______ _____ _____    ______ ____
ROOT
ATOM      1  C   UNL     1       5.174   2.676  -0.630  0.00  0.00    +0.000 C 
ENDROOT
BRANCH   1   5
ATOM      2  C   UNL     1       1.113  -0.073   0.266  0.00  0.00    +0.000 C 
ATOM      3  C   UNL     1       2.575   0.049  -0.046  0.00  0.00    +0.000 A 
ATOM      4  C   UNL     1       3.184   1.305  -0.184  0.00  0.00    +0.000 A 
ATOM      5  C   UNL     1       4.546   1.399  -0.482  0.00  0.00    +0.000 A 
ATOM      6  C   UNL     1       5.307   0.239  -0.645  0.00  0.00    +0.000 A 
ATOM      7  C   UNL     1       4.708  -1.013  -0.512  0.00  0.00    +0.000 A 
ATOM      8  C   UNL     1       3.349  -1.107  -0.216  0.00  0.00    +0.000 A 
ENDBRANCH   1   5
BRANCH   1   9
ATOM      9  N   UNL     1       5.708   3.645  -0.764  0.00  0.00    +0.000 NA
BRANCH   9  10
ATOM     10  C   UNL     1       6.414   4.821  -0.950  0.00  0.00    +0.000 A 
ATOM     11  C   UNL     1       5.897   6.017  -0.463  0.00  0.00    +0.000 A 
ATOM     12  C   UNL     1       6.624   7.192  -0.653  0.00  0.00    +0.000 A 
ATOM     13  C   UNL     1       7.850   7.157  -1.323  0.00  0.00    +0.000 A 
ATOM     14  C   UNL     1       8.354   5.946  -1.806  0.00  0.00    +0.000 A 
ATOM     15  C   UNL     1       7.633   4.769  -1.619  0.00  0.00    +0.000 A 
ENDBRANCH   9  10
ENDBRANCH   1   9
TORSDOF 3
