REMARK  Name = *****
REMARK  4 active torsions:
REMARK  status: ('A' for Active; 'I' for Inactive)
REMARK    1  A    between atoms: C_4  and  C_7
REMARK    2  A    between atoms: C_7  and  C_8
REMARK    3  A    between atoms: C_8  and  C_9
REMARK    4  A    between atoms: C_8  and  C_11
REMARK                            x       y       z     vdW  Elec       q    Type
REMARK                         _______ _______ _______ _____ _____    ______ ____
ROOT
ATOM      1  C   UNL     1      -3.668  -0.928   0.114  0.00  0.00    +0.000 C 
ENDROOT
BRANCH   1   2
ATOM      2  C   UNL     1      -5.115  -0.714  -0.314  0.00  0.00    +0.000 A 
ATOM      3  C   UNL     1      -5.601  -1.346  -1.470  0.00  0.00    +0.000 A 
ATOM      4  C   UNL     1      -6.920  -1.155  -1.885  0.00  0.00    +0.000 A 
ATOM      5  C   UNL     1      -7.770  -0.328  -1.154  0.00  0.00    +0.000 A 
ATOM      6  C   UNL     1      -7.300   0.310  -0.009  0.00  0.00    +0.000 A 
ATOM      7  C   UNL     1      -5.981   0.121   0.408  0.00  0.00    +0.000 A 
ENDBRANCH   1   2
BRANCH   1   8
ATOM      8  C   UNL     1      -3.570  -1.464   1.549  0.00  0.00    +0.000 C 
ATOM      9  F   UNL     1      -3.843  -0.477   2.447  0.00  0.00    +0.000 F 
ENDBRANCH   1   8
BRANCH   1  10
ATOM     10  C   UNL     1      -2.851   0.364  -0.088  0.00  0.00    +0.000 C 
BRANCH  10  14
ATOM     11  C   UNL     1       1.398  -0.267   0.316  0.00  0.00    +0.000 A 
ATOM     12  C   UNL     1       0.751  -0.615  -0.869  0.00  0.00    +0.000 A 
ATOM     13  C   UNL     1      -0.622  -0.406  -1.003  0.00  0.00    +0.000 A 
ATOM     14  C   UNL     1      -1.361   0.155   0.049  0.00  0.00    +0.000 A 
ATOM     15  C   UNL     1      -0.700   0.501   1.235  0.00  0.00    +0.000 A 
ATOM     16  C   UNL     1       0.673   0.290   1.367  0.00  0.00    +0.000 A 
ENDBRANCH  10  14
ENDBRANCH   1  10
TORSDOF 4
