REMARK  Name = *****
REMARK  3 active torsions:
REMARK  status: ('A' for Active; 'I' for Inactive)
REMARK    1  A    between atoms: C_4  and  C_7
REMARK    2  A    between atoms: C_7  and  C_8
REMARK    3  A    between atoms: C_8  and  C_9
REMARK                            x       y       z     vdW  Elec       q    Type
REMARK                         _______ _______ _______ _____ _____    ______ ____
ROOT
ATOM      1  C   UNL     1      -3.797  -0.720  -0.211  0.00  0.00    +0.000 C 
ENDROOT
BRANCH   1   2
ATOM      2  C   UNL     1      -5.282  -0.513  -0.443  0.00  0.00    +0.000 C 
ATOM      3  C   UNL     1      -5.710   0.024  -1.802  0.00  0.00    +0.000 C 
ATOM      4  C   UNL     1      -6.906  -0.328  -2.325  0.00  0.00    +0.000 C 
ATOM      5  C   UNL     1      -7.740  -1.141  -1.446  0.00  0.00    +0.000 C 
ATOM      6  C   UNL     1      -6.759  -2.234  -0.903  0.00  0.00    +0.000 C 
ATOM      7  C   UNL     1      -6.281  -1.505   0.340  0.00  0.00    +0.000 C 
ATOM      8  S   UNL     1      -6.221   0.133   0.857  0.00  0.00    +0.000 S 
ATOM      9  S   UNL     1      -8.251  -2.742  -1.557  0.00  0.00    +0.000 S 
ENDBRANCH   1   2
BRANCH   1  10
ATOM     10  C   UNL     1      -2.992   0.584  -0.175  0.00  0.00    +0.000 C 
BRANCH  10  14
ATOM     11  C   UNL     1       1.184  -0.226   0.532  0.00  0.00    +0.000 A 
ATOM     12  C   UNL     1       0.690  -0.202  -0.771  0.00  0.00    +0.000 A 
ATOM     13  C   UNL     1      -0.660   0.067  -1.002  0.00  0.00    +0.000 A 
ATOM     14  C   UNL     1      -1.527   0.317   0.070  0.00  0.00    +0.000 A 
ATOM     15  C   UNL     1      -1.021   0.285   1.377  0.00  0.00    +0.000 A 
ATOM     16  C   UNL     1       0.329   0.017   1.605  0.00  0.00    +0.000 A 
ENDBRANCH  10  14
ENDBRANCH   1  10
TORSDOF 3
