REMARK  Name = *****
REMARK  1 active torsions:
REMARK  status: ('A' for Active; 'I' for Inactive)
REMARK    1  A    between atoms: C_4  and  N_7
REMARK                            x       y       z     vdW  Elec       q    Type
REMARK                         _______ _______ _______ _____ _____    ______ ____
ROOT
ATOM      1  N   UNL     1       2.120  -1.144  -0.919  0.00  0.00    +0.000 NA
ATOM      2  C   UNL     1       2.692  -2.401  -0.391  0.00  0.00    +0.000 C 
ATOM      3  C   UNL     1       3.376  -3.085  -1.544  0.00  0.00    +0.000 A 
ATOM      4  C   UNL     1       4.120  -4.258  -1.476  0.00  0.00    +0.000 A 
ATOM      5  C   UNL     1       4.668  -4.777  -2.651  0.00  0.00    +0.000 A 
ATOM      6  C   UNL     1       4.469  -4.127  -3.878  0.00  0.00    +0.000 A 
ATOM      7  C   UNL     1       3.719  -2.950  -3.942  0.00  0.00    +0.000 A 
ATOM      8  C   UNL     1       3.179  -2.443  -2.771  0.00  0.00    +0.000 A 
ATOM      9  S   UNL     1       2.200  -0.976  -2.584  0.00  0.00    +0.000 S 
ENDROOT
BRANCH   1  13
ATOM     10  C   UNL     1      -1.501   0.836   0.424  0.00  0.00    +0.000 C 
ATOM     11  C   UNL     1      -1.425  -0.684   0.521  0.00  0.00    +0.000 C 
ATOM     12  C   UNL     1      -0.329  -1.255  -0.379  0.00  0.00    +0.000 C 
ATOM     13  C   UNL     1       1.038  -0.609  -0.080  0.00  0.00    +0.000 C 
ATOM     14  C   UNL     1       0.948   0.926  -0.189  0.00  0.00    +0.000 C 
ATOM     15  C   UNL     1      -0.152   1.486   0.713  0.00  0.00    +0.000 C 
ENDBRANCH   1  13
TORSDOF 1
