REMARK  Name = *****
REMARK  3 active torsions:
REMARK  status: ('A' for Active; 'I' for Inactive)
REMARK    1  A    between atoms: C_4  and  C_7
REMARK    2  A    between atoms: C_7  and  C_9
REMARK    3  A    between atoms: C_9  and  C_10
REMARK                            x       y       z     vdW  Elec       q    Type
REMARK                         _______ _______ _______ _____ _____    ______ ____
ROOT
ATOM      1  C   UNL     1      -3.766  -0.438   0.016  0.00  0.00    +0.000 C 
ENDROOT
BRANCH   1   2
ATOM      2  C   UNL     1      -5.187  -0.026  -0.301  0.00  0.00    +0.000 A 
ATOM      3  C   UNL     1      -6.010  -0.739  -1.192  0.00  0.00    +0.000 A 
ATOM      4  C   UNL     1      -7.330  -0.334  -1.433  0.00  0.00    +0.000 A 
ATOM      5  C   UNL     1      -7.854   0.778  -0.776  0.00  0.00    +0.000 A 
ATOM      6  C   UNL     1      -7.059   1.472   0.123  0.00  0.00    +0.000 A 
ATOM      7  C   UNL     1      -5.746   1.080   0.370  0.00  0.00    +0.000 A 
ATOM      8  F   UNL     1      -7.564   2.532   0.767  0.00  0.00    +0.000 F 
ATOM      9 CL   UNL     1      -5.457  -2.145  -2.031  0.00  0.00    +0.000 Cl
ENDBRANCH   1   2
BRANCH   1  10
ATOM     10  C   UNL     1      -2.782   0.718   0.053  0.00  0.00    +0.000 C 
ATOM     11  O   UNL     1      -2.451   1.224   1.127  0.00  0.00    +0.000 OA
BRANCH  10  15
ATOM     12  C   UNL     1      -1.102   2.388  -3.537  0.00  0.00    +0.000 A 
ATOM     13  C   UNL     1      -0.752   2.889  -2.286  0.00  0.00    +0.000 A 
ATOM     14  C   UNL     1      -1.309   2.333  -1.133  0.00  0.00    +0.000 A 
ATOM     15  C   UNL     1      -2.219   1.269  -1.220  0.00  0.00    +0.000 A 
ATOM     16  C   UNL     1      -2.564   0.772  -2.483  0.00  0.00    +0.000 A 
ATOM     17  C   UNL     1      -2.005   1.332  -3.636  0.00  0.00    +0.000 A 
ENDBRANCH  10  15
ENDBRANCH   1  10
TORSDOF 3
