REMARK  Name = *****
REMARK  2 active torsions:
REMARK  status: ('A' for Active; 'I' for Inactive)
REMARK    1  A    between atoms: C_2  and  C_10
REMARK    2  A    between atoms: N_3  and  C_4
REMARK                            x       y       z     vdW  Elec       q    Type
REMARK                         _______ _______ _______ _____ _____    ______ ____
ROOT
ATOM      1  C   UNL     1      -0.241   0.548   0.227  0.00  0.00    +0.000 C 
ATOM      2  C   UNL     1       0.481  -0.789   0.293  0.00  0.00    +0.000 C 
ATOM      3  N   UNL     1      -0.913  -0.641   0.722  0.00  0.00    +0.000 N 
ENDROOT
BRANCH   3   4
ATOM      4  C   UNL     1      -1.944  -1.229  -0.049  0.00  0.00    +0.000 A 
ATOM      5  C   UNL     1      -1.905  -2.588  -0.389  0.00  0.00    +0.000 A 
ATOM      6  C   UNL     1      -2.942  -3.173  -1.119  0.00  0.00    +0.000 A 
ATOM      7  C   UNL     1      -4.043  -2.409  -1.501  0.00  0.00    +0.000 A 
ATOM      8  C   UNL     1      -4.111  -1.064  -1.145  0.00  0.00    +0.000 A 
ATOM      9  C   UNL     1      -3.072  -0.481  -0.416  0.00  0.00    +0.000 A 
ENDBRANCH   3   4
BRANCH   2  10
ATOM     10  C   UNL     1       1.528  -1.019   1.350  0.00  0.00    +0.000 A 
ATOM     11  C   UNL     1       1.327  -1.923   2.407  0.00  0.00    +0.000 A 
ATOM     12  C   UNL     1       2.309  -2.144   3.376  0.00  0.00    +0.000 A 
ATOM     13  C   UNL     1       3.521  -1.465   3.305  0.00  0.00    +0.000 A 
ATOM     14  C   UNL     1       3.750  -0.567   2.267  0.00  0.00    +0.000 A 
ATOM     15  C   UNL     1       2.763  -0.350   1.300  0.00  0.00    +0.000 A 
ENDBRANCH   2  10
TORSDOF 2
