REMARK  Name = *****
REMARK  5 active torsions:
REMARK  status: ('A' for Active; 'I' for Inactive)
REMARK    1  A    between atoms: C_1  and  C_2
REMARK    2  A    between atoms: C_3  and  C_16
REMARK    3  A    between atoms: C_6  and  C_8
REMARK    4  A    between atoms: C_8  and  C_9
REMARK    5  A    between atoms: C_9  and  C_10
REMARK                            x       y       z     vdW  Elec       q    Type
REMARK                         _______ _______ _______ _____ _____    ______ ____
ROOT
ATOM      1  C   UNL     1       0.973  -0.093   0.051  0.00  0.00    +0.000 C 
ATOM      2  C   UNL     1       2.470  -0.112  -0.079  0.00  0.00    +0.000 C 
ATOM      3  C   UNL     1       3.311   0.902   0.221  0.00  0.00    +0.000 C 
ATOM      4  C   UNL     1       4.805   0.797  -0.021  0.00  0.00    +0.000 C 
ATOM      5  O   UNL     1       5.195  -0.350  -0.780  0.00  0.00    +0.000 OA
ATOM      6  C   UNL     1       4.536  -1.560  -0.387  0.00  0.00    +0.000 C 
ATOM      7  C   UNL     1       3.030  -1.403  -0.635  0.00  0.00    +0.000 C 
ATOM      8  C   UNL     1       2.900   2.222   0.817  0.00  0.00    +0.000 C 
ENDROOT
BRANCH   6   9
ATOM      9  C   UNL     1       4.933  -1.977   1.041  0.00  0.00    +0.000 C 
BRANCH   9  10
ATOM     10  C   UNL     1       4.470  -3.390   1.401  0.00  0.00    +0.000 C 
BRANCH  10  11
ATOM     11  C   UNL     1       5.032  -3.840   2.727  0.00  0.00    +0.000 A 
ATOM     12  C   UNL     1       4.419  -3.457   3.927  0.00  0.00    +0.000 A 
ATOM     13  C   UNL     1       4.949  -3.862   5.153  0.00  0.00    +0.000 A 
ATOM     14  C   UNL     1       6.098  -4.650   5.191  0.00  0.00    +0.000 A 
ATOM     15  C   UNL     1       6.720  -5.031   4.003  0.00  0.00    +0.000 A 
ATOM     16  C   UNL     1       6.191  -4.627   2.776  0.00  0.00    +0.000 A 
ENDBRANCH  10  11
ENDBRANCH   9  10
ENDBRANCH   6   9
TORSDOF 3
