REMARK  Name = *****
REMARK  3 active torsions:
REMARK  status: ('A' for Active; 'I' for Inactive)
REMARK    1  A    between atoms: C_4  and  C_7
REMARK    2  A    between atoms: C_8  and  C_9
REMARK    3  A    between atoms: C_14  and  N_15
REMARK                            x       y       z     vdW  Elec       q    Type
REMARK                         _______ _______ _______ _____ _____    ______ ____
ROOT
ATOM      1  C   UNL     1      -1.585  -5.228  -0.058  0.00  0.00    +0.000 A 
ATOM      2  C   UNL     1      -0.660  -6.247   0.205  0.00  0.00    +0.000 A 
ATOM      3  C   UNL     1      -1.058  -7.584   0.176  0.00  0.00    +0.000 A 
ATOM      4  C   UNL     1      -2.382  -7.910  -0.107  0.00  0.00    +0.000 A 
ATOM      5  C   UNL     1      -3.308  -6.899  -0.369  0.00  0.00    +0.000 A 
ATOM      6  C   UNL     1      -2.923  -5.548  -0.368  0.00  0.00    +0.000 A 
ENDROOT
BRANCH   6   7
ATOM      7  N   UNL     1      -3.907  -4.566  -0.609  0.00  0.00    +0.000 NA
ATOM      8  C   UNL     1      -3.889  -4.191  -1.722  0.00  0.00    +0.000 C 
ATOM      9  O   UNL     1      -3.885  -3.818  -2.838  0.00  0.00    +0.000 OA
ENDBRANCH   6   7
BRANCH   1  11
ATOM     10  C   UNL     1      -0.776  -2.722   0.034  0.00  0.00    +0.000 C 
ATOM     11  C   UNL     1      -1.139  -3.866  -0.003  0.00  0.00    +0.000 C 
BRANCH  10  15
ATOM     12  C   UNL     1       0.487   1.367   0.457  0.00  0.00    +0.000 C 
ATOM     13  C   UNL     1       1.473   0.389  -0.172  0.00  0.00    +0.000 C 
ATOM     14  C   UNL     1       1.122  -1.056   0.190  0.00  0.00    +0.000 C 
ATOM     15  C   UNL     1      -0.351  -1.361   0.068  0.00  0.00    +0.000 C 
ATOM     16  C   UNL     1      -1.273  -0.386  -0.030  0.00  0.00    +0.000 C 
ATOM     17  C   UNL     1      -0.944   1.078   0.002  0.00  0.00    +0.000 C 
ENDBRANCH  10  15
ENDBRANCH   1  11
TORSDOF 3
