REMARK  Name = *****
REMARK  3 active torsions:
REMARK  status: ('A' for Active; 'I' for Inactive)
REMARK    1  A    between atoms: C_4  and  C_16
REMARK    2  A    between atoms: C_5  and  C_7
REMARK    3  A    between atoms: C_8  and  C_9
REMARK                            x       y       z     vdW  Elec       q    Type
REMARK                         _______ _______ _______ _____ _____    ______ ____
ROOT
ATOM      1  C   UNL     1       2.959   0.160  -0.238  0.00  0.00    +0.000 C 
ATOM      2  C   UNL     1       4.151   0.221  -0.374  0.00  0.00    +0.000 C 
ENDROOT
BRANCH   2   3
ATOM      3  C   UNL     1       5.563   0.324  -0.569  0.00  0.00    +0.000 A 
ATOM      4  C   UNL     1       6.163   1.585  -0.658  0.00  0.00    +0.000 A 
ATOM      5  C   UNL     1       7.539   1.688  -0.870  0.00  0.00    +0.000 A 
ATOM      6  C   UNL     1       8.303   0.532  -0.991  0.00  0.00    +0.000 A 
ATOM      7  C   UNL     1       7.717  -0.726  -0.900  0.00  0.00    +0.000 A 
ATOM      8  C   UNL     1       6.341  -0.832  -0.688  0.00  0.00    +0.000 A 
ATOM      9  F   UNL     1       9.622   0.631  -1.200  0.00  0.00    +0.000 F 
ENDBRANCH   2   3
BRANCH   1  14
ATOM     10  C   UNL     1      -0.489  -1.216   0.056  0.00  0.00    +0.000 A 
ATOM     11  C   UNL     1      -1.256  -0.054   0.100  0.00  0.00    +0.000 A 
ATOM     12  C   UNL     1      -0.635   1.195   0.044  0.00  0.00    +0.000 A 
ATOM     13  C   UNL     1       0.761   1.287  -0.060  0.00  0.00    +0.000 A 
ATOM     14  C   UNL     1       1.532   0.116  -0.108  0.00  0.00    +0.000 A 
ATOM     15  C   UNL     1       0.901  -1.133  -0.047  0.00  0.00    +0.000 A 
BRANCH  13  16
ATOM     16  C   UNL     1       1.368   2.587  -0.116  0.00  0.00    +0.000 C 
ATOM     17  N   UNL     1       1.844   3.645  -0.160  0.00  0.00    +0.000 NA
ENDBRANCH  13  16
ENDBRANCH   1  14
TORSDOF 3
