REMARK  Name = *****
REMARK  5 active torsions:
REMARK  status: ('A' for Active; 'I' for Inactive)
REMARK    1  A    between atoms: C_1  and  C_2
REMARK    2  A    between atoms: C_3  and  C_10
REMARK    3  A    between atoms: C_6  and  O_8
REMARK    4  A    between atoms: O_8  and  C_9
REMARK    5  A    between atoms: C_11  and  C_12
REMARK                            x       y       z     vdW  Elec       q    Type
REMARK                         _______ _______ _______ _____ _____    ______ ____
ROOT
ATOM      1  C   UNL     1       0.809  -0.109   0.014  0.00  0.00    +0.000 C 
ATOM      2  C   UNL     1       2.308  -0.046  -0.115  0.00  0.00    +0.000 A 
ATOM      3  C   UNL     1       3.011   1.167  -0.211  0.00  0.00    +0.000 A 
ATOM      4  C   UNL     1       4.407   1.156  -0.290  0.00  0.00    +0.000 A 
ATOM      5  C   UNL     1       5.107  -0.051  -0.265  0.00  0.00    +0.000 A 
ATOM      6  C   UNL     1       4.425  -1.263  -0.161  0.00  0.00    +0.000 A 
ATOM      7  C   UNL     1       3.031  -1.256  -0.078  0.00  0.00    +0.000 A 
ENDROOT
BRANCH   6   8
ATOM      8  O   UNL     1       5.228  -2.370  -0.146  0.00  0.00    +0.000 OA
ATOM      9  C   UNL     1       4.579  -3.635  -0.111  0.00  0.00    +0.000 C 
ENDBRANCH   6   8
BRANCH   3  10
ATOM     10  C   UNL     1       2.340   2.433  -0.244  0.00  0.00    +0.000 C 
ATOM     11  C   UNL     1       1.779   3.494  -0.293  0.00  0.00    +0.000 C 
BRANCH  11  12
ATOM     12  C   UNL     1       1.102   4.751  -0.373  0.00  0.00    +0.000 A 
ATOM     13  C   UNL     1      -0.233   4.801  -0.781  0.00  0.00    +0.000 A 
ATOM     14  C   UNL     1      -0.893   6.028  -0.867  0.00  0.00    +0.000 A 
ATOM     15  C   UNL     1      -0.219   7.206  -0.546  0.00  0.00    +0.000 A 
ATOM     16  C   UNL     1       1.114   7.159  -0.138  0.00  0.00    +0.000 A 
ATOM     17  C   UNL     1       1.775   5.932  -0.051  0.00  0.00    +0.000 A 
ENDBRANCH  11  12
ENDBRANCH   3  10
TORSDOF 3
