REMARK  Name = *****
REMARK  4 active torsions:
REMARK  status: ('A' for Active; 'I' for Inactive)
REMARK    1  A    between atoms: C_1  and  C_2
REMARK    2  A    between atoms: C_5  and  O_8
REMARK    3  A    between atoms: O_8  and  C_9
REMARK    4  A    between atoms: C_10  and  C_11
REMARK                            x       y       z     vdW  Elec       q    Type
REMARK                         _______ _______ _______ _____ _____    ______ ____
ROOT
ATOM      1  O   UNL     1      -3.137   0.111   0.417  0.00  0.00    +0.000 OA
ENDROOT
BRANCH   1   6
ATOM      2  C   UNL     1       2.477  -0.036  -0.366  0.00  0.00    +0.000 C 
ATOM      3  C   UNL     1       0.991   0.039  -0.177  0.00  0.00    +0.000 A 
ATOM      4  C   UNL     1       0.438   0.935   0.748  0.00  0.00    +0.000 A 
ATOM      5  C   UNL     1      -0.943   0.981   0.950  0.00  0.00    +0.000 A 
ATOM      6  C   UNL     1      -1.777   0.131   0.224  0.00  0.00    +0.000 A 
ATOM      7  C   UNL     1      -1.237  -0.790  -0.671  0.00  0.00    +0.000 A 
ATOM      8  C   UNL     1       0.144  -0.834  -0.873  0.00  0.00    +0.000 A 
ENDBRANCH   1   6
BRANCH   1   9
ATOM      9  C   UNL     1      -3.811   1.297   0.229  0.00  0.00    +0.000 C 
ATOM     10  C   UNL     1      -5.096   1.435   0.576  0.00  0.00    +0.000 C 
BRANCH  10  11
ATOM     11  C   UNL     1      -5.871   2.670   0.407  0.00  0.00    +0.000 A 
ATOM     12  C   UNL     1      -5.701   3.518  -0.696  0.00  0.00    +0.000 A 
ATOM     13  C   UNL     1      -6.480   4.671  -0.833  0.00  0.00    +0.000 A 
ATOM     14  C   UNL     1      -7.442   4.982   0.125  0.00  0.00    +0.000 A 
ATOM     15  C   UNL     1      -7.632   4.139   1.217  0.00  0.00    +0.000 A 
ATOM     16  C   UNL     1      -6.854   2.986   1.354  0.00  0.00    +0.000 A 
ENDBRANCH  10  11
ENDBRANCH   1   9
TORSDOF 3
