REMARK  Name = *****
REMARK  5 active torsions:
REMARK  status: ('A' for Active; 'I' for Inactive)
REMARK    1  A    between atoms: C_1  and  C_2
REMARK    2  A    between atoms: C_4  and  C_21
REMARK    3  A    between atoms: C_5  and  O_8
REMARK    4  A    between atoms: O_8  and  C_9
REMARK    5  A    between atoms: C_9  and  C_10
REMARK                            x       y       z     vdW  Elec       q    Type
REMARK                         _______ _______ _______ _____ _____    ______ ____
ROOT
ATOM      1  C   UNL     1      -3.835  -3.666  -0.051  0.00  0.00    +0.000 A 
ATOM      2  C   UNL     1      -4.503  -3.841  -1.266  0.00  0.00    +0.000 A 
ATOM      3  C   UNL     1      -5.846  -4.206  -1.301  0.00  0.00    +0.000 A 
ATOM      4  C   UNL     1      -6.544  -4.395  -0.117  0.00  0.00    +0.000 A 
ATOM      5  C   UNL     1      -5.901  -4.220   1.100  0.00  0.00    +0.000 A 
ATOM      6  C   UNL     1      -4.557  -3.855   1.130  0.00  0.00    +0.000 A 
ATOM      7  F   UNL     1      -3.948  -3.693   2.313  0.00  0.00    +0.000 F 
ATOM      8  F   UNL     1      -6.570  -4.406   2.246  0.00  0.00    +0.000 F 
ATOM      9  F   UNL     1      -7.836  -4.750  -0.148  0.00  0.00    +0.000 F 
ATOM     10  F   UNL     1      -6.463  -4.377  -2.478  0.00  0.00    +0.000 F 
ATOM     11  F   UNL     1      -3.841  -3.664  -2.418  0.00  0.00    +0.000 F 
ENDROOT
BRANCH   1  12
ATOM     12  C   UNL     1      -2.402  -3.224  -0.017  0.00  0.00    +0.000 C 
BRANCH  12  13
ATOM     13  O   UNL     1      -2.401  -1.801  -0.007  0.00  0.00    +0.000 OA
BRANCH  13  18
ATOM     14  C   UNL     1       2.479   1.117   0.029  0.00  0.00    +0.000 C 
ATOM     15  C   UNL     1       1.200   0.332   0.019  0.00  0.00    +0.000 A 
ATOM     16  C   UNL     1      -0.041   0.976   0.001  0.00  0.00    +0.000 A 
ATOM     17  C   UNL     1      -1.237   0.239  -0.006  0.00  0.00    +0.000 A 
ATOM     18  C   UNL     1      -1.187  -1.166   0.004  0.00  0.00    +0.000 A 
ATOM     19  C   UNL     1       0.054  -1.809   0.024  0.00  0.00    +0.000 A 
ATOM     20  C   UNL     1       1.237  -1.064   0.032  0.00  0.00    +0.000 A 
ATOM     21  C   UNL     1      -2.556   0.961  -0.027  0.00  0.00    +0.000 C 
ENDBRANCH  13  18
ENDBRANCH  12  13
ENDBRANCH   1  12
TORSDOF 3
