REMARK  Name = *****
REMARK  1 active torsions:
REMARK  status: ('A' for Active; 'I' for Inactive)
REMARK    1  A    between atoms: C_6  and  C_7
REMARK                            x       y       z     vdW  Elec       q    Type
REMARK                         _______ _______ _______ _____ _____    ______ ____
ROOT
ATOM      1  C   UNL     1      -3.647   0.602  -0.415  0.00  0.00    +0.000 A 
ATOM      2  N   UNL     1      -4.432   1.367  -1.154  0.00  0.00    +0.000 NA
ATOM      3  C   UNL     1      -5.673   1.204  -0.594  0.00  0.00    +0.000 A 
ATOM      4  C   UNL     1      -5.590   0.334   0.482  0.00  0.00    +0.000 A 
ATOM      5  O   UNL     1      -4.290  -0.057   0.603  0.00  0.00    +0.000 OA
ATOM      6  C   UNL     1      -6.664  -0.050   1.277  0.00  0.00    +0.000 A 
ATOM      7  C   UNL     1      -7.900   0.506   0.927  0.00  0.00    +0.000 A 
ATOM      8  C   UNL     1      -8.013   1.384  -0.154  0.00  0.00    +0.000 A 
ATOM      9  C   UNL     1      -6.914   1.752  -0.934  0.00  0.00    +0.000 A 
ATOM     10  F   UNL     1      -9.218   1.890  -0.451  0.00  0.00    +0.000 F 
ENDROOT
BRANCH   1  16
ATOM     11  C   UNL     1      -1.519  -0.509   0.309  0.00  0.00    +0.000 A 
ATOM     12  C   UNL     1      -0.142  -0.708   0.163  0.00  0.00    +0.000 A 
ATOM     13  C   UNL     1       0.549  -0.025  -0.829  0.00  0.00    +0.000 A 
ATOM     14  C   UNL     1      -0.108   0.853  -1.681  0.00  0.00    +0.000 A 
ATOM     15  C   UNL     1      -1.484   1.051  -1.537  0.00  0.00    +0.000 A 
ATOM     16  C   UNL     1      -2.208   0.374  -0.540  0.00  0.00    +0.000 A 
ATOM     17  F   UNL     1       1.867  -0.217  -0.967  0.00  0.00    +0.000 F 
ENDBRANCH   1  16
TORSDOF 1
