REMARK  Name = *****
REMARK  3 active torsions:
REMARK  status: ('A' for Active; 'I' for Inactive)
REMARK    1  A    between atoms: C_1  and  C_2
REMARK    2  A    between atoms: C_5  and  C_8
REMARK    3  A    between atoms: C_8  and  C_9
REMARK                            x       y       z     vdW  Elec       q    Type
REMARK                         _______ _______ _______ _____ _____    ______ ____
ROOT
ATOM      1  C   UNL     1      -3.339  -0.004  -0.004  0.00  0.00    +0.000 C 
ATOM      2  F   UNL     1      -3.832  -0.687   1.079  0.00  0.00    +0.000 F 
ATOM      3  F   UNL     1      -3.844   1.264   0.150  0.00  0.00    +0.000 F 
ENDROOT
BRANCH   1   4
ATOM      4  C   UNL     1      -3.871  -0.615  -1.279  0.00  0.00    +0.000 A 
ATOM      5  N   UNL     1      -4.160  -1.881  -1.553  0.00  0.00    +0.000 NA
ATOM      6  C   UNL     1      -4.588  -1.848  -2.856  0.00  0.00    +0.000 A 
ATOM      7  C   UNL     1      -5.033  -2.868  -3.706  0.00  0.00    +0.000 A 
ATOM      8  C   UNL     1      -5.412  -2.521  -5.012  0.00  0.00    +0.000 A 
ATOM      9  C   UNL     1      -5.349  -1.194  -5.457  0.00  0.00    +0.000 A 
ATOM     10  C   UNL     1      -4.906  -0.164  -4.618  0.00  0.00    +0.000 A 
ATOM     11  C   UNL     1      -4.541  -0.549  -3.334  0.00  0.00    +0.000 A 
ATOM     12  O   UNL     1      -4.080   0.251  -2.332  0.00  0.00    +0.000 OA
ENDBRANCH   1   4
BRANCH   1  17
ATOM     13  C   UNL     1       2.503  -0.000  -0.028  0.00  0.00    +0.000 C 
ATOM     14  C   UNL     1       1.003   0.012  -0.020  0.00  0.00    +0.000 A 
ATOM     15  C   UNL     1       0.290   1.119  -0.491  0.00  0.00    +0.000 A 
ATOM     16  C   UNL     1      -1.107   1.118  -0.481  0.00  0.00    +0.000 A 
ATOM     17  C   UNL     1      -1.817   0.008   0.002  0.00  0.00    +0.000 A 
ATOM     18  C   UNL     1      -1.098  -1.103   0.469  0.00  0.00    +0.000 A 
ATOM     19  C   UNL     1       0.299  -1.099   0.459  0.00  0.00    +0.000 A 
ENDBRANCH   1  17
TORSDOF 2
