REMARK  Name = *****
REMARK  6 active torsions:
REMARK  status: ('A' for Active; 'I' for Inactive)
REMARK    1  A    between atoms: C_1  and  C_2
REMARK    2  A    between atoms: C_2  and  C_3
REMARK    3  A    between atoms: C_2  and  O_9
REMARK    4  A    between atoms: O_9  and  C_10
REMARK    5  A    between atoms: C_10  and  C_11
REMARK    6  A    between atoms: C_10  and  C_12
REMARK                            x       y       z     vdW  Elec       q    Type
REMARK                         _______ _______ _______ _____ _____    ______ ____
ROOT
ATOM      1  O   UNL     1       3.001  -1.057  -0.710  0.00  0.00    +0.000 OA
ENDROOT
BRANCH   1   3
ATOM      2  C   UNL     1       2.499   1.206  -1.397  0.00  0.00    +0.000 C 
ATOM      3  C   UNL     1       2.461   0.188  -0.259  0.00  0.00    +0.000 C 
BRANCH   3   4
ATOM      4  C   UNL     1       1.036  -0.046   0.205  0.00  0.00    +0.000 A 
ATOM      5  C   UNL     1       0.156  -0.858  -0.529  0.00  0.00    +0.000 A 
ATOM      6  C   UNL     1      -1.160  -1.050  -0.105  0.00  0.00    +0.000 A 
ATOM      7  C   UNL     1      -1.615  -0.430   1.056  0.00  0.00    +0.000 A 
ATOM      8  C   UNL     1      -0.756   0.382   1.793  0.00  0.00    +0.000 A 
ATOM      9  C   UNL     1       0.561   0.576   1.370  0.00  0.00    +0.000 A 
ENDBRANCH   3   4
ENDBRANCH   1   3
BRANCH   1  10
ATOM     10  C   UNL     1       4.417  -1.178  -0.547  0.00  0.00    +0.000 C 
ATOM     11  C   UNL     1       4.727  -1.750   0.835  0.00  0.00    +0.000 C 
BRANCH  10  12
ATOM     12  C   UNL     1       4.952  -2.087  -1.637  0.00  0.00    +0.000 A 
ATOM     13  C   UNL     1       6.152  -1.774  -2.293  0.00  0.00    +0.000 A 
ATOM     14  C   UNL     1       6.662  -2.617  -3.283  0.00  0.00    +0.000 A 
ATOM     15  C   UNL     1       5.982  -3.783  -3.627  0.00  0.00    +0.000 A 
ATOM     16  C   UNL     1       4.791  -4.109  -2.982  0.00  0.00    +0.000 A 
ATOM     17  C   UNL     1       4.280  -3.268  -1.992  0.00  0.00    +0.000 A 
ENDBRANCH  10  12
ENDBRANCH   1  10
TORSDOF 4
