REMARK  Name = *****
REMARK  3 active torsions:
REMARK  status: ('A' for Active; 'I' for Inactive)
REMARK    1  A    between atoms: C_4  and  C_7
REMARK    2  A    between atoms: C_8  and  C_9
REMARK    3  A    between atoms: C_9  and  C_10
REMARK                            x       y       z     vdW  Elec       q    Type
REMARK                         _______ _______ _______ _____ _____    ______ ____
ROOT
ATOM      1  C   UNL     1      -2.554   0.370  -0.487  0.00  0.00    +0.000 C 
ATOM      2  C   UNL     1      -3.463  -0.548  -0.116  0.00  0.00    +0.000 C 
ENDROOT
BRANCH   1   6
ATOM      3  C   UNL     1       1.612  -0.433  -0.860  0.00  0.00    +0.000 A 
ATOM      4  C   UNL     1       0.820  -0.300  -2.000  0.00  0.00    +0.000 A 
ATOM      5  C   UNL     1      -0.544  -0.032  -1.877  0.00  0.00    +0.000 A 
ATOM      6  C   UNL     1      -1.122   0.104  -0.612  0.00  0.00    +0.000 A 
ATOM      7  C   UNL     1      -0.322  -0.028   0.530  0.00  0.00    +0.000 A 
ATOM      8  C   UNL     1       1.041  -0.296   0.405  0.00  0.00    +0.000 A 
ENDBRANCH   1   6
BRANCH   2   9
ATOM      9  C   UNL     1      -3.198  -1.997   0.188  0.00  0.00    +0.000 C 
ATOM     10 BR   UNL     1      -4.566  -3.064  -0.732  0.00  0.00    +0.000 Br
BRANCH   9  11
ATOM     11  C   UNL     1      -3.211  -2.339   1.661  0.00  0.00    +0.000 A 
ATOM     12  C   UNL     1      -4.297  -2.024   2.496  0.00  0.00    +0.000 A 
ATOM     13  C   UNL     1      -4.271  -2.344   3.855  0.00  0.00    +0.000 A 
ATOM     14  C   UNL     1      -3.159  -2.982   4.401  0.00  0.00    +0.000 A 
ATOM     15  C   UNL     1      -2.073  -3.301   3.590  0.00  0.00    +0.000 A 
ATOM     16  C   UNL     1      -2.099  -2.982   2.231  0.00  0.00    +0.000 A 
ENDBRANCH   9  11
ENDBRANCH   2   9
TORSDOF 3
