REMARK  Name = *****
REMARK  0 active torsions:
REMARK  status: ('A' for Active; 'I' for Inactive)
REMARK                            x       y       z     vdW  Elec       q    Type
REMARK                         _______ _______ _______ _____ _____    ______ ____
ROOT
ATOM      1  C   UNL     1       0.930   1.677  -0.006  0.00  0.00    +0.000 C 
ATOM      2  C   UNL     1       0.598   2.715  -1.112  0.00  0.00    +0.000 C 
ATOM      3  C   UNL     1       0.574   4.187  -0.687  0.00  0.00    +0.000 A 
ATOM      4  C   UNL     1      -0.607   4.930  -0.836  0.00  0.00    +0.000 A 
ATOM      5  C   UNL     1      -0.643   6.286  -0.498  0.00  0.00    +0.000 A 
ATOM      6  C   UNL     1       0.500   6.922  -0.012  0.00  0.00    +0.000 A 
ATOM      7  C   UNL     1       1.686   6.207   0.141  0.00  0.00    +0.000 A 
ATOM      8  C   UNL     1       1.723   4.854  -0.198  0.00  0.00    +0.000 A 
ATOM      9  C   UNL     1       2.908   4.088  -0.021  0.00  0.00    +0.000 C 
ATOM     10  C   UNL     1       3.486   3.041   0.025  0.00  0.00    +0.000 C 
ATOM     11  C   UNL     1       3.512   1.622  -0.071  0.00  0.00    +0.000 A 
ATOM     12  C   UNL     1       4.719   0.929  -0.148  0.00  0.00    +0.000 A 
ATOM     13  C   UNL     1       4.709  -0.458  -0.282  0.00  0.00    +0.000 A 
ATOM     14  C   UNL     1       3.496  -1.146  -0.340  0.00  0.00    +0.000 A 
ATOM     15  C   UNL     1       2.285  -0.451  -0.264  0.00  0.00    +0.000 A 
ATOM     16  C   UNL     1       2.270   0.945  -0.134  0.00  0.00    +0.000 A 
ENDROOT
TORSDOF 0
