REMARK  Name = *****
REMARK  5 active torsions:
REMARK  status: ('A' for Active; 'I' for Inactive)
REMARK    1  A    between atoms: C_1  and  C_2
REMARK    2  A    between atoms: C_4  and  C_16
REMARK    3  A    between atoms: C_6  and  O_8
REMARK    4  A    between atoms: O_8  and  C_9
REMARK    5  A    between atoms: C_9  and  C_11
REMARK                            x       y       z     vdW  Elec       q    Type
REMARK                         _______ _______ _______ _____ _____    ______ ____
ROOT
ATOM      1  C   UNL     1       2.511   1.146   0.312  0.00  0.00    +0.000 C 
ATOM      2  C   UNL     1       1.266   0.332   0.115  0.00  0.00    +0.000 A 
ATOM      3  C   UNL     1       0.013   0.958   0.029  0.00  0.00    +0.000 A 
ATOM      4  C   UNL     1      -1.163   0.207  -0.127  0.00  0.00    +0.000 A 
ATOM      5  C   UNL     1      -1.079  -1.188  -0.168  0.00  0.00    +0.000 A 
ATOM      6  C   UNL     1       0.167  -1.807  -0.087  0.00  0.00    +0.000 A 
ATOM      7  C   UNL     1       1.335  -1.065   0.076  0.00  0.00    +0.000 A 
ATOM      8  C   UNL     1      -2.497   0.890  -0.182  0.00  0.00    +0.000 C 
ENDROOT
BRANCH   6   9
ATOM      9  O   UNL     1       0.192  -3.208  -0.069  0.00  0.00    +0.000 OA
BRANCH   9  10
ATOM     10  C   UNL     1       0.899  -3.828  -1.101  0.00  0.00    +0.000 C 
ATOM     11  O   UNL     1       1.469  -3.244  -2.016  0.00  0.00    +0.000 OA
BRANCH  10  12
ATOM     12  C   UNL     1       0.842  -5.269  -0.909  0.00  0.00    +0.000 A 
ATOM     13  C   UNL     1       0.216  -6.005   0.083  0.00  0.00    +0.000 A 
ATOM     14  C   UNL     1       0.396  -7.410  -0.080  0.00  0.00    +0.000 A 
ATOM     15  C   UNL     1       1.154  -7.706  -1.190  0.00  0.00    +0.000 A 
ATOM     16  S   UNL     1       1.642  -6.297  -2.026  0.00  0.00    +0.000 S 
ENDBRANCH  10  12
ENDBRANCH   9  10
ENDBRANCH   6   9
TORSDOF 3
