REMARK  Name = *****
REMARK  4 active torsions:
REMARK  status: ('A' for Active; 'I' for Inactive)
REMARK    1  A    between atoms: C_4  and  C_7
REMARK    2  A    between atoms: C_7  and  O_8
REMARK    3  A    between atoms: O_8  and  N_9
REMARK    4  A    between atoms: C_10  and  C_11
REMARK                            x       y       z     vdW  Elec       q    Type
REMARK                         _______ _______ _______ _____ _____    ______ ____
ROOT
ATOM      1  N   UNL     1      -4.924  -0.759   0.063  0.00  0.00    +0.000 NA
ATOM      2  C   UNL     1      -5.340  -1.988   0.173  0.00  0.00    +0.000 C 
ENDROOT
BRANCH   2   3
ATOM      3  C   UNL     1      -4.698  -3.227  -0.316  0.00  0.00    +0.000 A 
ATOM      4  C   UNL     1      -3.322  -3.420  -0.134  0.00  0.00    +0.000 A 
ATOM      5  C   UNL     1      -2.717  -4.607  -0.551  0.00  0.00    +0.000 A 
ATOM      6  C   UNL     1      -3.483  -5.611  -1.140  0.00  0.00    +0.000 A 
ATOM      7  C   UNL     1      -4.857  -5.432  -1.308  0.00  0.00    +0.000 A 
ATOM      8  C   UNL     1      -5.469  -4.244  -0.892  0.00  0.00    +0.000 A 
ATOM      9 CL   UNL     1      -7.172  -4.092  -1.143  0.00  0.00    +0.000 Cl
ENDBRANCH   2   3
BRANCH   1  10
ATOM     10  O   UNL     1      -3.753  -0.663  -0.702  0.00  0.00    +0.000 OA
BRANCH  10  11
ATOM     11  C   UNL     1      -3.389   0.712  -0.822  0.00  0.00    +0.000 C 
BRANCH  11  15
ATOM     12  C   UNL     1       0.273   0.926  -3.087  0.00  0.00    +0.000 A 
ATOM     13  C   UNL     1      -0.935   0.676  -3.734  0.00  0.00    +0.000 A 
ATOM     14  C   UNL     1      -2.120   0.610  -3.000  0.00  0.00    +0.000 A 
ATOM     15  C   UNL     1      -2.108   0.799  -1.610  0.00  0.00    +0.000 A 
ATOM     16  C   UNL     1      -0.885   1.039  -0.968  0.00  0.00    +0.000 A 
ATOM     17  C   UNL     1       0.299   1.105  -1.704  0.00  0.00    +0.000 A 
ENDBRANCH  11  15
ENDBRANCH  10  11
ENDBRANCH   1  10
TORSDOF 4
