REMARK  Name = *****
REMARK  5 active torsions:
REMARK  status: ('A' for Active; 'I' for Inactive)
REMARK    1  A    between atoms: C_1  and  C_2
REMARK    2  A    between atoms: C_5  and  S_8
REMARK    3  A    between atoms: S_8  and  O_10
REMARK    4  A    between atoms: O_10  and  C_11
REMARK    5  A    between atoms: C_11  and  C_12
REMARK                            x       y       z     vdW  Elec       q    Type
REMARK                         _______ _______ _______ _____ _____    ______ ____
ROOT
ATOM      1  S   UNL     1      -3.129   0.093  -0.838  0.00  0.00    +0.000 S 
ATOM      2  O   UNL     1      -4.023  -0.314   0.296  0.00  0.00    +0.000 OA
ENDROOT
BRANCH   1   7
ATOM      3  C   UNL     1       2.586   0.168   1.365  0.00  0.00    +0.000 C 
ATOM      4  C   UNL     1       1.189   0.126   0.819  0.00  0.00    +0.000 A 
ATOM      5  C   UNL     1       0.907   0.659  -0.445  0.00  0.00    +0.000 A 
ATOM      6  C   UNL     1      -0.399   0.652  -0.940  0.00  0.00    +0.000 A 
ATOM      7  C   UNL     1      -1.445   0.125  -0.172  0.00  0.00    +0.000 A 
ATOM      8  C   UNL     1      -1.166  -0.398   1.094  0.00  0.00    +0.000 A 
ATOM      9  C   UNL     1       0.141  -0.390   1.589  0.00  0.00    +0.000 A 
ENDBRANCH   1   7
BRANCH   1  10
ATOM     10  O   UNL     1      -3.201   1.697  -0.976  0.00  0.00    +0.000 OA
BRANCH  10  11
ATOM     11  C   UNL     1      -4.506   2.250  -0.857  0.00  0.00    +0.000 C 
BRANCH  11  12
ATOM     12  C   UNL     1      -4.422   3.723  -1.179  0.00  0.00    +0.000 A 
ATOM     13  C   UNL     1      -4.563   4.685  -0.166  0.00  0.00    +0.000 A 
ATOM     14  C   UNL     1      -4.475   6.045  -0.468  0.00  0.00    +0.000 A 
ATOM     15  C   UNL     1      -4.242   6.443  -1.779  0.00  0.00    +0.000 A 
ATOM     16  C   UNL     1      -4.092   5.507  -2.795  0.00  0.00    +0.000 A 
ATOM     17  C   UNL     1      -4.181   4.146  -2.496  0.00  0.00    +0.000 A 
ATOM     18  F   UNL     1      -4.157   7.748  -2.067  0.00  0.00    +0.000 F 
ENDBRANCH  11  12
ENDBRANCH  10  11
ENDBRANCH   1  10
TORSDOF 4
