REMARK  Name = *****
REMARK  7 active torsions:
REMARK  status: ('A' for Active; 'I' for Inactive)
REMARK    1  A    between atoms: C_1  and  C_2
REMARK    2  A    between atoms: C_4  and  C_19
REMARK    3  A    between atoms: C_5  and  C_9
REMARK    4  A    between atoms: C_6  and  C_8
REMARK    5  A    between atoms: C_9  and  O_17
REMARK    6  A    between atoms: C_10  and  C_11
REMARK    7  A    between atoms: O_17  and  C_18
REMARK                            x       y       z     vdW  Elec       q    Type
REMARK                         _______ _______ _______ _____ _____    ______ ____
ROOT
ATOM      1  C   UNL     1      -2.153  -1.968  -0.128  0.00  0.00    +0.000 C 
ATOM      2  C   UNL     1      -2.862  -2.213   0.990  0.00  0.00    +0.000 C 
ENDROOT
BRANCH   1   7
ATOM      3  C   UNL     1       2.198   1.872   0.145  0.00  0.00    +0.000 C 
ATOM      4  C   UNL     1       1.074   0.883   0.042  0.00  0.00    +0.000 A 
ATOM      5  C   UNL     1       1.336  -0.489   0.044  0.00  0.00    +0.000 A 
ATOM      6  C   UNL     1       0.292  -1.428  -0.008  0.00  0.00    +0.000 A 
ATOM      7  C   UNL     1      -1.048  -0.980  -0.074  0.00  0.00    +0.000 A 
ATOM      8  C   UNL     1      -1.320   0.409  -0.061  0.00  0.00    +0.000 A 
ATOM      9  C   UNL     1      -0.253   1.321   0.011  0.00  0.00    +0.000 A 
ATOM     10  C   UNL     1      -2.726   0.953  -0.072  0.00  0.00    +0.000 C 
ATOM     11  C   UNL     1       0.637  -2.896   0.001  0.00  0.00    +0.000 C 
ENDBRANCH   1   7
BRANCH   2  12
ATOM     12  C   UNL     1      -3.945  -3.197   1.134  0.00  0.00    +0.000 A 
ATOM     13  C   UNL     1      -4.009  -3.968   2.302  0.00  0.00    +0.000 A 
ATOM     14  C   UNL     1      -5.047  -4.883   2.495  0.00  0.00    +0.000 A 
ATOM     15  C   UNL     1      -6.038  -5.028   1.526  0.00  0.00    +0.000 A 
ATOM     16  C   UNL     1      -5.994  -4.255   0.368  0.00  0.00    +0.000 A 
ATOM     17  C   UNL     1      -4.956  -3.340   0.175  0.00  0.00    +0.000 A 
ENDBRANCH   2  12
BRANCH   1  18
ATOM     18  O   UNL     1      -2.333  -2.708  -1.282  0.00  0.00    +0.000 OA
ATOM     19  C   UNL     1      -2.117  -2.013  -2.506  0.00  0.00    +0.000 C 
ENDBRANCH   1  18
TORSDOF 3
