REMARK  Name = *****
REMARK  6 active torsions:
REMARK  status: ('A' for Active; 'I' for Inactive)
REMARK    1  A    between atoms: C_1  and  S_2
REMARK    2  A    between atoms: S_2  and  C_3
REMARK    3  A    between atoms: C_3  and  O_12
REMARK    4  A    between atoms: N_4  and  C_5
REMARK    5  A    between atoms: C_5  and  C_6
REMARK    6  A    between atoms: O_12  and  C_13
REMARK                            x       y       z     vdW  Elec       q    Type
REMARK                         _______ _______ _______ _____ _____    ______ ____
ROOT
ATOM      1  C   UNL     1       3.333   1.021   1.402  0.00  0.00    +0.000 C 
ATOM      2  N   UNL     1       2.557   1.737   2.125  0.00  0.00    +0.000 NA
ENDROOT
BRANCH   1   4
ATOM      3  C   UNL     1       2.528   1.020  -1.168  0.00  0.00    +0.000 C 
ATOM      4  S   UNL     1       2.796  -0.135   0.195  0.00  0.00    +0.000 S 
ENDBRANCH   1   4
BRANCH   2   5
ATOM      5  C   UNL     1       1.103   1.660   2.097  0.00  0.00    +0.000 C 
BRANCH   5   6
ATOM      6  C   UNL     1       0.465   2.866   1.445  0.00  0.00    +0.000 A 
ATOM      7  C   UNL     1      -0.655   2.718   0.614  0.00  0.00    +0.000 A 
ATOM      8  C   UNL     1      -1.264   3.835   0.038  0.00  0.00    +0.000 A 
ATOM      9  C   UNL     1      -0.769   5.112   0.297  0.00  0.00    +0.000 A 
ATOM     10  C   UNL     1       0.334   5.274   1.132  0.00  0.00    +0.000 A 
ATOM     11  C   UNL     1       0.945   4.158   1.706  0.00  0.00    +0.000 A 
ENDBRANCH   5   6
ENDBRANCH   2   5
BRANCH   1  12
ATOM     12  O   UNL     1       4.661   1.227   1.625  0.00  0.00    +0.000 OA
BRANCH  12  13
ATOM     13  C   UNL     1       5.684   0.256   1.289  0.00  0.00    +0.000 C 
ATOM     14  C   UNL     1       6.736   0.305   2.402  0.00  0.00    +0.000 C 
ATOM     15  C   UNL     1       7.453   1.657   2.458  0.00  0.00    +0.000 C 
ATOM     16  C   UNL     1       7.852   2.162   1.104  0.00  0.00    +0.000 C 
ATOM     17  C   UNL     1       7.353   1.666  -0.037  0.00  0.00    +0.000 C 
ATOM     18  C   UNL     1       6.317   0.576  -0.078  0.00  0.00    +0.000 C 
ENDBRANCH  12  13
ENDBRANCH   1  12
TORSDOF 5
