REMARK  Name = *****
REMARK  3 active torsions:
REMARK  status: ('A' for Active; 'I' for Inactive)
REMARK    1  A    between atoms: S_4  and  C_6
REMARK    2  A    between atoms: C_6  and  C_7
REMARK    3  A    between atoms: C_8  and  C_9
REMARK                            x       y       z     vdW  Elec       q    Type
REMARK                         _______ _______ _______ _____ _____    ______ ____
ROOT
ATOM      1  C   UNL     1       0.135   2.722   2.041  0.00  0.00    +0.000 C 
ATOM      2  C   UNL     1      -0.815   3.057   2.929  0.00  0.00    +0.000 C 
ENDROOT
BRANCH   2   3
ATOM      3  C   UNL     1      -0.700   2.872   4.383  0.00  0.00    +0.000 A 
ATOM      4  C   UNL     1       0.517   3.000   5.066  0.00  0.00    +0.000 A 
ATOM      5  C   UNL     1       0.575   2.846   6.454  0.00  0.00    +0.000 A 
ATOM      6  C   UNL     1      -0.585   2.573   7.176  0.00  0.00    +0.000 A 
ATOM      7  C   UNL     1      -1.804   2.459   6.512  0.00  0.00    +0.000 A 
ATOM      8  C   UNL     1      -1.862   2.613   5.124  0.00  0.00    +0.000 A 
ENDBRANCH   2   3
BRANCH   1   9
ATOM      9  C   UNL     1      -0.012   2.916   0.567  0.00  0.00    +0.000 C 
BRANCH   9  13
ATOM     10  C   UNL     1      -1.250   0.459  -2.236  0.00  0.00    +0.000 C 
ATOM     11  C   UNL     1      -2.149   0.372  -0.999  0.00  0.00    +0.000 C 
ATOM     12  C   UNL     1      -1.220   0.297   0.211  0.00  0.00    +0.000 C 
ATOM     13  S   UNL     1       0.145   1.341  -0.216  0.00  0.00    +0.000 S 
ATOM     14  C   UNL     1      -0.206   1.532  -1.940  0.00  0.00    +0.000 C 
ATOM     15 CL   UNL     1       1.934   0.440   0.081  0.00  0.00    +0.000 Cl
ENDBRANCH   9  13
ENDBRANCH   1   9
TORSDOF 3
