REMARK  Name = *****
REMARK  3 active torsions:
REMARK  status: ('A' for Active; 'I' for Inactive)
REMARK    1  A    between atoms: C_1  and  C_2
REMARK    2  A    between atoms: C_7  and  C_8
REMARK    3  A    between atoms: C_10  and  C_11
REMARK                            x       y       z     vdW  Elec       q    Type
REMARK                         _______ _______ _______ _____ _____    ______ ____
ROOT
ATOM      1  C   UNL     1       0.761  -2.310   0.372  0.00  0.00    +0.000 C 
ATOM      2  C   UNL     1       1.647  -1.858  -0.761  0.00  0.00    +0.000 C 
ATOM      3  C   UNL     1       2.277  -2.298   0.533  0.00  0.00    +0.000 C 
ENDROOT
BRANCH   1  10
ATOM      4  C   UNL     1      -1.408  -2.780  -1.657  0.00  0.00    +0.000 C 
ATOM      5  C   UNL     1      -1.018  -3.846  -0.668  0.00  0.00    +0.000 A 
ATOM      6  C   UNL     1      -1.677  -5.087  -0.720  0.00  0.00    +0.000 A 
ATOM      7  C   UNL     1      -1.354  -6.105   0.174  0.00  0.00    +0.000 A 
ATOM      8  C   UNL     1      -0.368  -5.894   1.129  0.00  0.00    +0.000 A 
ATOM      9  C   UNL     1       0.301  -4.670   1.178  0.00  0.00    +0.000 A 
ATOM     10  C   UNL     1       0.012  -3.626   0.277  0.00  0.00    +0.000 A 
ENDBRANCH   1  10
BRANCH   3  11
ATOM     11  C   UNL     1       2.922  -1.286   1.451  0.00  0.00    +0.000 A 
ATOM     12  C   UNL     1       3.938  -0.429   0.993  0.00  0.00    +0.000 A 
ATOM     13  C   UNL     1       4.548   0.498   1.844  0.00  0.00    +0.000 A 
ATOM     14  C   UNL     1       4.153   0.576   3.176  0.00  0.00    +0.000 A 
ATOM     15  C   UNL     1       3.158  -0.266   3.661  0.00  0.00    +0.000 A 
ATOM     16  C   UNL     1       2.553  -1.190   2.803  0.00  0.00    +0.000 A 
ATOM     17 CL   UNL     1       4.901   1.714   4.227  0.00  0.00    +0.000 Cl
ENDBRANCH   3  11
TORSDOF 2
