REMARK  Name = *****
REMARK  6 active torsions:
REMARK  status: ('A' for Active; 'I' for Inactive)
REMARK    1  A    between atoms: C_1  and  C_2
REMARK    2  A    between atoms: C_3  and  C_19
REMARK    3  A    between atoms: C_4  and  C_8
REMARK    4  A    between atoms: C_8  and  C_9
REMARK    5  A    between atoms: C_9  and  C_10
REMARK    6  A    between atoms: C_10  and  C_12
REMARK                            x       y       z     vdW  Elec       q    Type
REMARK                         _______ _______ _______ _____ _____    ______ ____
ROOT
ATOM      1  C   UNL     1      -2.032  -3.479  -0.033  0.00  0.00    +0.000 C 
ENDROOT
BRANCH   1   2
ATOM      2  C   UNL     1      -2.044  -4.996  -0.027  0.00  0.00    +0.000 C 
ATOM      3  O   UNL     1      -1.010  -5.661  -0.035  0.00  0.00    +0.000 OA
BRANCH   2   4
ATOM      4  C   UNL     1      -3.363  -5.703  -0.013  0.00  0.00    +0.000 A 
ATOM      5  C   UNL     1      -4.583  -5.015  -0.047  0.00  0.00    +0.000 A 
ATOM      6  C   UNL     1      -5.790  -5.724  -0.030  0.00  0.00    +0.000 A 
ATOM      7  C   UNL     1      -5.781  -7.117   0.020  0.00  0.00    +0.000 A 
ATOM      8  C   UNL     1      -4.574  -7.811   0.053  0.00  0.00    +0.000 A 
ATOM      9  C   UNL     1      -3.368  -7.105   0.036  0.00  0.00    +0.000 A 
ATOM     10 CL   UNL     1      -7.267  -7.982   0.042  0.00  0.00    +0.000 Cl
ENDBRANCH   2   4
ENDBRANCH   1   2
BRANCH   1  11
ATOM     11  C   UNL     1      -0.608  -2.923   0.017  0.00  0.00    +0.000 C 
BRANCH  11  15
ATOM     12  C   UNL     1      -0.556   1.596   2.445  0.00  0.00    +0.000 C 
ATOM     13  C   UNL     1      -0.592   0.747   1.202  0.00  0.00    +0.000 A 
ATOM     14  C   UNL     1      -0.619  -0.668   1.260  0.00  0.00    +0.000 A 
ATOM     15  C   UNL     1      -0.609  -1.408   0.052  0.00  0.00    +0.000 A 
ATOM     16  C   UNL     1      -0.626  -0.728  -1.178  0.00  0.00    +0.000 A 
ATOM     17  C   UNL     1      -0.633   0.661  -1.226  0.00  0.00    +0.000 A 
ATOM     18  C   UNL     1      -0.613   1.393  -0.044  0.00  0.00    +0.000 A 
ATOM     19  C   UNL     1      -0.581  -1.376   2.593  0.00  0.00    +0.000 C 
ENDBRANCH  11  15
ENDBRANCH   1  11
TORSDOF 4
