REMARK  Name = *****
REMARK  2 active torsions:
REMARK  status: ('A' for Active; 'I' for Inactive)
REMARK    1  A    between atoms: C_4  and  C_7
REMARK    2  A    between atoms: C_8  and  C_9
REMARK                            x       y       z     vdW  Elec       q    Type
REMARK                         _______ _______ _______ _____ _____    ______ ____
ROOT
ATOM      1  C   UNL     1      -2.819   0.386  -0.208  0.00  0.00    +0.000 C 
ATOM      2  C   UNL     1      -3.709  -0.586  -0.468  0.00  0.00    +0.000 C 
ENDROOT
BRANCH   2   3
ATOM      3  C   UNL     1      -5.158  -0.345  -0.592  0.00  0.00    +0.000 A 
ATOM      4  C   UNL     1      -5.620   0.718  -1.388  0.00  0.00    +0.000 A 
ATOM      5  C   UNL     1      -6.987   0.955  -1.550  0.00  0.00    +0.000 A 
ATOM      6  C   UNL     1      -7.917   0.127  -0.928  0.00  0.00    +0.000 A 
ATOM      7  C   UNL     1      -7.480  -0.942  -0.146  0.00  0.00    +0.000 A 
ATOM      8  C   UNL     1      -6.110  -1.182   0.018  0.00  0.00    +0.000 A 
ATOM      9 CL   UNL     1      -5.654  -2.526   1.009  0.00  0.00    +0.000 Cl
ENDBRANCH   2   3
BRANCH   1  13
ATOM     10  C   UNL     1       1.408  -0.140   0.221  0.00  0.00    +0.000 A 
ATOM     11  C   UNL     1       0.704  -0.947  -0.670  0.00  0.00    +0.000 A 
ATOM     12  C   UNL     1      -0.677  -0.792  -0.816  0.00  0.00    +0.000 A 
ATOM     13  C   UNL     1      -1.372   0.164  -0.063  0.00  0.00    +0.000 A 
ATOM     14  C   UNL     1      -0.649   0.980   0.818  0.00  0.00    +0.000 A 
ATOM     15  C   UNL     1       0.732   0.826   0.963  0.00  0.00    +0.000 A 
ENDBRANCH   1  13
TORSDOF 2
