REMARK  Name = *****
REMARK  3 active torsions:
REMARK  status: ('A' for Active; 'I' for Inactive)
REMARK    1  A    between atoms: C_4  and  N_7
REMARK    2  A    between atoms: N_7  and  C_8
REMARK    3  A    between atoms: C_8  and  C_9
REMARK                            x       y       z     vdW  Elec       q    Type
REMARK                         _______ _______ _______ _____ _____    ______ ____
ROOT
ATOM      1  C   UNL     1       3.546  -1.315   0.178  0.00  0.00    +0.000 C 
ENDROOT
BRANCH   1   2
ATOM      2  C   UNL     1       4.901  -1.623  -0.330  0.00  0.00    +0.000 A 
ATOM      3  C   UNL     1       5.324  -1.029  -1.529  0.00  0.00    +0.000 A 
ATOM      4  C   UNL     1       6.596  -1.294  -2.040  0.00  0.00    +0.000 A 
ATOM      5  C   UNL     1       7.455  -2.153  -1.358  0.00  0.00    +0.000 A 
ATOM      6  C   UNL     1       7.042  -2.748  -0.165  0.00  0.00    +0.000 A 
ATOM      7  C   UNL     1       5.767  -2.487   0.353  0.00  0.00    +0.000 A 
ATOM      8 CL   UNL     1       5.343  -3.270   1.834  0.00  0.00    +0.000 Cl
ENDBRANCH   1   2
BRANCH   1   9
ATOM      9  N   UNL     1       2.746  -0.528  -0.462  0.00  0.00    +0.000 NA
BRANCH   9  13
ATOM     10  C   UNL     1      -1.439   0.268  -0.163  0.00  0.00    +0.000 C 
ATOM     11  C   UNL     1      -0.956  -1.133   0.200  0.00  0.00    +0.000 C 
ATOM     12  C   UNL     1       0.459  -1.391  -0.312  0.00  0.00    +0.000 C 
ATOM     13  C   UNL     1       1.440  -0.320   0.179  0.00  0.00    +0.000 C 
ATOM     14  C   UNL     1       0.950   1.082  -0.199  0.00  0.00    +0.000 C 
ATOM     15  C   UNL     1      -0.464   1.341   0.313  0.00  0.00    +0.000 C 
ENDBRANCH   9  13
ENDBRANCH   1   9
TORSDOF 3
