REMARK  Name = *****
REMARK  4 active torsions:
REMARK  status: ('A' for Active; 'I' for Inactive)
REMARK    1  A    between atoms: C_1  and  C_2
REMARK    2  A    between atoms: C_7  and  C_8
REMARK    3  A    between atoms: C_9  and  C_10
REMARK    4  A    between atoms: C_13  and  C_16
REMARK                            x       y       z     vdW  Elec       q    Type
REMARK                         _______ _______ _______ _____ _____    ______ ____
ROOT
ATOM      1  C   UNL     1       2.510  -2.598  -0.341  0.00  0.00    +0.000 C 
ATOM      2  C   UNL     1       1.944  -3.655  -0.412  0.00  0.00    +0.000 C 
ENDROOT
BRANCH   1   9
ATOM      3  C   UNL     1       0.972  -0.105  -0.046  0.00  0.00    +0.000 C 
ATOM      4  C   UNL     1       2.474  -0.131  -0.118  0.00  0.00    +0.000 A 
ATOM      5  C   UNL     1       3.191   1.074  -0.043  0.00  0.00    +0.000 A 
ATOM      6  C   UNL     1       4.585   1.081  -0.106  0.00  0.00    +0.000 A 
ATOM      7  C   UNL     1       5.282  -0.117  -0.245  0.00  0.00    +0.000 A 
ATOM      8  C   UNL     1       4.584  -1.322  -0.321  0.00  0.00    +0.000 A 
ATOM      9  C   UNL     1       3.186  -1.336  -0.258  0.00  0.00    +0.000 A 
ENDBRANCH   1   9
BRANCH   2  10
ATOM     10  C   UNL     1       1.268  -4.911  -0.499  0.00  0.00    +0.000 A 
ATOM     11  C   UNL     1       1.941  -6.093  -0.179  0.00  0.00    +0.000 A 
ATOM     12  C   UNL     1       1.280  -7.322  -0.266  0.00  0.00    +0.000 A 
ATOM     13  C   UNL     1      -0.058  -7.372  -0.675  0.00  0.00    +0.000 A 
ATOM     14  C   UNL     1      -0.730  -6.187  -0.995  0.00  0.00    +0.000 A 
ATOM     15  C   UNL     1      -0.068  -4.959  -0.907  0.00  0.00    +0.000 A 
BRANCH  13  16
ATOM     16  C   UNL     1      -0.736  -8.632  -0.765  0.00  0.00    +0.000 C 
ATOM     17  N   UNL     1      -1.285  -9.652  -0.839  0.00  0.00    +0.000 NA
ENDBRANCH  13  16
ENDBRANCH   2  10
TORSDOF 3
