REMARK  Name = *****
REMARK  6 active torsions:
REMARK  status: ('A' for Active; 'I' for Inactive)
REMARK    1  A    between atoms: C_1  and  O_2
REMARK    2  A    between atoms: O_2  and  C_3
REMARK    3  A    between atoms: C_3  and  C_5
REMARK    4  A    between atoms: C_6  and  C_10
REMARK    5  A    between atoms: C_10  and  C_11
REMARK    6  A    between atoms: C_11  and  C_12
REMARK                            x       y       z     vdW  Elec       q    Type
REMARK                         _______ _______ _______ _____ _____    ______ ____
ROOT
ATOM      1  C   UNL     1       4.803   0.906  -1.508  0.00  0.00    +0.000 C 
ENDROOT
BRANCH   1   3
ATOM      2  C   UNL     1       5.773   1.167   0.920  0.00  0.00    +0.000 A 
ATOM      3  C   UNL     1       5.316   0.427  -0.168  0.00  0.00    +0.000 A 
ATOM      4  S   UNL     1       5.395  -1.265   0.121  0.00  0.00    +0.000 S 
ATOM      5  C   UNL     1       6.035  -1.041   1.682  0.00  0.00    +0.000 A 
ATOM      6  C   UNL     1       6.190   0.291   1.985  0.00  0.00    +0.000 A 
BRANCH   2   7
ATOM      7  C   UNL     1       5.816   2.632   0.964  0.00  0.00    +0.000 C 
ATOM      8  O   UNL     1       5.381   3.352   0.072  0.00  0.00    +0.000 OA
BRANCH   7  10
ATOM      9  C   UNL     1       6.443   4.524   2.200  0.00  0.00    +0.000 C 
ATOM     10  O   UNL     1       6.384   3.100   2.114  0.00  0.00    +0.000 OA
ENDBRANCH   7  10
ENDBRANCH   2   7
ENDBRANCH   1   3
BRANCH   1  11
ATOM     11  C   UNL     1       3.337   1.356  -1.443  0.00  0.00    +0.000 C 
ATOM     12  F   UNL     1       2.562   0.248  -1.222  0.00  0.00    +0.000 F 
BRANCH  11  13
ATOM     13  C   UNL     1       2.929   2.077  -2.713  0.00  0.00    +0.000 A 
ATOM     14  C   UNL     1       2.201   1.407  -3.709  0.00  0.00    +0.000 A 
ATOM     15  C   UNL     1       1.836   2.068  -4.883  0.00  0.00    +0.000 A 
ATOM     16  C   UNL     1       2.199   3.397  -5.061  0.00  0.00    +0.000 A 
ATOM     17  C   UNL     1       2.920   4.080  -4.089  0.00  0.00    +0.000 A 
ATOM     18  C   UNL     1       3.286   3.421  -2.914  0.00  0.00    +0.000 A 
ATOM     19  F   UNL     1       1.849   4.031  -6.189  0.00  0.00    +0.000 F 
ENDBRANCH  11  13
ENDBRANCH   1  11
TORSDOF 5
