REMARK  Name = *****
REMARK  3 active torsions:
REMARK  status: ('A' for Active; 'I' for Inactive)
REMARK    1  A    between atoms: C_1  and  C_2
REMARK    2  A    between atoms: C_6  and  C_7
REMARK    3  A    between atoms: C_8  and  C_9
REMARK                            x       y       z     vdW  Elec       q    Type
REMARK                         _______ _______ _______ _____ _____    ______ ____
ROOT
ATOM      1  C   UNL     1       2.888  -1.296  -0.602  0.00  0.00    +0.000 C 
ATOM      2  C   UNL     1       2.560   0.053   0.032  0.00  0.00    +0.000 C 
ATOM      3  C   UNL     1       3.132   1.238  -0.799  0.00  0.00    +0.000 C 
ATOM      4  C   UNL     1       4.515   1.437  -0.172  0.00  0.00    +0.000 C 
ATOM      5  C   UNL     1       3.955   1.643   1.242  0.00  0.00    +0.000 C 
ATOM      6  C   UNL     1       3.160   0.324   1.464  0.00  0.00    +0.000 C 
ATOM      7  C   UNL     1       2.964   2.747   0.929  0.00  0.00    +0.000 C 
ATOM      8  C   UNL     1       2.474   2.504  -0.296  0.00  0.00    +0.000 C 
ENDROOT
BRANCH   6   9
ATOM      9  C   UNL     1       4.025  -0.754   1.982  0.00  0.00    +0.000 C 
ATOM     10  C   UNL     1       4.716  -1.653   2.383  0.00  0.00    +0.000 C 
BRANCH  10  11
ATOM     11  C   UNL     1       5.535  -2.743   2.824  0.00  0.00    +0.000 A 
ATOM     12  C   UNL     1       6.817  -2.501   3.321  0.00  0.00    +0.000 A 
ATOM     13  C   UNL     1       7.623  -3.566   3.733  0.00  0.00    +0.000 A 
ATOM     14  C   UNL     1       7.147  -4.875   3.649  0.00  0.00    +0.000 A 
ATOM     15  C   UNL     1       5.865  -5.119   3.157  0.00  0.00    +0.000 A 
ATOM     16  C   UNL     1       5.059  -4.055   2.745  0.00  0.00    +0.000 A 
ENDBRANCH  10  11
ENDBRANCH   6   9
TORSDOF 2
