REMARK  Name = *****
REMARK  4 active torsions:
REMARK  status: ('A' for Active; 'I' for Inactive)
REMARK    1  A    between atoms: C_4  and  C_7
REMARK    2  A    between atoms: C_7  and  N_8
REMARK    3  A    between atoms: N_8  and  C_9
REMARK    4  A    between atoms: C_9  and  C_10
REMARK                            x       y       z     vdW  Elec       q    Type
REMARK                         _______ _______ _______ _____ _____    ______ ____
ROOT
ATOM      1  N   UNL     1       3.152  -2.092   0.318  0.00  0.00    +0.000 NA
ENDROOT
BRANCH   1   2
ATOM      2  C   UNL     1       2.770  -0.804  -0.272  0.00  0.00    +0.000 C 
BRANCH   2   6
ATOM      3  C   UNL     1      -1.425   0.456  -0.266  0.00  0.00    +0.000 C 
ATOM      4  C   UNL     1      -1.107  -0.977   0.149  0.00  0.00    +0.000 C 
ATOM      5  C   UNL     1       0.296  -1.393  -0.289  0.00  0.00    +0.000 C 
ATOM      6  C   UNL     1       1.368  -0.417   0.227  0.00  0.00    +0.000 C 
ATOM      7  C   UNL     1       1.034   1.021  -0.198  0.00  0.00    +0.000 C 
ATOM      8  C   UNL     1      -0.370   1.432   0.240  0.00  0.00    +0.000 C 
ENDBRANCH   2   6
ENDBRANCH   1   2
BRANCH   1   9
ATOM      9  C   UNL     1       4.296  -2.519  -0.092  0.00  0.00    +0.000 C 
BRANCH   9  10
ATOM     10  C   UNL     1       4.846  -3.834   0.408  0.00  0.00    +0.000 C 
ATOM     11  C   UNL     1       6.161  -3.582   1.151  0.00  0.00    +0.000 C 
ATOM     12  C   UNL     1       6.820  -4.890   1.583  0.00  0.00    +0.000 C 
ATOM     13  C   UNL     1       7.018  -5.836   0.402  0.00  0.00    +0.000 C 
ATOM     14  C   UNL     1       5.710  -6.087  -0.343  0.00  0.00    +0.000 C 
ATOM     15  C   UNL     1       5.049  -4.781  -0.777  0.00  0.00    +0.000 C 
ENDBRANCH   9  10
ENDBRANCH   1   9
TORSDOF 4
