REMARK  Name = *****
REMARK  5 active torsions:
REMARK  status: ('A' for Active; 'I' for Inactive)
REMARK    1  A    between atoms: C_1  and  C_2
REMARK    2  A    between atoms: C_2  and  C_4
REMARK    3  A    between atoms: C_7  and  S_10
REMARK    4  A    between atoms: S_10  and  C_11
REMARK    5  A    between atoms: C_11  and  C_13
REMARK                            x       y       z     vdW  Elec       q    Type
REMARK                         _______ _______ _______ _____ _____    ______ ____
ROOT
ATOM      1  C   UNL     1       3.307   0.898  -1.070  0.00  0.00    +0.000 A 
ATOM      2  C   UNL     1       2.568   1.928  -1.661  0.00  0.00    +0.000 A 
ATOM      3  C   UNL     1       3.109   2.658  -2.727  0.00  0.00    +0.000 A 
ATOM      4  C   UNL     1       4.395   2.381  -3.203  0.00  0.00    +0.000 A 
ATOM      5  C   UNL     1       5.125   1.342  -2.620  0.00  0.00    +0.000 A 
ATOM      6  C   UNL     1       4.586   0.606  -1.560  0.00  0.00    +0.000 A 
ENDROOT
BRANCH   1   8
ATOM      7  C   UNL     1       1.447   0.459   0.670  0.00  0.00    +0.000 C 
ATOM      8  C   UNL     1       2.776   0.087   0.066  0.00  0.00    +0.000 C 
ATOM      9  O   UNL     1       3.423  -0.869   0.491  0.00  0.00    +0.000 OA
ENDBRANCH   1   8
BRANCH   4  10
ATOM     10  S   UNL     1       5.089   3.268  -4.582  0.00  0.00    +0.000 S 
BRANCH  10  11
ATOM     11  C   UNL     1       5.194   4.923  -3.978  0.00  0.00    +0.000 C 
ATOM     12  O   UNL     1       4.607   5.285  -2.965  0.00  0.00    +0.000 OA
BRANCH  11  13
ATOM     13  C   UNL     1       5.984   5.907  -4.779  0.00  0.00    +0.000 A 
ATOM     14  C   UNL     1       6.921   5.541  -5.757  0.00  0.00    +0.000 A 
ATOM     15  C   UNL     1       7.624   6.522  -6.464  0.00  0.00    +0.000 A 
ATOM     16  C   UNL     1       7.402   7.872  -6.200  0.00  0.00    +0.000 A 
ATOM     17  C   UNL     1       6.481   8.248  -5.225  0.00  0.00    +0.000 A 
ATOM     18  C   UNL     1       5.779   7.271  -4.516  0.00  0.00    +0.000 A 
ENDBRANCH  11  13
ENDBRANCH  10  11
ENDBRANCH   4  10
TORSDOF 4
