REMARK  Name = *****
REMARK  4 active torsions:
REMARK  status: ('A' for Active; 'I' for Inactive)
REMARK    1  A    between atoms: C_1  and  C_2
REMARK    2  A    between atoms: C_5  and  C_8
REMARK    3  A    between atoms: C_9  and  C_10
REMARK    4  A    between atoms: C_13  and  N_16
REMARK                            x       y       z     vdW  Elec       q    Type
REMARK                         _______ _______ _______ _____ _____    ______ ____
ROOT
ATOM      1  C   UNL     1       6.929   0.118  -0.735  0.00  0.00    +0.000 C 
ATOM      2  C   UNL     1       8.103   0.140  -0.989  0.00  0.00    +0.000 C 
ENDROOT
BRANCH   1   7
ATOM      3  C   UNL     1       1.266   0.008   0.171  0.00  0.00    +0.000 C 
ATOM      4  C   UNL     1       2.752   0.047  -0.032  0.00  0.00    +0.000 A 
ATOM      5  C   UNL     1       3.430   1.266  -0.152  0.00  0.00    +0.000 A 
ATOM      6  C   UNL     1       4.810   1.289  -0.371  0.00  0.00    +0.000 A 
ATOM      7  C   UNL     1       5.523   0.093  -0.476  0.00  0.00    +0.000 A 
ATOM      8  C   UNL     1       4.854  -1.126  -0.355  0.00  0.00    +0.000 A 
ATOM      9  C   UNL     1       3.474  -1.149  -0.136  0.00  0.00    +0.000 A 
ENDBRANCH   1   7
BRANCH   2  10
ATOM     10  C   UNL     1       9.491   0.167  -1.332  0.00  0.00    +0.000 A 
ATOM     11  C   UNL     1      10.143   1.393  -1.506  0.00  0.00    +0.000 A 
ATOM     12  C   UNL     1      11.490   1.423  -1.871  0.00  0.00    +0.000 A 
ATOM     13  C   UNL     1      12.169   0.221  -2.057  0.00  0.00    +0.000 A 
ATOM     14  C   UNL     1      11.536  -1.009  -1.882  0.00  0.00    +0.000 A 
ATOM     15  C   UNL     1      10.189  -1.032  -1.517  0.00  0.00    +0.000 A 
BRANCH  13  16
ATOM     16  N   UNL     1      13.505   0.247  -2.434  0.00  0.00    +0.000 NA
ATOM     17  C   UNL     1      14.632   0.270  -2.754  0.00  0.00    +0.000 C 
ENDBRANCH  13  16
ENDBRANCH   2  10
TORSDOF 3
