REMARK  Name = *****
REMARK  4 active torsions:
REMARK  status: ('A' for Active; 'I' for Inactive)
REMARK    1  A    between atoms: C_4  and  C_7
REMARK    2  A    between atoms: C_7  and  O_8
REMARK    3  A    between atoms: O_8  and  C_9
REMARK    4  A    between atoms: C_9  and  C_11
REMARK                            x       y       z     vdW  Elec       q    Type
REMARK                         _______ _______ _______ _____ _____    ______ ____
ROOT
ATOM      1  C   UNL     1      -4.397  -0.981  -1.308  0.00  0.00    +0.000 C 
ATOM      2  O   UNL     1      -4.178  -0.430  -2.373  0.00  0.00    +0.000 OA
ENDROOT
BRANCH   1   3
ATOM      3  C   UNL     1      -5.286  -2.146  -1.163  0.00  0.00    +0.000 A 
ATOM      4  C   UNL     1      -6.317  -2.204  -0.214  0.00  0.00    +0.000 A 
ATOM      5  C   UNL     1      -7.116  -3.347  -0.132  0.00  0.00    +0.000 A 
ATOM      6  C   UNL     1      -6.889  -4.410  -1.000  0.00  0.00    +0.000 A 
ATOM      7  C   UNL     1      -5.884  -4.355  -1.960  0.00  0.00    +0.000 A 
ATOM      8  C   UNL     1      -5.081  -3.218  -2.047  0.00  0.00    +0.000 A 
ATOM      9  F   UNL     1      -7.659  -5.502  -0.919  0.00  0.00    +0.000 F 
ATOM     10 CL   UNL     1      -6.697  -0.889   0.840  0.00  0.00    +0.000 Cl
ENDBRANCH   1   3
BRANCH   1  11
ATOM     11  O   UNL     1      -3.799  -0.731  -0.123  0.00  0.00    +0.000 OA
BRANCH  11  12
ATOM     12  C   UNL     1      -2.878   0.363  -0.162  0.00  0.00    +0.000 C 
BRANCH  12  16
ATOM     13  C   UNL     1      -1.124   0.769   3.757  0.00  0.00    +0.000 A 
ATOM     14  C   UNL     1      -0.329   0.401   2.674  0.00  0.00    +0.000 A 
ATOM     15  C   UNL     1      -0.893   0.268   1.404  0.00  0.00    +0.000 A 
ATOM     16  C   UNL     1      -2.260   0.505   1.206  0.00  0.00    +0.000 A 
ATOM     17  C   UNL     1      -3.051   0.872   2.304  0.00  0.00    +0.000 A 
ATOM     18  C   UNL     1      -2.485   1.004   3.573  0.00  0.00    +0.000 A 
ENDBRANCH  12  16
ENDBRANCH  11  12
ENDBRANCH   1  11
TORSDOF 4
