REMARK  Name = *****
REMARK  3 active torsions:
REMARK  status: ('A' for Active; 'I' for Inactive)
REMARK    1  A    between atoms: C_1  and  C_2
REMARK    2  A    between atoms: C_4  and  C_7
REMARK    3  A    between atoms: C_8  and  C_9
REMARK                            x       y       z     vdW  Elec       q    Type
REMARK                         _______ _______ _______ _____ _____    ______ ____
ROOT
ATOM      1  C   UNL     1       5.746   1.612   0.068  0.00  0.00    +0.000 C 
ATOM      2  C   UNL     1       6.659   2.393   0.077  0.00  0.00    +0.000 C 
ENDROOT
BRANCH   2   3
ATOM      3  C   UNL     1       7.740   3.328   0.087  0.00  0.00    +0.000 A 
ATOM      4  C   UNL     1       9.060   2.873   0.099  0.00  0.00    +0.000 A 
ATOM      5  C   UNL     1      10.103   3.795   0.110  0.00  0.00    +0.000 A 
ATOM      6  C   UNL     1       9.856   5.161   0.108  0.00  0.00    +0.000 A 
ATOM      7  C   UNL     1       8.539   5.601   0.095  0.00  0.00    +0.000 A 
ATOM      8  C   UNL     1       7.478   4.699   0.085  0.00  0.00    +0.000 A 
ATOM      9  F   UNL     1       8.285   6.916   0.093  0.00  0.00    +0.000 F 
ATOM     10  F   UNL     1      11.368   3.356   0.122  0.00  0.00    +0.000 F 
ENDBRANCH   2   3
BRANCH   1  14
ATOM     11  C   UNL     1       1.041   0.340   0.045  0.00  0.00    +0.000 C 
ATOM     12  C   UNL     1       2.521   0.185   0.048  0.00  0.00    +0.000 A 
ATOM     13  N   UNL     1       3.375   1.187   0.058  0.00  0.00    +0.000 NA
ATOM     14  C   UNL     1       4.660   0.691   0.057  0.00  0.00    +0.000 A 
ATOM     15  C   UNL     1       4.782  -0.679   0.047  0.00  0.00    +0.000 A 
ATOM     16  S   UNL     1       3.221  -1.389   0.037  0.00  0.00    +0.000 S 
ENDBRANCH   1  14
TORSDOF 2
