REMARK  Name = *****
REMARK  3 active torsions:
REMARK  status: ('A' for Active; 'I' for Inactive)
REMARK    1  A    between atoms: C_4  and  C_7
REMARK    2  A    between atoms: C_7  and  S_9
REMARK    3  A    between atoms: S_9  and  C_10
REMARK                            x       y       z     vdW  Elec       q    Type
REMARK                         _______ _______ _______ _____ _____    ______ ____
ROOT
ATOM      1  C   UNL     1       4.037  -3.159   0.926  0.00  0.00    +0.000 A 
ATOM      2  C   UNL     1       5.236  -3.601   0.359  0.00  0.00    +0.000 A 
ATOM      3  C   UNL     1       5.583  -4.949   0.392  0.00  0.00    +0.000 A 
ATOM      4  C   UNL     1       4.741  -5.872   0.995  0.00  0.00    +0.000 A 
ATOM      5  C   UNL     1       3.550  -5.449   1.567  0.00  0.00    +0.000 A 
ATOM      6  C   UNL     1       3.201  -4.103   1.535  0.00  0.00    +0.000 A 
ATOM      7  F   UNL     1       2.048  -3.714   2.102  0.00  0.00    +0.000 F 
ATOM      8  F   UNL     1       2.738  -6.336   2.160  0.00  0.00    +0.000 F 
ATOM      9  F   UNL     1       5.080  -7.168   1.032  0.00  0.00    +0.000 F 
ATOM     10  F   UNL     1       6.739  -5.354  -0.153  0.00  0.00    +0.000 F 
ATOM     11  F   UNL     1       6.072  -2.728  -0.225  0.00  0.00    +0.000 F 
ENDROOT
BRANCH   1  12
ATOM     12  S   UNL     1       3.584  -1.433   0.879  0.00  0.00    +0.000 S 
BRANCH  12  13
ATOM     13  C   UNL     1       2.099  -1.552  -0.074  0.00  0.00    +0.000 C 
ATOM     14  O   UNL     1       2.005  -2.355  -0.995  0.00  0.00    +0.000 OA
BRANCH  13  18
ATOM     15  C   UNL     1      -1.426   0.981  -0.292  0.00  0.00    +0.000 C 
ATOM     16  C   UNL     1      -1.506  -0.297   0.538  0.00  0.00    +0.000 C 
ATOM     17  C   UNL     1      -0.373  -1.259   0.193  0.00  0.00    +0.000 C 
ATOM     18  C   UNL     1       0.999  -0.588   0.339  0.00  0.00    +0.000 C 
ATOM     19  C   UNL     1       1.077   0.690  -0.503  0.00  0.00    +0.000 C 
ATOM     20  C   UNL     1      -0.061   1.651  -0.166  0.00  0.00    +0.000 C 
ENDBRANCH  13  18
ENDBRANCH  12  13
ENDBRANCH   1  12
TORSDOF 3
