REMARK  Name = *****
REMARK  4 active torsions:
REMARK  status: ('A' for Active; 'I' for Inactive)
REMARK    1  A    between atoms: C_2  and  C_3
REMARK    2  A    between atoms: C_2  and  O_9
REMARK    3  A    between atoms: O_9  and  C_10
REMARK    4  A    between atoms: C_10  and  C_12
REMARK                            x       y       z     vdW  Elec       q    Type
REMARK                         _______ _______ _______ _____ _____    ______ ____
ROOT
ATOM      1  O   UNL     1       3.314  -0.117  -1.098  0.00  0.00    +0.000 OA
ENDROOT
BRANCH   1   3
ATOM      2  C   UNL     1       1.156  -0.073   0.021  0.00  0.00    +0.000 C 
ATOM      3  C   UNL     1       2.462   0.234  -0.029  0.00  0.00    +0.000 C 
BRANCH   3   4
ATOM      4  C   UNL     1       3.156   0.862   1.110  0.00  0.00    +0.000 A 
ATOM      5  C   UNL     1       4.372   0.339   1.572  0.00  0.00    +0.000 A 
ATOM      6  C   UNL     1       5.043   0.935   2.643  0.00  0.00    +0.000 A 
ATOM      7  C   UNL     1       4.510   2.065   3.259  0.00  0.00    +0.000 A 
ATOM      8  C   UNL     1       3.307   2.602   2.804  0.00  0.00    +0.000 A 
ATOM      9  C   UNL     1       2.635   2.005   1.734  0.00  0.00    +0.000 A 
ENDBRANCH   3   4
ENDBRANCH   1   3
BRANCH   1  10
ATOM     10  C   UNL     1       2.891   0.059  -2.382  0.00  0.00    +0.000 C 
ATOM     11  O   UNL     1       1.844   0.561  -2.763  0.00  0.00    +0.000 OA
BRANCH  10  12
ATOM     12  C   UNL     1       3.927  -0.449  -3.327  0.00  0.00    +0.000 A 
ATOM     13  C   UNL     1       5.149  -0.990  -2.894  0.00  0.00    +0.000 A 
ATOM     14  C   UNL     1       6.081  -1.452  -3.828  0.00  0.00    +0.000 A 
ATOM     15  C   UNL     1       5.793  -1.373  -5.186  0.00  0.00    +0.000 A 
ATOM     16  C   UNL     1       4.590  -0.840  -5.632  0.00  0.00    +0.000 A 
ATOM     17  C   UNL     1       3.656  -0.376  -4.703  0.00  0.00    +0.000 A 
ATOM     18  F   UNL     1       6.688  -1.818  -6.077  0.00  0.00    +0.000 F 
ENDBRANCH  10  12
ENDBRANCH   1  10
TORSDOF 4
