REMARK  Name = *****
REMARK  4 active torsions:
REMARK  status: ('A' for Active; 'I' for Inactive)
REMARK    1  A    between atoms: C_4  and  C_7
REMARK    2  A    between atoms: C_7  and  C_8
REMARK    3  A    between atoms: C_8  and  C_9
REMARK    4  A    between atoms: C_9  and  C_11
REMARK                            x       y       z     vdW  Elec       q    Type
REMARK                         _______ _______ _______ _____ _____    ______ ____
ROOT
ATOM      1  C   UNL     1      -3.630  -0.795  -0.333  0.00  0.00    +0.000 C 
ENDROOT
BRANCH   1   2
ATOM      2  C   UNL     1      -5.101  -0.543  -0.606  0.00  0.00    +0.000 C 
ATOM      3  O   UNL     1      -5.566   0.592  -0.692  0.00  0.00    +0.000 OA
BRANCH   2   4
ATOM      4  C   UNL     1      -6.009  -1.720  -0.773  0.00  0.00    +0.000 A 
ATOM      5  C   UNL     1      -5.548  -3.041  -0.701  0.00  0.00    +0.000 A 
ATOM      6  C   UNL     1      -6.439  -4.106  -0.865  0.00  0.00    +0.000 A 
ATOM      7  C   UNL     1      -7.790  -3.860  -1.101  0.00  0.00    +0.000 A 
ATOM      8  C   UNL     1      -8.257  -2.550  -1.174  0.00  0.00    +0.000 A 
ATOM      9  C   UNL     1      -7.371  -1.483  -1.011  0.00  0.00    +0.000 A 
ENDBRANCH   2   4
ENDBRANCH   1   2
BRANCH   1  10
ATOM     10  C   UNL     1      -2.850   0.512  -0.186  0.00  0.00    +0.000 C 
BRANCH  10  14
ATOM     11  C   UNL     1       1.311  -0.285   0.617  0.00  0.00    +0.000 A 
ATOM     12  C   UNL     1       0.862  -0.183  -0.698  0.00  0.00    +0.000 A 
ATOM     13  C   UNL     1      -0.484   0.081  -0.959  0.00  0.00    +0.000 A 
ATOM     14  C   UNL     1      -1.391   0.250   0.095  0.00  0.00    +0.000 A 
ATOM     15  C   UNL     1      -0.931   0.141   1.414  0.00  0.00    +0.000 A 
ATOM     16  C   UNL     1       0.415  -0.123   1.673  0.00  0.00    +0.000 A 
ENDBRANCH  10  14
ENDBRANCH   1  10
TORSDOF 4
