REMARK  Name = *****
REMARK  3 active torsions:
REMARK  status: ('A' for Active; 'I' for Inactive)
REMARK    1  A    between atoms: C_1  and  C_2
REMARK    2  A    between atoms: C_5  and  N_8
REMARK    3  A    between atoms: C_9  and  C_10
REMARK                            x       y       z     vdW  Elec       q    Type
REMARK                         _______ _______ _______ _____ _____    ______ ____
ROOT
ATOM      1  N   UNL     1      -3.261   0.055   0.196  0.00  0.00    +0.000 NA
ATOM      2  C   UNL     1      -3.894   0.818  -0.652  0.00  0.00    +0.000 C 
ENDROOT
BRANCH   1   7
ATOM      3  C   UNL     1       2.448   0.025  -0.070  0.00  0.00    +0.000 C 
ATOM      4  C   UNL     1       0.950   0.049  -0.026  0.00  0.00    +0.000 A 
ATOM      5  C   UNL     1       0.273   1.157   0.498  0.00  0.00    +0.000 A 
ATOM      6  C   UNL     1      -1.123   1.165   0.564  0.00  0.00    +0.000 A 
ATOM      7  C   UNL     1      -1.863   0.072   0.109  0.00  0.00    +0.000 A 
ATOM      8  C   UNL     1      -1.188  -1.043  -0.388  0.00  0.00    +0.000 A 
ATOM      9  C   UNL     1       0.209  -1.059  -0.456  0.00  0.00    +0.000 A 
ENDBRANCH   1   7
BRANCH   2  10
ATOM     10  C   UNL     1      -5.379   0.924  -0.686  0.00  0.00    +0.000 C 
ATOM     11  C   UNL     1      -6.110   0.125   0.217  0.00  0.00    +0.000 C 
ATOM     12  C   UNL     1      -7.498   0.174   0.238  0.00  0.00    +0.000 C 
ATOM     13  C   UNL     1      -8.154   1.021  -0.642  0.00  0.00    +0.000 C 
ATOM     14  C   UNL     1      -7.416   1.812  -1.534  0.00  0.00    +0.000 C 
ATOM     15  C   UNL     1      -6.005   1.810  -1.606  0.00  0.00    +0.000 C 
ATOM     16  O   UNL     1      -5.393   2.560  -2.443  0.00  0.00    +0.000 OA
ENDBRANCH   2  10
TORSDOF 2
