REMARK  Name = *****
REMARK  5 active torsions:
REMARK  status: ('A' for Active; 'I' for Inactive)
REMARK    1  A    between atoms: C_4  and  C_7
REMARK    2  A    between atoms: C_7  and  C_8
REMARK    3  A    between atoms: C_8  and  S_9
REMARK    4  A    between atoms: S_9  and  C_10
REMARK    5  A    between atoms: C_10  and  C_11
REMARK                            x       y       z     vdW  Elec       q    Type
REMARK                         _______ _______ _______ _____ _____    ______ ____
ROOT
ATOM      1  C   UNL     1      -3.552  -0.447  -0.340  0.00  0.00    +0.000 C 
ENDROOT
BRANCH   1   2
ATOM      2  C   UNL     1      -2.624   0.721  -0.007  0.00  0.00    +0.000 C 
BRANCH   2   6
ATOM      3  C   UNL     1       1.443  -0.649   0.429  0.00  0.00    +0.000 A 
ATOM      4  C   UNL     1       0.977  -0.235  -0.818  0.00  0.00    +0.000 A 
ATOM      5  C   UNL     1      -0.337   0.214  -0.959  0.00  0.00    +0.000 A 
ATOM      6  C   UNL     1      -1.195   0.256   0.148  0.00  0.00    +0.000 A 
ATOM      7  C   UNL     1      -0.718  -0.167   1.396  0.00  0.00    +0.000 A 
ATOM      8  C   UNL     1       0.596  -0.616   1.535  0.00  0.00    +0.000 A 
ENDBRANCH   2   6
ENDBRANCH   1   2
BRANCH   1   9
ATOM      9  S   UNL     1      -5.295   0.074  -0.475  0.00  0.00    +0.000 S 
BRANCH   9  10
ATOM     10  C   UNL     1      -5.237   0.894  -2.099  0.00  0.00    +0.000 C 
BRANCH  10  11
ATOM     11  C   UNL     1      -6.604   1.362  -2.531  0.00  0.00    +0.000 A 
ATOM     12  C   UNL     1      -7.065   2.639  -2.177  0.00  0.00    +0.000 A 
ATOM     13  C   UNL     1      -8.333   3.069  -2.571  0.00  0.00    +0.000 A 
ATOM     14  C   UNL     1      -9.156   2.226  -3.317  0.00  0.00    +0.000 A 
ATOM     15  C   UNL     1      -8.713   0.951  -3.665  0.00  0.00    +0.000 A 
ATOM     16  C   UNL     1      -7.446   0.519  -3.272  0.00  0.00    +0.000 A 
ENDBRANCH  10  11
ENDBRANCH   9  10
ENDBRANCH   1   9
TORSDOF 5
