REMARK  Name = *****
REMARK  2 active torsions:
REMARK  status: ('A' for Active; 'I' for Inactive)
REMARK    1  A    between atoms: C_4  and  C_7
REMARK    2  A    between atoms: C_8  and  C_9
REMARK                            x       y       z     vdW  Elec       q    Type
REMARK                         _______ _______ _______ _____ _____    ______ ____
ROOT
ATOM      1  C   UNL     1      -2.866   0.275  -0.372  0.00  0.00    +0.000 C 
ATOM      2  C   UNL     1      -3.814  -0.624  -0.055  0.00  0.00    +0.000 C 
ATOM      3 CL   UNL     1      -3.445  -2.168   0.643  0.00  0.00    +0.000 Cl
ENDROOT
BRANCH   1   7
ATOM      4  C   UNL     1       1.344  -0.159   0.170  0.00  0.00    +0.000 A 
ATOM      5  C   UNL     1       0.684  -0.945  -0.773  0.00  0.00    +0.000 A 
ATOM      6  C   UNL     1      -0.694  -0.812  -0.953  0.00  0.00    +0.000 A 
ATOM      7  C   UNL     1      -1.421   0.105  -0.185  0.00  0.00    +0.000 A 
ATOM      8  C   UNL     1      -0.751   0.896   0.755  0.00  0.00    +0.000 A 
ATOM      9  C   UNL     1       0.627   0.762   0.934  0.00  0.00    +0.000 A 
ENDBRANCH   1   7
BRANCH   2  10
ATOM     10  C   UNL     1      -5.187  -0.321  -0.313  0.00  0.00    +0.000 A 
ATOM     11  C   UNL     1      -5.776   0.119  -1.490  0.00  0.00    +0.000 A 
ATOM     12  C   UNL     1      -7.180   0.336  -1.371  0.00  0.00    +0.000 A 
ATOM     13  C   UNL     1      -7.633   0.063  -0.102  0.00  0.00    +0.000 A 
ATOM     14  S   UNL     1      -6.375  -0.449   0.932  0.00  0.00    +0.000 S 
ENDBRANCH   2  10
TORSDOF 2
