REMARK  Name = *****
REMARK  5 active torsions:
REMARK  status: ('A' for Active; 'I' for Inactive)
REMARK    1  A    between atoms: C_1  and  C_2
REMARK    2  A    between atoms: C_2  and  C_4
REMARK    3  A    between atoms: C_4  and  C_5
REMARK    4  A    between atoms: C_4  and  C_13
REMARK    5  A    between atoms: C_5  and  C_6
REMARK                            x       y       z     vdW  Elec       q    Type
REMARK                         _______ _______ _______ _____ _____    ______ ____
ROOT
ATOM      1  C   UNL     1       3.287   0.478  -1.154  0.00  0.00    +0.000 C 
ENDROOT
BRANCH   1   2
ATOM      2  C   UNL     1       4.796   0.433  -0.958  0.00  0.00    +0.000 A 
ATOM      3  C   UNL     1       5.618  -0.066  -1.984  0.00  0.00    +0.000 A 
ATOM      4  C   UNL     1       7.005  -0.100  -1.828  0.00  0.00    +0.000 A 
ATOM      5  C   UNL     1       7.575   0.369  -0.652  0.00  0.00    +0.000 A 
ATOM      6  C   UNL     1       6.786   0.874   0.372  0.00  0.00    +0.000 A 
ATOM      7  C   UNL     1       5.399   0.908   0.221  0.00  0.00    +0.000 A 
ATOM      8  F   UNL     1       8.906   0.338  -0.507  0.00  0.00    +0.000 F 
ENDBRANCH   1   2
BRANCH   1  10
ATOM      9  C   UNL     1       2.842  -1.442   0.537  0.00  0.00    +0.000 C 
ATOM     10  C   UNL     1       2.495  -0.055   0.045  0.00  0.00    +0.000 C 
ATOM     11  O   UNL     1       1.560   0.561   0.559  0.00  0.00    +0.000 OA
ENDBRANCH   1  10
BRANCH   1  12
ATOM     12  C   UNL     1       2.769   1.833  -1.693  0.00  0.00    +0.000 C 
BRANCH  12  13
ATOM     13  C   UNL     1       3.179   3.085  -0.947  0.00  0.00    +0.000 A 
ATOM     14  C   UNL     1       4.337   3.785  -1.320  0.00  0.00    +0.000 A 
ATOM     15  C   UNL     1       4.727   4.935  -0.630  0.00  0.00    +0.000 A 
ATOM     16  C   UNL     1       3.959   5.396   0.436  0.00  0.00    +0.000 A 
ATOM     17  C   UNL     1       2.802   4.718   0.814  0.00  0.00    +0.000 A 
ATOM     18  C   UNL     1       2.413   3.568   0.123  0.00  0.00    +0.000 A 
ATOM     19 CL   UNL     1       4.440   6.810   1.289  0.00  0.00    +0.000 Cl
ENDBRANCH  12  13
ENDBRANCH   1  12
TORSDOF 4
