REMARK  Name = *****
REMARK  4 active torsions:
REMARK  status: ('A' for Active; 'I' for Inactive)
REMARK    1  A    between atoms: C_1  and  C_2
REMARK    2  A    between atoms: C_5  and  N_8
REMARK    3  A    between atoms: N_8  and  S_9
REMARK    4  A    between atoms: S_9  and  C_11
REMARK                            x       y       z     vdW  Elec       q    Type
REMARK                         _______ _______ _______ _____ _____    ______ ____
ROOT
ATOM      1  N   UNL     1      -3.367   0.497  -0.028  0.00  0.00    +0.000 N 
ATOM      2  H   UNL     1      -3.884  -0.293  -0.308  0.00  0.00    +0.000 HD
ENDROOT
BRANCH   1   7
ATOM      3  C   UNL     1       2.350  -0.108  -0.071  0.00  0.00    +0.000 C 
ATOM      4  C   UNL     1       0.861   0.064  -0.038  0.00  0.00    +0.000 A 
ATOM      5  C   UNL     1       0.276   1.136   0.639  0.00  0.00    +0.000 A 
ATOM      6  C   UNL     1      -1.114   1.305   0.644  0.00  0.00    +0.000 A 
ATOM      7  C   UNL     1      -1.954   0.429  -0.055  0.00  0.00    +0.000 A 
ATOM      8  C   UNL     1      -1.355  -0.658  -0.712  0.00  0.00    +0.000 A 
ATOM      9  C   UNL     1       0.033  -0.832  -0.718  0.00  0.00    +0.000 A 
ENDBRANCH   1   7
BRANCH   1  10
ATOM     10  S   UNL     1      -4.196   1.868   0.464  0.00  0.00    +0.000 S 
ATOM     11  O   UNL     1      -3.754   3.052  -0.343  0.00  0.00    +0.000 OA
BRANCH  10  12
ATOM     12  C   UNL     1      -5.765   1.324  -0.264  0.00  0.00    +0.000 A 
ATOM     13  C   UNL     1      -6.484   0.283   0.338  0.00  0.00    +0.000 A 
ATOM     14  C   UNL     1      -7.695  -0.143  -0.210  0.00  0.00    +0.000 A 
ATOM     15  C   UNL     1      -8.194   0.470  -1.359  0.00  0.00    +0.000 A 
ATOM     16  C   UNL     1      -7.485   1.509  -1.961  0.00  0.00    +0.000 A 
ATOM     17  C   UNL     1      -6.274   1.937  -1.415  0.00  0.00    +0.000 A 
ENDBRANCH  10  12
ENDBRANCH   1  10
TORSDOF 3
