REMARK  Name = *****
REMARK  5 active torsions:
REMARK  status: ('A' for Active; 'I' for Inactive)
REMARK    1  A    between atoms: C_1  and  C_2
REMARK    2  A    between atoms: C_2  and  C_4
REMARK    3  A    between atoms: C_7  and  C_10
REMARK    4  A    between atoms: C_10  and  C_11
REMARK    5  A    between atoms: C_11  and  C_12
REMARK                            x       y       z     vdW  Elec       q    Type
REMARK                         _______ _______ _______ _____ _____    ______ ____
ROOT
ATOM      1  C   UNL     1       5.652  -4.426  -1.863  0.00  0.00    +0.000 C 
ATOM      2  F   UNL     1       5.367  -5.631  -1.272  0.00  0.00    +0.000 F 
ATOM      3  F   UNL     1       5.347  -4.610  -3.188  0.00  0.00    +0.000 F 
ENDROOT
BRANCH   1   7
ATOM      4  C   UNL     1       3.210  -1.251  -0.175  0.00  0.00    +0.000 A 
ATOM      5  C   UNL     1       3.884  -1.054  -1.385  0.00  0.00    +0.000 A 
ATOM      6  C   UNL     1       4.665  -2.079  -1.931  0.00  0.00    +0.000 A 
ATOM      7  C   UNL     1       4.794  -3.313  -1.273  0.00  0.00    +0.000 A 
ATOM      8  C   UNL     1       4.109  -3.505  -0.064  0.00  0.00    +0.000 A 
ATOM      9  C   UNL     1       3.323  -2.484   0.478  0.00  0.00    +0.000 A 
BRANCH   4  11
ATOM     10  C   UNL     1       2.360   1.189  -0.156  0.00  0.00    +0.000 C 
ATOM     11  C   UNL     1       2.365  -0.190   0.450  0.00  0.00    +0.000 C 
ATOM     12  O   UNL     1       1.690  -0.451   1.443  0.00  0.00    +0.000 OA
ENDBRANCH   4  11
ENDBRANCH   1   7
BRANCH   1  13
ATOM     13  C   UNL     1       7.180  -4.135  -1.719  0.00  0.00    +0.000 C 
ATOM     14  F   UNL     1       7.484  -2.975  -2.388  0.00  0.00    +0.000 F 
ATOM     15  F   UNL     1       7.456  -3.852  -0.403  0.00  0.00    +0.000 F 
BRANCH  13  16
ATOM     16  C   UNL     1       8.039  -5.284  -2.224  0.00  0.00    +0.000 A 
ATOM     17  C   UNL     1       8.203  -5.504  -3.601  0.00  0.00    +0.000 A 
ATOM     18  C   UNL     1       8.986  -6.563  -4.062  0.00  0.00    +0.000 A 
ATOM     19  C   UNL     1       9.621  -7.409  -3.154  0.00  0.00    +0.000 A 
ATOM     20  C   UNL     1       9.474  -7.197  -1.785  0.00  0.00    +0.000 A 
ATOM     21  C   UNL     1       8.687  -6.141  -1.321  0.00  0.00    +0.000 A 
ENDBRANCH  13  16
ENDBRANCH   1  13
TORSDOF 4
