REMARK  Name = *****
REMARK  3 active torsions:
REMARK  status: ('A' for Active; 'I' for Inactive)
REMARK    1  A    between atoms: C_4  and  C_7
REMARK    2  A    between atoms: C_7  and  C_9
REMARK    3  A    between atoms: C_9  and  C_10
REMARK                            x       y       z     vdW  Elec       q    Type
REMARK                         _______ _______ _______ _____ _____    ______ ____
ROOT
ATOM      1  C   UNL     1      -3.918  -0.513  -0.371  0.00  0.00    +0.000 C 
ATOM      2 CL   UNL     1      -4.280  -1.275   1.223  0.00  0.00    +0.000 Cl
ATOM      3 CL   UNL     1      -5.453   0.304  -0.894  0.00  0.00    +0.000 Cl
ENDROOT
BRANCH   1   4
ATOM      4  C   UNL     1      -3.557  -1.502  -1.483  0.00  0.00    +0.000 A 
ATOM      5  C   UNL     1      -3.850  -2.877  -1.410  0.00  0.00    +0.000 A 
ATOM      6  C   UNL     1      -3.509  -3.745  -2.451  0.00  0.00    +0.000 A 
ATOM      7  C   UNL     1      -2.886  -3.257  -3.596  0.00  0.00    +0.000 A 
ATOM      8  C   UNL     1      -2.614  -1.899  -3.709  0.00  0.00    +0.000 A 
ATOM      9  C   UNL     1      -2.954  -1.029  -2.670  0.00  0.00    +0.000 A 
ENDBRANCH   1   4
BRANCH   1  10
ATOM     10  C   UNL     1      -2.848   0.568  -0.092  0.00  0.00    +0.000 C 
ATOM     11  O   UNL     1      -3.116   1.769   0.022  0.00  0.00    +0.000 OA
BRANCH  10  15
ATOM     12  C   UNL     1       1.349  -0.353   0.295  0.00  0.00    +0.000 A 
ATOM     13  C   UNL     1       0.415  -1.370   0.477  0.00  0.00    +0.000 A 
ATOM     14  C   UNL     1      -0.954  -1.101   0.365  0.00  0.00    +0.000 A 
ATOM     15  C   UNL     1      -1.399   0.192   0.063  0.00  0.00    +0.000 A 
ATOM     16  C   UNL     1      -0.445   1.210  -0.108  0.00  0.00    +0.000 A 
ATOM     17  C   UNL     1       0.920   0.938   0.004  0.00  0.00    +0.000 A 
ENDBRANCH  10  15
ENDBRANCH   1  10
TORSDOF 3
