REMARK  Name = *****
REMARK  3 active torsions:
REMARK  status: ('A' for Active; 'I' for Inactive)
REMARK    1  A    between atoms: C_4  and  S_14
REMARK    2  A    between atoms: C_5  and  N_7
REMARK    3  A    between atoms: C_8  and  C_9
REMARK                            x       y       z     vdW  Elec       q    Type
REMARK                         _______ _______ _______ _____ _____    ______ ____
ROOT
ATOM      1  C   UNL     1      -2.385   0.113  -0.367  0.00  0.00    +0.000 A 
ATOM      2  C   UNL     1      -1.715   1.226   0.138  0.00  0.00    +0.000 A 
ATOM      3  C   UNL     1      -0.349   1.152   0.415  0.00  0.00    +0.000 A 
ATOM      4  C   UNL     1       0.355  -0.038   0.192  0.00  0.00    +0.000 A 
ATOM      5  C   UNL     1      -0.323  -1.172  -0.295  0.00  0.00    +0.000 A 
ATOM      6  C   UNL     1      -1.690  -1.077  -0.586  0.00  0.00    +0.000 A 
ENDROOT
BRANCH   5   7
ATOM      7  N   UNL     1       0.341  -2.392  -0.534  0.00  0.00    +0.000 NA
ATOM      8  C   UNL     1       0.318  -3.241   0.446  0.00  0.00    +0.000 C 
BRANCH   8   9
ATOM      9  C   UNL     1       0.966  -4.523   0.319  0.00  0.00    +0.000 A 
ATOM     10  C   UNL     1       1.657  -5.043  -0.757  0.00  0.00    +0.000 A 
ATOM     11  C   UNL     1       2.156  -6.352  -0.496  0.00  0.00    +0.000 A 
ATOM     12  C   UNL     1       1.828  -6.785   0.769  0.00  0.00    +0.000 A 
ATOM     13  S   UNL     1       0.923  -5.616   1.632  0.00  0.00    +0.000 S 
ENDBRANCH   8   9
ENDBRANCH   5   7
BRANCH   4  14
ATOM     14  S   UNL     1       2.108  -0.072   0.547  0.00  0.00    +0.000 S 
ATOM     15  H   UNL     1       2.503   1.147   1.001  0.00  0.00    +0.000 HD
ENDBRANCH   4  14
TORSDOF 3
