REMARK  Name = *****
REMARK  4 active torsions:
REMARK  status: ('A' for Active; 'I' for Inactive)
REMARK    1  A    between atoms: C_1  and  C_2
REMARK    2  A    between atoms: C_5  and  C_8
REMARK    3  A    between atoms: C_8  and  O_10
REMARK    4  A    between atoms: O_10  and  C_11
REMARK                            x       y       z     vdW  Elec       q    Type
REMARK                         _______ _______ _______ _____ _____    ______ ____
ROOT
ATOM      1  C   UNL     1      -3.357   0.094   0.319  0.00  0.00    +0.000 C 
ATOM      2  O   UNL     1      -3.946  -0.810   0.890  0.00  0.00    +0.000 OA
ENDROOT
BRANCH   1   7
ATOM      3  C   UNL     1       2.431   0.218  -0.067  0.00  0.00    +0.000 C 
ATOM      4  C   UNL     1       0.932   0.183   0.001  0.00  0.00    +0.000 A 
ATOM      5  C   UNL     1       0.173   1.205  -0.580  0.00  0.00    +0.000 A 
ATOM      6  C   UNL     1      -1.223   1.193  -0.491  0.00  0.00    +0.000 A 
ATOM      7  C   UNL     1      -1.875   0.159   0.193  0.00  0.00    +0.000 A 
ATOM      8  C   UNL     1      -1.116  -0.857   0.786  0.00  0.00    +0.000 A 
ATOM      9  C   UNL     1       0.279  -0.842   0.696  0.00  0.00    +0.000 A 
ENDBRANCH   1   7
BRANCH   1  10
ATOM     10  O   UNL     1      -3.934   1.167  -0.278  0.00  0.00    +0.000 OA
BRANCH  10  11
ATOM     11  C   UNL     1      -5.360   1.202  -0.223  0.00  0.00    +0.000 C 
ATOM     12  C   UNL     1      -6.001   0.305  -1.277  0.00  0.00    +0.000 C 
ATOM     13  C   UNL     1      -7.381   0.910  -1.515  0.00  0.00    +0.000 C 
ATOM     14  C   UNL     1      -7.310   2.350  -1.006  0.00  0.00    +0.000 C 
ATOM     15  C   UNL     1      -5.853   2.583  -0.635  0.00  0.00    +0.000 C 
ENDBRANCH  10  11
ENDBRANCH   1  10
TORSDOF 3
