REMARK  Name = *****
REMARK  4 active torsions:
REMARK  status: ('A' for Active; 'I' for Inactive)
REMARK    1  A    between atoms: C_4  and  C_7
REMARK    2  A    between atoms: C_7  and  C_8
REMARK    3  A    between atoms: C_8  and  S_9
REMARK    4  A    between atoms: S_9  and  C_10
REMARK                            x       y       z     vdW  Elec       q    Type
REMARK                         _______ _______ _______ _____ _____    ______ ____
ROOT
ATOM      1  C   UNL     1      -1.356   1.468   2.791  0.00  0.00    +0.000 C 
ENDROOT
BRANCH   1   2
ATOM      2  C   UNL     1      -0.088   0.950   2.101  0.00  0.00    +0.000 C 
BRANCH   2   6
ATOM      3  C   UNL     1       2.711   2.821   0.165  0.00  0.00    +0.000 C 
ATOM      4  C   UNL     1       1.510   3.543   0.758  0.00  0.00    +0.000 C 
ATOM      5  S   UNL     1      -0.072   2.957   0.093  0.00  0.00    +0.000 S 
ATOM      6  C   UNL     1      -0.012   1.199   0.584  0.00  0.00    +0.000 C 
ATOM      7  S   UNL     1       1.431   0.367  -0.169  0.00  0.00    +0.000 S 
ATOM      8  C   UNL     1       2.789   1.346   0.529  0.00  0.00    +0.000 C 
ENDBRANCH   2   6
ENDBRANCH   1   2
BRANCH   1   9
ATOM      9  S   UNL     1      -2.854   0.585   2.237  0.00  0.00    +0.000 S 
BRANCH   9  10
ATOM     10  C   UNL     1      -4.084   1.523   3.122  0.00  0.00    +0.000 A 
ATOM     11  C   UNL     1      -4.989   2.316   2.410  0.00  0.00    +0.000 A 
ATOM     12  C   UNL     1      -5.964   3.052   3.086  0.00  0.00    +0.000 A 
ATOM     13  C   UNL     1      -6.042   2.993   4.477  0.00  0.00    +0.000 A 
ATOM     14  C   UNL     1      -5.150   2.196   5.192  0.00  0.00    +0.000 A 
ATOM     15  C   UNL     1      -4.174   1.460   4.515  0.00  0.00    +0.000 A 
ENDBRANCH   9  10
ENDBRANCH   1   9
TORSDOF 4
