REMARK  Name = *****
REMARK  3 active torsions:
REMARK  status: ('A' for Active; 'I' for Inactive)
REMARK    1  A    between atoms: C_3  and  C_7
REMARK    2  A    between atoms: C_7  and  C_8
REMARK    3  A    between atoms: C_8  and  C_9
REMARK                            x       y       z     vdW  Elec       q    Type
REMARK                         _______ _______ _______ _____ _____    ______ ____
ROOT
ATOM      1  C   UNL     1      -1.273   0.690  -1.834  0.00  0.00    +0.000 C 
ENDROOT
BRANCH   1   4
ATOM      2  C   UNL     1       1.216   0.745   0.092  0.00  0.00    +0.000 C 
ATOM      3  C   UNL     1      -0.170   1.311   0.418  0.00  0.00    +0.000 C 
ATOM      4  C   UNL     1      -1.301   0.550  -0.294  0.00  0.00    +0.000 C 
ATOM      5  C   UNL     1      -1.247  -0.938   0.117  0.00  0.00    +0.000 C 
ATOM      6  C   UNL     1       0.142  -1.513   0.121  0.00  0.00    +0.000 C 
ATOM      7  C   UNL     1       1.249  -0.755   0.095  0.00  0.00    +0.000 C 
ENDBRANCH   1   4
BRANCH   1   8
ATOM      8  C   UNL     1      -1.397   2.139  -2.316  0.00  0.00    +0.000 C 
BRANCH   8   9
ATOM      9  C   UNL     1      -1.541   2.216  -3.817  0.00  0.00    +0.000 A 
ATOM     10  C   UNL     1      -2.806   2.339  -4.406  0.00  0.00    +0.000 A 
ATOM     11  C   UNL     1      -2.936   2.395  -5.794  0.00  0.00    +0.000 A 
ATOM     12  C   UNL     1      -1.806   2.324  -6.606  0.00  0.00    +0.000 A 
ATOM     13  C   UNL     1      -0.543   2.195  -6.030  0.00  0.00    +0.000 A 
ATOM     14  C   UNL     1      -0.410   2.139  -4.642  0.00  0.00    +0.000 A 
ENDBRANCH   8   9
ENDBRANCH   1   8
TORSDOF 3
