REMARK  Name = *****
REMARK  3 active torsions:
REMARK  status: ('A' for Active; 'I' for Inactive)
REMARK    1  A    between atoms: C_4  and  C_7
REMARK    2  A    between atoms: C_7  and  S_8
REMARK    3  A    between atoms: S_8  and  C_9
REMARK                            x       y       z     vdW  Elec       q    Type
REMARK                         _______ _______ _______ _____ _____    ______ ____
ROOT
ATOM      1  C   UNL     1      -2.903   0.329  -0.189  0.00  0.00    +0.000 C 
ENDROOT
BRANCH   1   5
ATOM      2  C   UNL     1       1.363  -0.189   0.207  0.00  0.00    +0.000 A 
ATOM      3  C   UNL     1       0.796  -0.019  -1.055  0.00  0.00    +0.000 A 
ATOM      4  C   UNL     1      -0.584   0.150  -1.184  0.00  0.00    +0.000 A 
ATOM      5  C   UNL     1      -1.409   0.157  -0.050  0.00  0.00    +0.000 A 
ATOM      6  C   UNL     1      -0.827  -0.024   1.214  0.00  0.00    +0.000 A 
ATOM      7  C   UNL     1       0.552  -0.193   1.340  0.00  0.00    +0.000 A 
ENDBRANCH   1   5
BRANCH   1   8
ATOM      8  S   UNL     1      -3.736  -1.270  -0.396  0.00  0.00    +0.000 S 
BRANCH   8   9
ATOM      9  C   UNL     1      -5.443  -0.856  -0.515  0.00  0.00    +0.000 A 
ATOM     10  C   UNL     1      -6.447  -1.799  -0.653  0.00  0.00    +0.000 A 
ATOM     11  C   UNL     1      -7.747  -1.214  -0.729  0.00  0.00    +0.000 A 
ATOM     12  C   UNL     1      -7.672   0.151  -0.645  0.00  0.00    +0.000 A 
ATOM     13  S   UNL     1      -6.093   0.730  -0.480  0.00  0.00    +0.000 S 
ATOM     14 CL   UNL     1      -8.986   1.254  -0.692  0.00  0.00    +0.000 Cl
ENDBRANCH   8   9
ENDBRANCH   1   8
TORSDOF 3
