REMARK  Name = *****
REMARK  4 active torsions:
REMARK  status: ('A' for Active; 'I' for Inactive)
REMARK    1  A    between atoms: C_1  and  O_2
REMARK    2  A    between atoms: O_2  and  C_3
REMARK    3  A    between atoms: C_6  and  C_9
REMARK    4  A    between atoms: C_10  and  C_11
REMARK                            x       y       z     vdW  Elec       q    Type
REMARK                         _______ _______ _______ _____ _____    ______ ____
ROOT
ATOM      1  C   UNL     1       4.688  -0.930  -5.237  0.00  0.00    +0.000 C 
ATOM      2  C   UNL     1       5.117  -1.208  -6.325  0.00  0.00    +0.000 C 
ENDROOT
BRANCH   2   3
ATOM      3  C   UNL     1       5.597  -1.563  -7.628  0.00  0.00    +0.000 A 
ATOM      4  C   UNL     1       5.982  -0.540  -8.503  0.00  0.00    +0.000 A 
ATOM      5  C   UNL     1       6.439  -0.842  -9.787  0.00  0.00    +0.000 A 
ATOM      6  C   UNL     1       6.516  -2.169 -10.206  0.00  0.00    +0.000 A 
ATOM      7  C   UNL     1       6.137  -3.196  -9.340  0.00  0.00    +0.000 A 
ATOM      8  C   UNL     1       5.679  -2.897  -8.053  0.00  0.00    +0.000 A 
ATOM      9 CL   UNL     1       5.225  -4.216  -7.031  0.00  0.00    +0.000 Cl
ENDBRANCH   2   3
BRANCH   1  13
ATOM     10  C   UNL     1       3.013  -0.124  -1.434  0.00  0.00    +0.000 A 
ATOM     11  C   UNL     1       2.458   0.445  -2.581  0.00  0.00    +0.000 A 
ATOM     12  C   UNL     1       3.022   0.188  -3.836  0.00  0.00    +0.000 A 
ATOM     13  C   UNL     1       4.144  -0.636  -3.949  0.00  0.00    +0.000 A 
ATOM     14  C   UNL     1       4.713  -1.189  -2.803  0.00  0.00    +0.000 A 
ATOM     15  C   UNL     1       4.151  -0.928  -1.551  0.00  0.00    +0.000 A 
BRANCH  10  17
ATOM     16  C   UNL     1       1.248   0.591  -0.021  0.00  0.00    +0.000 C 
ATOM     17  O   UNL     1       2.549   0.034  -0.158  0.00  0.00    +0.000 OA
ENDBRANCH  10  17
ENDBRANCH   1  13
TORSDOF 3
