REMARK  Name = *****
REMARK  5 active torsions:
REMARK  status: ('A' for Active; 'I' for Inactive)
REMARK    1  A    between atoms: C_1  and  N_2
REMARK    2  A    between atoms: N_2  and  C_3
REMARK    3  A    between atoms: N_2  and  C_10
REMARK    4  A    between atoms: C_3  and  C_4
REMARK    5  A    between atoms: C_10  and  C_12
REMARK                            x       y       z     vdW  Elec       q    Type
REMARK                         _______ _______ _______ _____ _____    ______ ____
ROOT
ATOM      1  C   UNL     1       0.993  -0.071  -0.239  0.00  0.00    +0.000 C 
ATOM      2  N   UNL     1       2.408   0.153   0.064  0.00  0.00    +0.000 N 
ENDROOT
BRANCH   2   3
ATOM      3  C   UNL     1       2.974  -0.262   1.288  0.00  0.00    +0.000 C 
ATOM      4  S   UNL     1       2.155  -1.137   2.482  0.00  0.00    +0.000 S 
BRANCH   3   5
ATOM      5  C   UNL     1       4.387   0.121   1.552  0.00  0.00    +0.000 A 
ATOM      6  C   UNL     1       4.675   1.424   1.974  0.00  0.00    +0.000 A 
ATOM      7  C   UNL     1       5.997   1.788   2.229  0.00  0.00    +0.000 A 
ATOM      8  C   UNL     1       7.022   0.854   2.068  0.00  0.00    +0.000 A 
ATOM      9  C   UNL     1       6.730  -0.449   1.658  0.00  0.00    +0.000 A 
ATOM     10  C   UNL     1       5.410  -0.821   1.403  0.00  0.00    +0.000 A 
ENDBRANCH   3   5
ENDBRANCH   2   3
BRANCH   2  11
ATOM     11  C   UNL     1       3.225   0.677  -1.047  0.00  0.00    +0.000 C 
BRANCH  11  12
ATOM     12  C   UNL     1       4.078  -0.356  -1.750  0.00  0.00    +0.000 A 
ATOM     13  C   UNL     1       3.550  -1.577  -2.194  0.00  0.00    +0.000 A 
ATOM     14  C   UNL     1       4.356  -2.502  -2.862  0.00  0.00    +0.000 A 
ATOM     15  C   UNL     1       5.696  -2.215  -3.106  0.00  0.00    +0.000 A 
ATOM     16  C   UNL     1       6.232  -1.001  -2.686  0.00  0.00    +0.000 A 
ATOM     17  C   UNL     1       5.427  -0.076  -2.019  0.00  0.00    +0.000 A 
ENDBRANCH  11  12
ENDBRANCH   2  11
TORSDOF 4
