REMARK  Name = *****
REMARK  6 active torsions:
REMARK  status: ('A' for Active; 'I' for Inactive)
REMARK    1  A    between atoms: C_1  and  O_2
REMARK    2  A    between atoms: O_2  and  C_3
REMARK    3  A    between atoms: C_3  and  C_4
REMARK    4  A    between atoms: C_3  and  C_12
REMARK    5  A    between atoms: C_4  and  S_5
REMARK    6  A    between atoms: S_5  and  C_6
REMARK                            x       y       z     vdW  Elec       q    Type
REMARK                         _______ _______ _______ _____ _____    ______ ____
ROOT
ATOM      1  C   UNL     1       2.938   0.452   1.303  0.00  0.00    +0.000 C 
ENDROOT
BRANCH   1   2
ATOM      2  C   UNL     1       4.452   0.561   1.230  0.00  0.00    +0.000 A 
ATOM      3  C   UNL     1       5.082   1.799   1.437  0.00  0.00    +0.000 A 
ATOM      4  C   UNL     1       6.474   1.906   1.392  0.00  0.00    +0.000 A 
ATOM      5  C   UNL     1       7.254   0.779   1.140  0.00  0.00    +0.000 A 
ATOM      6  C   UNL     1       6.644  -0.456   0.933  0.00  0.00    +0.000 A 
ATOM      7  C   UNL     1       5.253  -0.565   0.979  0.00  0.00    +0.000 A 
ENDBRANCH   1   2
BRANCH   1   9
ATOM      8  C   UNL     1       1.286   0.036  -0.364  0.00  0.00    +0.000 C 
ATOM      9  O   UNL     1       2.507  -0.397   0.221  0.00  0.00    +0.000 OA
ENDBRANCH   1   9
BRANCH   1  10
ATOM     10  C   UNL     1       2.453  -0.155   2.634  0.00  0.00    +0.000 C 
BRANCH  10  11
ATOM     11  S   UNL     1       2.569   1.027   4.030  0.00  0.00    +0.000 S 
BRANCH  11  12
ATOM     12  C   UNL     1       1.835   0.044   5.324  0.00  0.00    +0.000 A 
ATOM     13  C   UNL     1       2.379  -1.187   5.705  0.00  0.00    +0.000 A 
ATOM     14  C   UNL     1       1.790  -1.932   6.729  0.00  0.00    +0.000 A 
ATOM     15  C   UNL     1       0.659  -1.447   7.383  0.00  0.00    +0.000 A 
ATOM     16  C   UNL     1       0.120  -0.214   7.019  0.00  0.00    +0.000 A 
ATOM     17  C   UNL     1       0.710   0.531   5.995  0.00  0.00    +0.000 A 
ENDBRANCH  11  12
ENDBRANCH  10  11
ENDBRANCH   1  10
TORSDOF 5
