REMARK  Name = *****
REMARK  3 active torsions:
REMARK  status: ('A' for Active; 'I' for Inactive)
REMARK    1  A    between atoms: C_3  and  C_8
REMARK    2  A    between atoms: C_9  and  C_10
REMARK    3  A    between atoms: C_13  and  C_16
REMARK                            x       y       z     vdW  Elec       q    Type
REMARK                         _______ _______ _______ _____ _____    ______ ____
ROOT
ATOM      1  C   UNL     1      -1.307  -2.668  -0.234  0.00  0.00    +0.000 C 
ATOM      2  C   UNL     1      -1.821  -3.746  -0.368  0.00  0.00    +0.000 C 
ENDROOT
BRANCH   1   5
ATOM      3  C   UNL     1      -0.844   1.022   0.070  0.00  0.00    +0.000 A 
ATOM      4  C   UNL     1      -1.457  -0.229  -0.038  0.00  0.00    +0.000 A 
ATOM      5  C   UNL     1      -0.680  -1.390  -0.103  0.00  0.00    +0.000 A 
ATOM      6  C   UNL     1       0.712  -1.300  -0.055  0.00  0.00    +0.000 A 
ATOM      7  C   UNL     1       1.310  -0.050   0.053  0.00  0.00    +0.000 A 
ATOM      8  C   UNL     1       0.546   1.111   0.115  0.00  0.00    +0.000 A 
ATOM      9  F   UNL     1       2.646   0.039   0.096  0.00  0.00    +0.000 F 
ENDBRANCH   1   5
BRANCH   2  10
ATOM     10  C   UNL     1      -2.417  -5.032  -0.559  0.00  0.00    +0.000 A 
ATOM     11  C   UNL     1      -1.736  -6.184  -0.158  0.00  0.00    +0.000 A 
ATOM     12  C   UNL     1      -2.305  -7.443  -0.371  0.00  0.00    +0.000 A 
ATOM     13  C   UNL     1      -3.556  -7.544  -0.985  0.00  0.00    +0.000 A 
ATOM     14  C   UNL     1      -4.245  -6.394  -1.382  0.00  0.00    +0.000 A 
ATOM     15  C   UNL     1      -3.672  -5.137  -1.167  0.00  0.00    +0.000 A 
BRANCH  13  16
ATOM     16  C   UNL     1      -4.160  -8.870  -1.228  0.00  0.00    +0.000 C 
ATOM     17  O   UNL     1      -3.599  -9.909  -0.905  0.00  0.00    +0.000 OA
ENDBRANCH  13  16
ENDBRANCH   2  10
TORSDOF 3
