REMARK  Name = *****
REMARK  5 active torsions:
REMARK  status: ('A' for Active; 'I' for Inactive)
REMARK    1  A    between atoms: C_1  and  C_2
REMARK    2  A    between atoms: C_7  and  C_8
REMARK    3  A    between atoms: C_8  and  O_10
REMARK    4  A    between atoms: O_10  and  C_11
REMARK    5  A    between atoms: C_11  and  C_12
REMARK                            x       y       z     vdW  Elec       q    Type
REMARK                         _______ _______ _______ _____ _____    ______ ____
ROOT
ATOM      1  C   UNL     1       1.040  -2.425   0.387  0.00  0.00    +0.000 C 
ATOM      2  O   UNL     1       0.589  -3.227   1.188  0.00  0.00    +0.000 OA
ENDROOT
BRANCH   1   9
ATOM      3  C   UNL     1      -1.871  -1.918   0.949  0.00  0.00    +0.000 C 
ATOM      4  C   UNL     1      -0.986  -0.900   0.282  0.00  0.00    +0.000 A 
ATOM      5  C   UNL     1      -1.551   0.339  -0.075  0.00  0.00    +0.000 A 
ATOM      6  C   UNL     1      -0.787   1.325  -0.699  0.00  0.00    +0.000 A 
ATOM      7  C   UNL     1       0.555   1.093  -0.974  0.00  0.00    +0.000 A 
ATOM      8  C   UNL     1       1.136  -0.126  -0.621  0.00  0.00    +0.000 A 
ATOM      9  C   UNL     1       0.380  -1.134   0.007  0.00  0.00    +0.000 A 
ENDBRANCH   1   9
BRANCH   1  10
ATOM     10  O   UNL     1       2.198  -2.573  -0.305  0.00  0.00    +0.000 OA
BRANCH  10  11
ATOM     11  C   UNL     1       2.911  -3.796  -0.087  0.00  0.00    +0.000 C 
BRANCH  11  12
ATOM     12  C   UNL     1       2.693  -4.708  -1.265  0.00  0.00    +0.000 A 
ATOM     13  C   UNL     1       3.544  -4.655  -2.378  0.00  0.00    +0.000 A 
ATOM     14  C   UNL     1       3.325  -5.489  -3.476  0.00  0.00    +0.000 A 
ATOM     15  C   UNL     1       2.250  -6.376  -3.475  0.00  0.00    +0.000 A 
ATOM     16  C   UNL     1       1.390  -6.427  -2.380  0.00  0.00    +0.000 A 
ATOM     17  C   UNL     1       1.608  -5.595  -1.281  0.00  0.00    +0.000 A 
ENDBRANCH  11  12
ENDBRANCH  10  11
ENDBRANCH   1  10
TORSDOF 4
