REMARK  Name = *****
REMARK  6 active torsions:
REMARK  status: ('A' for Active; 'I' for Inactive)
REMARK    1  A    between atoms: C_1  and  C_2
REMARK    2  A    between atoms: C_4  and  O_8
REMARK    3  A    between atoms: O_8  and  P_9
REMARK    4  A    between atoms: P_9  and  O_10
REMARK    5  A    between atoms: O_10  and  C_11
REMARK    6  A    between atoms: C_15  and  C_17
REMARK                            x       y       z     vdW  Elec       q    Type
REMARK                         _______ _______ _______ _____ _____    ______ ____
ROOT
ATOM      1  P   UNL     1      -0.874   4.019  -0.264  0.00  0.00    +0.000 P 
ATOM      2  F   UNL     1      -2.286   4.605  -0.643  0.00  0.00    +0.000 F 
ENDROOT
BRANCH   1   3
ATOM      3  O   UNL     1      -1.295   2.532   0.212  0.00  0.00    +0.000 OA
BRANCH   3   7
ATOM      4  C   UNL     1      -3.603   3.512   4.506  0.00  0.00    +0.000 C 
ATOM      5  C   UNL     1      -2.837   2.600   3.593  0.00  0.00    +0.000 A 
ATOM      6  C   UNL     1      -2.421   3.049   2.331  0.00  0.00    +0.000 A 
ATOM      7  C   UNL     1      -1.735   2.192   1.465  0.00  0.00    +0.000 A 
ATOM      8  C   UNL     1      -1.498   0.869   1.847  0.00  0.00    +0.000 A 
ATOM      9  C   UNL     1      -1.922   0.410   3.094  0.00  0.00    +0.000 A 
ATOM     10  C   UNL     1      -2.591   1.272   3.963  0.00  0.00    +0.000 A 
ENDBRANCH   3   7
ENDBRANCH   1   3
BRANCH   1  11
ATOM     11  O   UNL     1      -0.319   3.642  -1.733  0.00  0.00    +0.000 OA
BRANCH  11  12
ATOM     12  C   UNL     1       0.930   3.168  -2.045  0.00  0.00    +0.000 A 
ATOM     13  C   UNL     1       1.124   2.858  -3.394  0.00  0.00    +0.000 A 
ATOM     14  C   UNL     1       2.355   2.378  -3.839  0.00  0.00    +0.000 A 
ATOM     15  C   UNL     1       3.401   2.201  -2.936  0.00  0.00    +0.000 A 
ATOM     16  C   UNL     1       3.220   2.492  -1.579  0.00  0.00    +0.000 A 
ATOM     17  C   UNL     1       1.982   2.989  -1.141  0.00  0.00    +0.000 A 
ATOM     18  C   UNL     1       4.358   2.335  -0.612  0.00  0.00    +0.000 C 
ENDBRANCH  11  12
ENDBRANCH   1  11
TORSDOF 4
