REMARK  Name = *****
REMARK  6 active torsions:
REMARK  status: ('A' for Active; 'I' for Inactive)
REMARK    1  A    between atoms: C_1  and  C_2
REMARK    2  A    between atoms: C_4  and  C_19
REMARK    3  A    between atoms: C_6  and  C_8
REMARK    4  A    between atoms: C_8  and  O_9
REMARK    5  A    between atoms: O_9  and  C_10
REMARK    6  A    between atoms: C_10  and  C_12
REMARK                            x       y       z     vdW  Elec       q    Type
REMARK                         _______ _______ _______ _____ _____    ______ ____
ROOT
ATOM      1  O   UNL     1      -3.539   0.686   0.953  0.00  0.00    +0.000 OA
ENDROOT
BRANCH   1   2
ATOM      2  C   UNL     1      -3.478   1.565   1.980  0.00  0.00    +0.000 C 
ATOM      3  O   UNL     1      -2.831   2.600   2.011  0.00  0.00    +0.000 OA
BRANCH   2   4
ATOM      4  C   UNL     1      -4.339   1.106   3.106  0.00  0.00    +0.000 A 
ATOM      5  C   UNL     1      -5.093  -0.077   3.043  0.00  0.00    +0.000 A 
ATOM      6  C   UNL     1      -5.891  -0.458   4.125  0.00  0.00    +0.000 A 
ATOM      7  C   UNL     1      -5.934   0.339   5.263  0.00  0.00    +0.000 A 
ATOM      8  C   UNL     1      -5.192   1.512   5.343  0.00  0.00    +0.000 A 
ATOM      9  C   UNL     1      -4.394   1.897   4.264  0.00  0.00    +0.000 A 
ATOM     10  F   UNL     1      -6.701  -0.029   6.297  0.00  0.00    +0.000 F 
ENDBRANCH   2   4
ENDBRANCH   1   2
BRANCH   1  11
ATOM     11  C   UNL     1      -2.722   1.002  -0.182  0.00  0.00    +0.000 C 
BRANCH  11  17
ATOM     12  C   UNL     1       2.290   1.147   0.271  0.00  0.00    +0.000 C 
ATOM     13  C   UNL     1       1.026   0.350   0.136  0.00  0.00    +0.000 A 
ATOM     14  C   UNL     1       1.056  -1.050   0.115  0.00  0.00    +0.000 A 
ATOM     15  C   UNL     1      -0.126  -1.791  -0.007  0.00  0.00    +0.000 A 
ATOM     16  C   UNL     1      -1.349  -1.115  -0.100  0.00  0.00    +0.000 A 
ATOM     17  C   UNL     1      -1.400   0.286  -0.080  0.00  0.00    +0.000 A 
ATOM     18  C   UNL     1      -0.207   1.009   0.045  0.00  0.00    +0.000 A 
ATOM     19  C   UNL     1      -0.098  -3.291  -0.006  0.00  0.00    +0.000 C 
ENDBRANCH  11  17
ENDBRANCH   1  11
TORSDOF 4
