REMARK  Name = *****
REMARK  3 active torsions:
REMARK  status: ('A' for Active; 'I' for Inactive)
REMARK    1  A    between atoms: C_2  and  C_12
REMARK    2  A    between atoms: C_3  and  S_5
REMARK    3  A    between atoms: S_5  and  C_6
REMARK                            x       y       z     vdW  Elec       q    Type
REMARK                         _______ _______ _______ _____ _____    ______ ____
ROOT
ATOM      1  C   UNL     1      -0.696   0.455   0.454  0.00  0.00    +0.000 C 
ATOM      2  C   UNL     1       0.514  -0.383   0.114  0.00  0.00    +0.000 C 
ATOM      3  C   UNL     1      -0.888  -0.940  -0.061  0.00  0.00    +0.000 C 
ATOM      4  F   UNL     1      -1.303  -1.867   0.893  0.00  0.00    +0.000 F 
ENDROOT
BRANCH   2   5
ATOM      5  C   UNL     1       1.419  -0.871   1.221  0.00  0.00    +0.000 A 
ATOM      6  C   UNL     1       1.683  -2.238   1.409  0.00  0.00    +0.000 A 
ATOM      7  C   UNL     1       2.537  -2.684   2.421  0.00  0.00    +0.000 A 
ATOM      8  C   UNL     1       3.155  -1.767   3.265  0.00  0.00    +0.000 A 
ATOM      9  C   UNL     1       2.922  -0.406   3.094  0.00  0.00    +0.000 A 
ATOM     10  C   UNL     1       2.065   0.034   2.081  0.00  0.00    +0.000 A 
ENDBRANCH   2   5
BRANCH   3  11
ATOM     11  S   UNL     1      -1.501  -1.224  -1.667  0.00  0.00    +0.000 S 
BRANCH  11  12
ATOM     12  C   UNL     1      -3.217  -0.834  -1.380  0.00  0.00    +0.000 A 
ATOM     13  C   UNL     1      -3.774   0.308  -1.965  0.00  0.00    +0.000 A 
ATOM     14  C   UNL     1      -5.119   0.622  -1.757  0.00  0.00    +0.000 A 
ATOM     15  C   UNL     1      -5.915  -0.208  -0.969  0.00  0.00    +0.000 A 
ATOM     16  C   UNL     1      -5.369  -1.353  -0.391  0.00  0.00    +0.000 A 
ATOM     17  C   UNL     1      -4.024  -1.667  -0.599  0.00  0.00    +0.000 A 
ENDBRANCH  11  12
ENDBRANCH   3  11
TORSDOF 3
