REMARK  Name = *****
REMARK  3 active torsions:
REMARK  status: ('A' for Active; 'I' for Inactive)
REMARK    1  A    between atoms: C_4  and  C_7
REMARK    2  A    between atoms: C_8  and  C_9
REMARK    3  A    between atoms: C_12  and  C_14
REMARK                            x       y       z     vdW  Elec       q    Type
REMARK                         _______ _______ _______ _____ _____    ______ ____
ROOT
ATOM      1  C   UNL     1      -2.818   0.490  -0.468  0.00  0.00    +0.000 C 
ATOM      2  C   UNL     1      -3.802  -0.395  -0.240  0.00  0.00    +0.000 C 
ENDROOT
BRANCH   1   6
ATOM      3  C   UNL     1       1.328  -0.264   0.258  0.00  0.00    +0.000 A 
ATOM      4  C   UNL     1       0.548  -1.245  -0.350  0.00  0.00    +0.000 A 
ATOM      5  C   UNL     1      -0.810  -1.014  -0.587  0.00  0.00    +0.000 A 
ATOM      6  C   UNL     1      -1.401   0.198  -0.208  0.00  0.00    +0.000 A 
ATOM      7  C   UNL     1      -0.603   1.183   0.388  0.00  0.00    +0.000 A 
ATOM      8  C   UNL     1       0.754   0.951   0.626  0.00  0.00    +0.000 A 
ENDBRANCH   1   6
BRANCH   2   9
ATOM      9  C   UNL     1      -5.176  -0.096  -0.489  0.00  0.00    +0.000 A 
ATOM     10  C   UNL     1      -5.782   1.014  -1.056  0.00  0.00    +0.000 A 
ATOM     11  C   UNL     1      -7.203   0.909  -1.119  0.00  0.00    +0.000 A 
ATOM     12  C   UNL     1      -7.656  -0.281  -0.599  0.00  0.00    +0.000 A 
ATOM     13  S   UNL     1      -6.375  -1.258  -0.047  0.00  0.00    +0.000 S 
BRANCH  12  14
ATOM     14  C   UNL     1      -9.019  -0.747  -0.487  0.00  0.00    +0.000 C 
ATOM     15  O   UNL     1     -10.005  -0.115  -0.859  0.00  0.00    +0.000 OA
ENDBRANCH  12  14
ENDBRANCH   2   9
TORSDOF 3
