REMARK  Name = *****
REMARK  4 active torsions:
REMARK  status: ('A' for Active; 'I' for Inactive)
REMARK    1  A    between atoms: C_4  and  C_7
REMARK    2  A    between atoms: C_7  and  C_8
REMARK    3  A    between atoms: C_8  and  S_16
REMARK    4  A    between atoms: C_9  and  C_10
REMARK                            x       y       z     vdW  Elec       q    Type
REMARK                         _______ _______ _______ _____ _____    ______ ____
ROOT
ATOM      1  C   UNL     1      -3.234  -0.925  -0.218  0.00  0.00    +0.000 C 
ATOM      2  C   UNL     1      -2.878  -2.196  -0.493  0.00  0.00    +0.000 C 
ENDROOT
BRANCH   2   3
ATOM      3  C   UNL     1      -3.751  -3.375  -0.556  0.00  0.00    +0.000 A 
ATOM      4  C   UNL     1      -4.670  -3.535  -1.599  0.00  0.00    +0.000 A 
ATOM      5  C   UNL     1      -5.475  -4.673  -1.659  0.00  0.00    +0.000 A 
ATOM      6  C   UNL     1      -5.363  -5.660  -0.680  0.00  0.00    +0.000 A 
ATOM      7  C   UNL     1      -4.445  -5.509   0.359  0.00  0.00    +0.000 A 
ATOM      8  C   UNL     1      -3.639  -4.371   0.420  0.00  0.00    +0.000 A 
ENDBRANCH   2   3
BRANCH   1   9
ATOM      9  S   UNL     1      -4.881  -0.491   0.189  0.00  0.00    +0.000 S 
ATOM     10  H   UNL     1      -4.955   0.848   0.416  0.00  0.00    +0.000 HD
ENDBRANCH   1   9
BRANCH   1  11
ATOM     11  C   UNL     1      -2.187   0.175  -0.184  0.00  0.00    +0.000 C 
BRANCH  11  15
ATOM     12  C   UNL     1      -2.606   3.133  -3.306  0.00  0.00    +0.000 A 
ATOM     13  C   UNL     1      -2.338   1.806  -3.635  0.00  0.00    +0.000 A 
ATOM     14  C   UNL     1      -2.203   0.849  -2.628  0.00  0.00    +0.000 A 
ATOM     15  C   UNL     1      -2.338   1.210  -1.280  0.00  0.00    +0.000 A 
ATOM     16  C   UNL     1      -2.601   2.550  -0.960  0.00  0.00    +0.000 A 
ATOM     17  C   UNL     1      -2.736   3.506  -1.969  0.00  0.00    +0.000 A 
ENDBRANCH  11  15
ENDBRANCH   1  11
TORSDOF 4
