REMARK  Name = *****
REMARK  3 active torsions:
REMARK  status: ('A' for Active; 'I' for Inactive)
REMARK    1  A    between atoms: C_4  and  C_7
REMARK    2  A    between atoms: C_7  and  C_8
REMARK    3  A    between atoms: C_8  and  C_9
REMARK                            x       y       z     vdW  Elec       q    Type
REMARK                         _______ _______ _______ _____ _____    ______ ____
ROOT
ATOM      1  C   UNL     1      -2.830   0.629   0.039  0.00  0.00    +0.000 C 
ATOM      2 BR   UNL     1      -4.183  -0.771   0.338  0.00  0.00    +0.000 Br
ENDROOT
BRANCH   1   6
ATOM      3  C   UNL     1       1.116  -1.104   0.421  0.00  0.00    +0.000 A 
ATOM      4  C   UNL     1       0.671  -0.150   1.333  0.00  0.00    +0.000 A 
ATOM      5  C   UNL     1      -0.607   0.398   1.205  0.00  0.00    +0.000 A 
ATOM      6  C   UNL     1      -1.459  -0.001   0.163  0.00  0.00    +0.000 A 
ATOM      7  C   UNL     1      -0.994  -0.964  -0.748  0.00  0.00    +0.000 A 
ATOM      8  C   UNL     1       0.284  -1.511  -0.618  0.00  0.00    +0.000 A 
ENDBRANCH   1   6
BRANCH   1   9
ATOM      9  C   UNL     1      -3.119   1.319  -1.302  0.00  0.00    +0.000 C 
BRANCH   9  10
ATOM     10  C   UNL     1      -2.308   2.583  -1.493  0.00  0.00    +0.000 A 
ATOM     11  C   UNL     1      -1.114   2.557  -2.229  0.00  0.00    +0.000 A 
ATOM     12  C   UNL     1      -0.358   3.719  -2.386  0.00  0.00    +0.000 A 
ATOM     13  C   UNL     1      -0.793   4.904  -1.807  0.00  0.00    +0.000 A 
ATOM     14  C   UNL     1      -1.971   4.950  -1.071  0.00  0.00    +0.000 A 
ATOM     15  C   UNL     1      -2.730   3.790  -0.913  0.00  0.00    +0.000 A 
ATOM     16  F   UNL     1      -0.065   6.019  -1.957  0.00  0.00    +0.000 F 
ENDBRANCH   9  10
ENDBRANCH   1   9
TORSDOF 3
