REMARK  Name = *****
REMARK  6 active torsions:
REMARK  status: ('A' for Active; 'I' for Inactive)
REMARK    1  A    between atoms: C_1  and  C_2
REMARK    2  A    between atoms: C_4  and  C_18
REMARK    3  A    between atoms: C_5  and  N_9
REMARK    4  A    between atoms: C_6  and  C_8
REMARK    5  A    between atoms: N_9  and  N_10
REMARK    6  A    between atoms: N_10  and  C_12
REMARK                            x       y       z     vdW  Elec       q    Type
REMARK                         _______ _______ _______ _____ _____    ______ ____
ROOT
ATOM      1  N   UNL     1      -1.413  -2.286  -0.663  0.00  0.00    +0.000 N 
ATOM      2  H   UNL     1      -1.963  -2.225  -1.477  0.00  0.00    +0.000 HD
ENDROOT
BRANCH   1   7
ATOM      3  C   UNL     1       1.783   2.267   0.769  0.00  0.00    +0.000 C 
ATOM      4  C   UNL     1       0.961   1.086   0.347  0.00  0.00    +0.000 A 
ATOM      5  C   UNL     1       1.554  -0.167   0.179  0.00  0.00    +0.000 A 
ATOM      6  C   UNL     1       0.795  -1.293  -0.193  0.00  0.00    +0.000 A 
ATOM      7  C   UNL     1      -0.600  -1.171  -0.366  0.00  0.00    +0.000 A 
ATOM      8  C   UNL     1      -1.207   0.094  -0.170  0.00  0.00    +0.000 A 
ATOM      9  C   UNL     1      -0.419   1.205   0.178  0.00  0.00    +0.000 A 
ATOM     10  C   UNL     1      -2.694   0.287  -0.307  0.00  0.00    +0.000 C 
ATOM     11  C   UNL     1       1.532  -2.592  -0.389  0.00  0.00    +0.000 C 
ENDBRANCH   1   7
BRANCH   1  12
ATOM     12  N   UNL     1      -1.520  -3.489   0.092  0.00  0.00    +0.000 N 
ATOM     13  O   UNL     1      -0.839  -3.691   1.078  0.00  0.00    +0.000 OA
BRANCH  12  14
ATOM     14  C   UNL     1      -2.527  -4.471  -0.263  0.00  0.00    +0.000 A 
ATOM     15  C   UNL     1      -2.856  -4.684  -1.607  0.00  0.00    +0.000 A 
ATOM     16  C   UNL     1      -3.833  -5.625  -1.934  0.00  0.00    +0.000 A 
ATOM     17  C   UNL     1      -4.474  -6.349  -0.927  0.00  0.00    +0.000 A 
ATOM     18  C   UNL     1      -4.137  -6.141   0.411  0.00  0.00    +0.000 A 
ATOM     19  C   UNL     1      -3.161  -5.203   0.747  0.00  0.00    +0.000 A 
ENDBRANCH  12  14
ENDBRANCH   1  12
TORSDOF 3
