REMARK  Name = *****
REMARK  5 active torsions:
REMARK  status: ('A' for Active; 'I' for Inactive)
REMARK    1  A    between atoms: C_1  and  C_2
REMARK    2  A    between atoms: N_7  and  C_8
REMARK    3  A    between atoms: C_8  and  C_9
REMARK    4  A    between atoms: C_8  and  C_10
REMARK    5  A    between atoms: C_16  and  C_17
REMARK                            x       y       z     vdW  Elec       q    Type
REMARK                         _______ _______ _______ _____ _____    ______ ____
ROOT
ATOM      1  C   UNL     1       1.009   0.049   0.257  0.00  0.00    +0.000 C 
ATOM      2  C   UNL     1       2.535   0.009   0.099  0.00  0.00    +0.000 C 
ATOM      3  C   UNL     1       3.013   1.082  -0.900  0.00  0.00    +0.000 C 
ATOM      4  C   UNL     1       2.666   0.748  -2.353  0.00  0.00    +0.000 C 
ATOM      5  C   UNL     1       3.193  -0.625  -2.757  0.00  0.00    +0.000 C 
ATOM      6  C   UNL     1       2.688  -1.657  -1.767  0.00  0.00    +0.000 C 
ATOM      7  N   UNL     1       1.985  -2.698  -2.040  0.00  0.00    +0.000 NA
ATOM      8  C   UNL     1       3.074  -1.383  -0.308  0.00  0.00    +0.000 C 
ATOM      9  C   UNL     1       2.662  -2.494   0.655  0.00  0.00    +0.000 C 
ENDROOT
BRANCH   7  10
ATOM     10  C   UNL     1       1.533  -3.023  -3.394  0.00  0.00    +0.000 C 
ATOM     11  C   UNL     1       2.640  -3.789  -4.121  0.00  0.00    +0.000 C 
BRANCH  10  12
ATOM     12  C   UNL     1       0.266  -3.867  -3.366  0.00  0.00    +0.000 A 
ATOM     13  C   UNL     1      -0.686  -3.741  -4.391  0.00  0.00    +0.000 A 
ATOM     14  C   UNL     1      -1.841  -4.526  -4.392  0.00  0.00    +0.000 A 
ATOM     15  C   UNL     1      -2.058  -5.450  -3.372  0.00  0.00    +0.000 A 
ATOM     16  C   UNL     1      -1.120  -5.592  -2.352  0.00  0.00    +0.000 A 
ATOM     17  C   UNL     1       0.035  -4.808  -2.351  0.00  0.00    +0.000 A 
ENDBRANCH  10  12
ENDBRANCH   7  10
TORSDOF 2
