REMARK  Name = *****
REMARK  4 active torsions:
REMARK  status: ('A' for Active; 'I' for Inactive)
REMARK    1  A    between atoms: C_1  and  C_2
REMARK    2  A    between atoms: C_5  and  C_8
REMARK    3  A    between atoms: C_8  and  C_9
REMARK    4  A    between atoms: C_9  and  C_10
REMARK                            x       y       z     vdW  Elec       q    Type
REMARK                         _______ _______ _______ _____ _____    ______ ____
ROOT
ATOM      1  C   UNL     1      -3.092   0.097  -0.022  0.00  0.00    +0.000 C 
ENDROOT
BRANCH   1   6
ATOM      2  C   UNL     1       2.526   0.239   1.511  0.00  0.00    +0.000 C 
ATOM      3  C   UNL     1       1.079   0.201   1.119  0.00  0.00    +0.000 A 
ATOM      4  C   UNL     1       0.077   0.252   2.095  0.00  0.00    +0.000 A 
ATOM      5  C   UNL     1      -1.271   0.202   1.730  0.00  0.00    +0.000 A 
ATOM      6  C   UNL     1      -1.638   0.086   0.384  0.00  0.00    +0.000 A 
ATOM      7  C   UNL     1      -0.634   0.013  -0.589  0.00  0.00    +0.000 A 
ATOM      8  C   UNL     1       0.713   0.062  -0.224  0.00  0.00    +0.000 A 
ENDBRANCH   1   6
BRANCH   1   9
ATOM      9  C   UNL     1      -3.600   1.533  -0.205  0.00  0.00    +0.000 C 
BRANCH   9  10
ATOM     10  C   UNL     1      -4.993   1.703  -0.774  0.00  0.00    +0.000 A 
ATOM     11  C   UNL     1      -5.917   0.655  -0.892  0.00  0.00    +0.000 A 
ATOM     12  C   UNL     1      -7.189   0.887  -1.423  0.00  0.00    +0.000 A 
ATOM     13  C   UNL     1      -7.544   2.167  -1.829  0.00  0.00    +0.000 A 
ATOM     14  C   UNL     1      -6.653   3.223  -1.711  0.00  0.00    +0.000 A 
ATOM     15  C   UNL     1      -5.383   2.992  -1.182  0.00  0.00    +0.000 A 
ATOM     16  F   UNL     1      -8.763   2.385  -2.338  0.00  0.00    +0.000 F 
ENDBRANCH   9  10
ENDBRANCH   1   9
TORSDOF 3
