REMARK  Name = *****
REMARK  3 active torsions:
REMARK  status: ('A' for Active; 'I' for Inactive)
REMARK    1  A    between atoms: C_5  and  C_8
REMARK    2  A    between atoms: C_8  and  C_9
REMARK    3  A    between atoms: C_9  and  C_10
REMARK                            x       y       z     vdW  Elec       q    Type
REMARK                         _______ _______ _______ _____ _____    ______ ____
ROOT
ATOM      1  C   UNL     1      -1.557   0.734   0.071  0.00  0.00    +0.000 C 
ATOM      2  C   UNL     1      -0.329   1.547  -0.348  0.00  0.00    +0.000 C 
ATOM      3  C   UNL     1       0.970   1.284   0.425  0.00  0.00    +0.000 C 
ATOM      4  C   UNL     1       1.714  -0.009   0.077  0.00  0.00    +0.000 C 
ATOM      5  C   UNL     1       0.863  -1.174  -0.433  0.00  0.00    +0.000 C 
ATOM      6  O   UNL     1      -0.295  -1.348   0.378  0.00  0.00    +0.000 OA
ATOM      7  C   UNL     1      -1.466  -0.764  -0.179  0.00  0.00    +0.000 C 
ATOM      8 CL   UNL     1       0.715   1.413   2.198  0.00  0.00    +0.000 Cl
ENDROOT
BRANCH   5   9
ATOM      9  C   UNL     1       1.676  -2.477  -0.397  0.00  0.00    +0.000 C 
BRANCH   9  10
ATOM     10  C   UNL     1       0.890  -3.656  -0.981  0.00  0.00    +0.000 C 
BRANCH  10  11
ATOM     11  C   UNL     1       1.717  -4.918  -1.002  0.00  0.00    +0.000 A 
ATOM     12  C   UNL     1       1.783  -5.739   0.132  0.00  0.00    +0.000 A 
ATOM     13  C   UNL     1       2.561  -6.897   0.122  0.00  0.00    +0.000 A 
ATOM     14  C   UNL     1       3.284  -7.243  -1.018  0.00  0.00    +0.000 A 
ATOM     15  C   UNL     1       3.230  -6.430  -2.149  0.00  0.00    +0.000 A 
ATOM     16  C   UNL     1       2.453  -5.271  -2.141  0.00  0.00    +0.000 A 
ENDBRANCH  10  11
ENDBRANCH   9  10
ENDBRANCH   5   9
TORSDOF 3
