REMARK  Name = *****
REMARK  5 active torsions:
REMARK  status: ('A' for Active; 'I' for Inactive)
REMARK    1  A    between atoms: C_1  and  C_2
REMARK    2  A    between atoms: C_4  and  C_19
REMARK    3  A    between atoms: C_6  and  O_8
REMARK    4  A    between atoms: O_8  and  C_9
REMARK    5  A    between atoms: C_9  and  C_11
REMARK                            x       y       z     vdW  Elec       q    Type
REMARK                         _______ _______ _______ _____ _____    ______ ____
ROOT
ATOM      1  C   UNL     1      -0.989  -3.226   1.971  0.00  0.00    +0.000 C 
ATOM      2  O   UNL     1      -0.676  -2.538   2.931  0.00  0.00    +0.000 OA
ENDROOT
BRANCH   1   3
ATOM      3  C   UNL     1      -1.372  -4.647   2.114  0.00  0.00    +0.000 A 
ATOM      4  C   UNL     1      -2.187  -5.306   1.190  0.00  0.00    +0.000 A 
ATOM      5  C   UNL     1      -2.527  -6.647   1.369  0.00  0.00    +0.000 A 
ATOM      6  C   UNL     1      -2.057  -7.339   2.484  0.00  0.00    +0.000 A 
ATOM      7  C   UNL     1      -1.258  -6.678   3.412  0.00  0.00    +0.000 A 
ATOM      8  C   UNL     1      -0.913  -5.341   3.242  0.00  0.00    +0.000 A 
ATOM      9  F   UNL     1      -0.813  -7.341   4.486  0.00  0.00    +0.000 F 
ATOM     10  F   UNL     1      -2.690  -4.669   0.124  0.00  0.00    +0.000 F 
ENDBRANCH   1   3
BRANCH   1  11
ATOM     11  O   UNL     1      -0.974  -2.875   0.638  0.00  0.00    +0.000 OA
BRANCH  11  17
ATOM     12  C   UNL     1       2.511   0.582   0.171  0.00  0.00    +0.000 C 
ATOM     13  C   UNL     1       1.075   0.151   0.128  0.00  0.00    +0.000 A 
ATOM     14  C   UNL     1       0.061   1.082  -0.148  0.00  0.00    +0.000 A 
ATOM     15  C   UNL     1      -1.290   0.701  -0.156  0.00  0.00    +0.000 A 
ATOM     16  C   UNL     1      -1.624  -0.631   0.107  0.00  0.00    +0.000 A 
ATOM     17  C   UNL     1      -0.617  -1.543   0.416  0.00  0.00    +0.000 A 
ATOM     18  C   UNL     1       0.726  -1.172   0.419  0.00  0.00    +0.000 A 
ATOM     19  C   UNL     1      -2.359   1.695  -0.502  0.00  0.00    +0.000 C 
ENDBRANCH  11  17
ENDBRANCH   1  11
TORSDOF 3
