REMARK  Name = *****
REMARK  5 active torsions:
REMARK  status: ('A' for Active; 'I' for Inactive)
REMARK    1  A    between atoms: C_1  and  C_2
REMARK    2  A    between atoms: C_5  and  N_8
REMARK    3  A    between atoms: C_9  and  C_10
REMARK    4  A    between atoms: C_9  and  C_11
REMARK    5  A    between atoms: C_16  and  S_17
REMARK                            x       y       z     vdW  Elec       q    Type
REMARK                         _______ _______ _______ _____ _____    ______ ____
ROOT
ATOM      1  N   UNL     1      -3.234   0.297   0.490  0.00  0.00    +0.000 NA
ATOM      2  C   UNL     1      -3.892   1.187  -0.195  0.00  0.00    +0.000 C 
ATOM      3  C   UNL     1      -3.270   2.152  -1.184  0.00  0.00    +0.000 C 
ENDROOT
BRANCH   1   8
ATOM      4  C   UNL     1       2.454  -0.063   0.102  0.00  0.00    +0.000 C 
ATOM      5  C   UNL     1       0.961   0.055   0.179  0.00  0.00    +0.000 A 
ATOM      6  C   UNL     1       0.367   0.958   1.068  0.00  0.00    +0.000 A 
ATOM      7  C   UNL     1      -1.024   1.041   1.166  0.00  0.00    +0.000 A 
ATOM      8  C   UNL     1      -1.840   0.229   0.377  0.00  0.00    +0.000 A 
ATOM      9  C   UNL     1      -1.250  -0.697  -0.484  0.00  0.00    +0.000 A 
ATOM     10  C   UNL     1       0.141  -0.785  -0.585  0.00  0.00    +0.000 A 
ENDBRANCH   1   8
BRANCH   2  11
ATOM     11  C   UNL     1      -5.369   1.226  -0.050  0.00  0.00    +0.000 A 
ATOM     12  C   UNL     1      -6.060   0.052  -0.386  0.00  0.00    +0.000 A 
ATOM     13  C   UNL     1      -7.450   0.006  -0.295  0.00  0.00    +0.000 A 
ATOM     14  C   UNL     1      -8.151   1.126   0.143  0.00  0.00    +0.000 A 
ATOM     15  C   UNL     1      -7.464   2.291   0.498  0.00  0.00    +0.000 A 
ATOM     16  C   UNL     1      -6.065   2.358   0.405  0.00  0.00    +0.000 A 
BRANCH  16  17
ATOM     17  S   UNL     1      -5.260   3.856   0.956  0.00  0.00    +0.000 S 
ATOM     18  H   UNL     1      -3.916   3.736   0.790  0.00  0.00    +0.000 HD
ENDBRANCH  16  17
ENDBRANCH   2  11
TORSDOF 3
