REMARK  Name = *****
REMARK  4 active torsions:
REMARK  status: ('A' for Active; 'I' for Inactive)
REMARK    1  A    between atoms: C_4  and  O_7
REMARK    2  A    between atoms: O_7  and  C_8
REMARK    3  A    between atoms: C_8  and  C_10
REMARK    4  A    between atoms: C_12  and  C_17
REMARK                            x       y       z     vdW  Elec       q    Type
REMARK                         _______ _______ _______ _____ _____    ______ ____
ROOT
ATOM      1  C   UNL     1      -5.055  -0.433  -0.436  0.00  0.00    +0.000 A 
ATOM      2  C   UNL     1      -5.454   0.409  -1.489  0.00  0.00    +0.000 A 
ATOM      3  C   UNL     1      -6.816   0.680  -1.718  0.00  0.00    +0.000 A 
ATOM      4  C   UNL     1      -7.774   0.081  -0.889  0.00  0.00    +0.000 A 
ATOM      5  C   UNL     1      -7.372  -0.751   0.150  0.00  0.00    +0.000 A 
ATOM      6  C   UNL     1      -6.029  -1.011   0.386  0.00  0.00    +0.000 A 
ATOM      7  F   UNL     1      -8.300  -1.311   0.936  0.00  0.00    +0.000 F 
ENDROOT
BRANCH   3   8
ATOM      8  C   UNL     1      -7.242   1.567  -2.863  0.00  0.00    +0.000 C 
ATOM      9  F   UNL     1      -6.328   2.535  -3.150  0.00  0.00    +0.000 F 
ATOM     10  F   UNL     1      -7.424   0.867  -4.014  0.00  0.00    +0.000 F 
ATOM     11  F   UNL     1      -8.413   2.219  -2.626  0.00  0.00    +0.000 F 
ENDBRANCH   3   8
BRANCH   1  12
ATOM     12  C   UNL     1      -3.627  -0.745  -0.147  0.00  0.00    +0.000 C 
ATOM     13  O   UNL     1      -3.279  -1.448   0.788  0.00  0.00    +0.000 OA
BRANCH  12  14
ATOM     14  O   UNL     1      -2.819  -0.122  -1.080  0.00  0.00    +0.000 OA
BRANCH  14  18
ATOM     15  C   UNL     1       1.319  -0.634  -0.839  0.00  0.00    +0.000 A 
ATOM     16  C   UNL     1       0.499  -1.760  -0.940  0.00  0.00    +0.000 A 
ATOM     17  C   UNL     1      -0.886  -1.612  -1.008  0.00  0.00    +0.000 A 
ATOM     18  C   UNL     1      -1.438  -0.332  -0.955  0.00  0.00    +0.000 A 
ATOM     19  C   UNL     1      -0.627   0.799  -0.875  0.00  0.00    +0.000 A 
ATOM     20  C   UNL     1       0.758   0.644  -0.810  0.00  0.00    +0.000 A 
ENDBRANCH  14  18
ENDBRANCH  12  14
ENDBRANCH   1  12
TORSDOF 4
