REMARK  Name = *****
REMARK  4 active torsions:
REMARK  status: ('A' for Active; 'I' for Inactive)
REMARK    1  A    between atoms: C_1  and  N_2
REMARK    2  A    between atoms: N_2  and  C_3
REMARK    3  A    between atoms: N_2  and  C_9
REMARK    4  A    between atoms: C_9  and  C_11
REMARK                            x       y       z     vdW  Elec       q    Type
REMARK                         _______ _______ _______ _____ _____    ______ ____
ROOT
ATOM      1  C   UNL     1       3.257   1.071   0.782  0.00  0.00    +0.000 C 
ATOM      2  S   UNL     1       4.930   1.215   1.003  0.00  0.00    +0.000 S 
ENDROOT
BRANCH   1   3
ATOM      3  C   UNL     1       2.392   1.984   1.580  0.00  0.00    +0.000 A 
ATOM      4  C   UNL     1       1.744   1.486   2.717  0.00  0.00    +0.000 A 
ATOM      5  C   UNL     1       0.927   2.334   3.468  0.00  0.00    +0.000 A 
ATOM      6  C   UNL     1       0.767   3.666   3.080  0.00  0.00    +0.000 A 
ATOM      7  C   UNL     1       1.416   4.162   1.949  0.00  0.00    +0.000 A 
ATOM      8  C   UNL     1       2.234   3.320   1.193  0.00  0.00    +0.000 A 
ATOM      9 CL   UNL     1      -0.243   4.706   4.007  0.00  0.00    +0.000 Cl
ENDBRANCH   1   3
BRANCH   1  11
ATOM     10  C   UNL     1       1.227   0.529  -0.595  0.00  0.00    +0.000 C 
ATOM     11  N   UNL     1       2.590   0.219  -0.136  0.00  0.00    +0.000 N 
BRANCH  11  12
ATOM     12  C   UNL     1       3.234  -0.882  -0.802  0.00  0.00    +0.000 A 
ATOM     13  C   UNL     1       2.994  -1.142  -2.160  0.00  0.00    +0.000 A 
ATOM     14  C   UNL     1       3.588  -2.234  -2.801  0.00  0.00    +0.000 A 
ATOM     15  C   UNL     1       4.419  -3.094  -2.088  0.00  0.00    +0.000 A 
ATOM     16  C   UNL     1       4.651  -2.864  -0.735  0.00  0.00    +0.000 A 
ATOM     17  C   UNL     1       4.058  -1.770  -0.097  0.00  0.00    +0.000 A 
ENDBRANCH  11  12
ENDBRANCH   1  11
TORSDOF 3
