REMARK  Name = *****
REMARK  3 active torsions:
REMARK  status: ('A' for Active; 'I' for Inactive)
REMARK    1  A    between atoms: C_3  and  C_9
REMARK    2  A    between atoms: C_9  and  O_11
REMARK    3  A    between atoms: O_11  and  C_12
REMARK                            x       y       z     vdW  Elec       q    Type
REMARK                         _______ _______ _______ _____ _____    ______ ____
ROOT
ATOM      1  C   UNL     1      -2.042  -2.232  -0.632  0.00  0.00    +0.000 C 
ATOM      2  O   UNL     1      -3.209  -2.544  -0.441  0.00  0.00    +0.000 OA
ENDROOT
BRANCH   1   5
ATOM      3  C   UNL     1      -1.888   1.371   0.443  0.00  0.00    +0.000 A 
ATOM      4  C   UNL     1      -2.365   0.134   0.005  0.00  0.00    +0.000 A 
ATOM      5  C   UNL     1      -1.483  -0.945  -0.167  0.00  0.00    +0.000 A 
ATOM      6  C   UNL     1      -0.129  -0.781   0.125  0.00  0.00    +0.000 A 
ATOM      7  C   UNL     1       0.345   0.457   0.562  0.00  0.00    +0.000 A 
ATOM      8  C   UNL     1      -0.530   1.534   0.717  0.00  0.00    +0.000 A 
ATOM      9 CL   UNL     1       2.015   0.676   0.924  0.00  0.00    +0.000 Cl
ATOM     10  F   UNL     1       0.724  -1.812   0.019  0.00  0.00    +0.000 F 
ENDBRANCH   1   5
BRANCH   1  11
ATOM     11  O   UNL     1      -1.092  -2.924  -1.354  0.00  0.00    +0.000 OA
BRANCH  11  12
ATOM     12  C   UNL     1      -1.554  -4.144  -1.850  0.00  0.00    +0.000 A 
ATOM     13  C   UNL     1      -2.321  -4.178  -3.014  0.00  0.00    +0.000 A 
ATOM     14  C   UNL     1      -2.731  -5.411  -3.522  0.00  0.00    +0.000 A 
ATOM     15  C   UNL     1      -2.357  -6.589  -2.870  0.00  0.00    +0.000 A 
ATOM     16  C   UNL     1      -1.571  -6.546  -1.716  0.00  0.00    +0.000 A 
ATOM     17  C   UNL     1      -1.159  -5.315  -1.205  0.00  0.00    +0.000 A 
ATOM     18 CL   UNL     1      -2.862  -8.108  -3.501  0.00  0.00    +0.000 Cl
ENDBRANCH  11  12
ENDBRANCH   1  11
TORSDOF 3
