REMARK  Name = *****
REMARK  5 active torsions:
REMARK  status: ('A' for Active; 'I' for Inactive)
REMARK    1  A    between atoms: C_1  and  C_2
REMARK    2  A    between atoms: C_5  and  O_8
REMARK    3  A    between atoms: O_8  and  C_9
REMARK    4  A    between atoms: C_9  and  C_11
REMARK    5  A    between atoms: C_16  and  C_17
REMARK                            x       y       z     vdW  Elec       q    Type
REMARK                         _______ _______ _______ _____ _____    ______ ____
ROOT
ATOM      1  C   UNL     1      -2.863   1.020  -2.206  0.00  0.00    +0.000 C 
ATOM      2  O   UNL     1      -3.610   1.710  -1.521  0.00  0.00    +0.000 OA
ENDROOT
BRANCH   1   3
ATOM      3  C   UNL     1      -2.859   1.073  -3.725  0.00  0.00    +0.000 C 
ATOM      4  C   UNL     1      -1.807   2.080  -4.210  0.00  0.00    +0.000 C 
ATOM      5  C   UNL     1      -0.477   1.476  -4.552  0.00  0.00    +0.000 C 
ATOM      6  C   UNL     1      -0.262   0.157  -4.640  0.00  0.00    +0.000 C 
ATOM      7  C   UNL     1      -1.329  -0.875  -4.431  0.00  0.00    +0.000 C 
ATOM      8  C   UNL     1      -2.765  -0.312  -4.405  0.00  0.00    +0.000 C 
ATOM      9  C   UNL     1      -3.326  -0.238  -5.834  0.00  0.00    +0.000 C 
ENDBRANCH   1   3
BRANCH   1  10
ATOM     10  O   UNL     1      -1.917   0.184  -1.712  0.00  0.00    +0.000 OA
BRANCH  10  15
ATOM     11  C   UNL     1       2.583  -0.199  -0.480  0.00  0.00    +0.000 C 
ATOM     12  C   UNL     1       1.165  -0.116   0.081  0.00  0.00    +0.000 C 
ATOM     13  C   UNL     1       0.513   1.222  -0.292  0.00  0.00    +0.000 C 
ATOM     14  C   UNL     1      -0.928   1.306   0.213  0.00  0.00    +0.000 C 
ATOM     15  C   UNL     1      -1.783   0.133  -0.278  0.00  0.00    +0.000 C 
ATOM     16  C   UNL     1      -1.127  -1.204   0.080  0.00  0.00    +0.000 C 
ATOM     17  C   UNL     1       0.318  -1.296  -0.411  0.00  0.00    +0.000 C 
ENDBRANCH  10  15
ENDBRANCH   1  10
TORSDOF 3
