REMARK  Name = *****
REMARK  3 active torsions:
REMARK  status: ('A' for Active; 'I' for Inactive)
REMARK    1  A    between atoms: C_1  and  C_2
REMARK    2  A    between atoms: C_3  and  N_9
REMARK    3  A    between atoms: C_10  and  C_11
REMARK                            x       y       z     vdW  Elec       q    Type
REMARK                         _______ _______ _______ _____ _____    ______ ____
ROOT
ATOM      1  C   UNL     1       0.428   2.312  -0.028  0.00  0.00    +0.000 C 
ATOM      2  C   UNL     1      -0.357   1.031   0.083  0.00  0.00    +0.000 A 
ATOM      3  C   UNL     1      -1.711   1.044   0.472  0.00  0.00    +0.000 A 
ATOM      4  C   UNL     1      -2.415  -0.162   0.599  0.00  0.00    +0.000 A 
ATOM      5  C   UNL     1      -1.806  -1.380   0.308  0.00  0.00    +0.000 A 
ATOM      6  C   UNL     1      -0.479  -1.401  -0.110  0.00  0.00    +0.000 A 
ATOM      7  C   UNL     1       0.240  -0.207  -0.221  0.00  0.00    +0.000 A 
ATOM      8 CL   UNL     1       1.882  -0.316  -0.754  0.00  0.00    +0.000 Cl
ENDROOT
BRANCH   3   9
ATOM      9  N   UNL     1      -2.378   2.241   0.777  0.00  0.00    +0.000 NA
ATOM     10  C   UNL     1      -3.042   2.782  -0.198  0.00  0.00    +0.000 C 
BRANCH  10  11
ATOM     11  C   UNL     1      -3.764   4.013   0.000  0.00  0.00    +0.000 A 
ATOM     12  C   UNL     1      -3.874   4.781   1.142  0.00  0.00    +0.000 A 
ATOM     13  C   UNL     1      -4.681   5.938   0.940  0.00  0.00    +0.000 A 
ATOM     14  C   UNL     1      -5.158   6.013  -0.350  0.00  0.00    +0.000 A 
ATOM     15  S   UNL     1      -4.633   4.694  -1.305  0.00  0.00    +0.000 S 
ENDBRANCH  10  11
ENDBRANCH   3   9
TORSDOF 2
