REMARK  Name = *****
REMARK  3 active torsions:
REMARK  status: ('A' for Active; 'I' for Inactive)
REMARK    1  A    between atoms: C_1  and  C_2
REMARK    2  A    between atoms: C_2  and  C_11
REMARK    3  A    between atoms: C_4  and  C_5
REMARK                            x       y       z     vdW  Elec       q    Type
REMARK                         _______ _______ _______ _____ _____    ______ ____
ROOT
ATOM      1  C   UNL     1       3.115  -0.475   1.457  0.00  0.00    +0.000 C 
ATOM      2  C   UNL     1       2.501  -0.262   0.091  0.00  0.00    +0.000 C 
ATOM      3  C   UNL     1       3.324   0.526  -0.907  0.00  0.00    +0.000 C 
ATOM      4  C   UNL     1       3.100  -0.945  -1.148  0.00  0.00    +0.000 C 
ENDROOT
BRANCH   4   5
ATOM      5  C   UNL     1       4.237  -1.935  -1.038  0.00  0.00    +0.000 A 
ATOM      6  C   UNL     1       4.066  -3.164  -0.377  0.00  0.00    +0.000 A 
ATOM      7  C   UNL     1       5.103  -4.096  -0.285  0.00  0.00    +0.000 A 
ATOM      8  C   UNL     1       6.337  -3.821  -0.866  0.00  0.00    +0.000 A 
ATOM      9  C   UNL     1       6.531  -2.619  -1.540  0.00  0.00    +0.000 A 
ATOM     10  C   UNL     1       5.489  -1.691  -1.627  0.00  0.00    +0.000 A 
ENDBRANCH   4   5
BRANCH   2  11
ATOM     11  C   UNL     1       0.990  -0.057   0.115  0.00  0.00    +0.000 A 
ATOM     12  C   UNL     1       0.105  -1.142  -0.009  0.00  0.00    +0.000 A 
ATOM     13  C   UNL     1      -1.280  -0.961   0.024  0.00  0.00    +0.000 A 
ATOM     14  C   UNL     1      -1.811   0.314   0.187  0.00  0.00    +0.000 A 
ATOM     15  C   UNL     1      -0.958   1.406   0.320  0.00  0.00    +0.000 A 
ATOM     16  C   UNL     1       0.426   1.219   0.286  0.00  0.00    +0.000 A 
ENDBRANCH   2  11
TORSDOF 2
