REMARK  Name = *****
REMARK  3 active torsions:
REMARK  status: ('A' for Active; 'I' for Inactive)
REMARK    1  A    between atoms: C_1  and  C_2
REMARK    2  A    between atoms: C_3  and  C_11
REMARK    3  A    between atoms: C_11  and  C_12
REMARK                            x       y       z     vdW  Elec       q    Type
REMARK                         _______ _______ _______ _____ _____    ______ ____
ROOT
ATOM      1  C   UNL     1       1.003   0.316  -0.540  0.00  0.00    +0.000 C 
ATOM      2  C   UNL     1       2.445   0.125  -0.238  0.00  0.00    +0.000 C 
ATOM      3  C   UNL     1       3.149  -1.005  -0.010  0.00  0.00    +0.000 C 
ATOM      4  C   UNL     1       4.615  -0.726   0.263  0.00  0.00    +0.000 C 
ATOM      5  C   UNL     1       4.655   0.766   0.151  0.00  0.00    +0.000 A 
ATOM      6  C   UNL     1       5.738   1.617   0.299  0.00  0.00    +0.000 A 
ATOM      7  C   UNL     1       5.523   2.988   0.150  0.00  0.00    +0.000 A 
ATOM      8  C   UNL     1       4.242   3.482  -0.142  0.00  0.00    +0.000 A 
ATOM      9  C   UNL     1       3.157   2.612  -0.288  0.00  0.00    +0.000 A 
ATOM     10  C   UNL     1       3.374   1.252  -0.139  0.00  0.00    +0.000 A 
ENDROOT
BRANCH   3  11
ATOM     11  C   UNL     1       2.665  -2.423  -0.026  0.00  0.00    +0.000 C 
BRANCH  11  12
ATOM     12  C   UNL     1       2.750  -3.098   1.323  0.00  0.00    +0.000 A 
ATOM     13  C   UNL     1       1.883  -2.724   2.360  0.00  0.00    +0.000 A 
ATOM     14  C   UNL     1       1.963  -3.341   3.609  0.00  0.00    +0.000 A 
ATOM     15  C   UNL     1       2.911  -4.337   3.835  0.00  0.00    +0.000 A 
ATOM     16  C   UNL     1       3.779  -4.716   2.813  0.00  0.00    +0.000 A 
ATOM     17  C   UNL     1       3.701  -4.100   1.563  0.00  0.00    +0.000 A 
ENDBRANCH  11  12
ENDBRANCH   3  11
TORSDOF 2
