REMARK  Name = *****
REMARK  4 active torsions:
REMARK  status: ('A' for Active; 'I' for Inactive)
REMARK    1  A    between atoms: C_5  and  C_7
REMARK    2  A    between atoms: C_7  and  S_8
REMARK    3  A    between atoms: S_8  and  C_9
REMARK    4  A    between atoms: C_9  and  C_10
REMARK                            x       y       z     vdW  Elec       q    Type
REMARK                         _______ _______ _______ _____ _____    ______ ____
ROOT
ATOM      1  S   UNL     1       2.867  -1.779   0.079  0.00  0.00    +0.000 S 
ENDROOT
BRANCH   1   2
ATOM      2  C   UNL     1       1.118  -2.277   0.073  0.00  0.00    +0.000 C 
BRANCH   2   7
ATOM      3  C   UNL     1      -0.872   0.730  -1.170  0.00  0.00    +0.000 A 
ATOM      4  C   UNL     1      -1.510   1.143  -0.000  0.00  0.00    +0.000 A 
ATOM      5  C   UNL     1      -1.296   0.449   1.189  0.00  0.00    +0.000 A 
ATOM      6  C   UNL     1      -0.446  -0.654   1.200  0.00  0.00    +0.000 A 
ATOM      7  C   UNL     1       0.200  -1.087   0.039  0.00  0.00    +0.000 A 
ATOM      8  C   UNL     1      -0.021  -0.378  -1.152  0.00  0.00    +0.000 A 
ATOM      9  F   UNL     1      -0.259  -1.310   2.355  0.00  0.00    +0.000 F 
ENDBRANCH   2   7
ENDBRANCH   1   2
BRANCH   1  10
ATOM     10  C   UNL     1       3.608  -3.429   0.269  0.00  0.00    +0.000 C 
BRANCH  10  11
ATOM     11  C   UNL     1       5.110  -3.374   0.237  0.00  0.00    +0.000 A 
ATOM     12  C   UNL     1       5.840  -2.911   1.343  0.00  0.00    +0.000 A 
ATOM     13  C   UNL     1       7.236  -2.861   1.301  0.00  0.00    +0.000 A 
ATOM     14  C   UNL     1       7.918  -3.272   0.155  0.00  0.00    +0.000 A 
ATOM     15  C   UNL     1       7.204  -3.731  -0.949  0.00  0.00    +0.000 A 
ATOM     16  C   UNL     1       5.813  -3.777  -0.902  0.00  0.00    +0.000 A 
ATOM     17  F   UNL     1       5.148  -4.228  -1.975  0.00  0.00    +0.000 F 
ENDBRANCH  10  11
ENDBRANCH   1  10
TORSDOF 4
