REMARK  Name = *****
REMARK  5 active torsions:
REMARK  status: ('A' for Active; 'I' for Inactive)
REMARK    1  A    between atoms: C_1  and  O_2
REMARK    2  A    between atoms: O_2  and  C_3
REMARK    3  A    between atoms: C_6  and  C_9
REMARK    4  A    between atoms: C_9  and  C_10
REMARK    5  A    between atoms: C_10  and  C_11
REMARK                            x       y       z     vdW  Elec       q    Type
REMARK                         _______ _______ _______ _____ _____    ______ ____
ROOT
ATOM      1  C   UNL     1       5.179   1.612   4.536  0.00  0.00    +0.000 C 
ENDROOT
BRANCH   1   5
ATOM      2  C   UNL     1       3.016   0.182   1.074  0.00  0.00    +0.000 A 
ATOM      3  C   UNL     1       2.364   0.940   2.047  0.00  0.00    +0.000 A 
ATOM      4  C   UNL     1       3.068   1.407   3.163  0.00  0.00    +0.000 A 
ATOM      5  C   UNL     1       4.430   1.124   3.320  0.00  0.00    +0.000 A 
ATOM      6  C   UNL     1       5.079   0.363   2.342  0.00  0.00    +0.000 A 
ATOM      7  C   UNL     1       4.375  -0.100   1.228  0.00  0.00    +0.000 A 
BRANCH   2   9
ATOM      8  C   UNL     1       1.061  -0.095  -0.248  0.00  0.00    +0.000 C 
ATOM      9  O   UNL     1       2.450  -0.334  -0.059  0.00  0.00    +0.000 OA
ENDBRANCH   2   9
ENDBRANCH   1   5
BRANCH   1  10
ATOM     10  C   UNL     1       4.899   0.735   5.761  0.00  0.00    +0.000 C 
BRANCH  10  11
ATOM     11  C   UNL     1       5.699   1.172   6.961  0.00  0.00    +0.000 A 
ATOM     12  C   UNL     1       6.835   0.458   7.366  0.00  0.00    +0.000 A 
ATOM     13  C   UNL     1       7.575   0.878   8.475  0.00  0.00    +0.000 A 
ATOM     14  C   UNL     1       7.191   2.016   9.186  0.00  0.00    +0.000 A 
ATOM     15  C   UNL     1       6.066   2.734   8.789  0.00  0.00    +0.000 A 
ATOM     16  C   UNL     1       5.332   2.310   7.686  0.00  0.00    +0.000 A 
ATOM     17  F   UNL     1       4.253   3.015   7.316  0.00  0.00    +0.000 F 
ENDBRANCH  10  11
ENDBRANCH   1  10
TORSDOF 4
