REMARK  Name = *****
REMARK  3 active torsions:
REMARK  status: ('A' for Active; 'I' for Inactive)
REMARK    1  A    between atoms: C_1  and  C_2
REMARK    2  A    between atoms: C_3  and  N_9
REMARK    3  A    between atoms: C_10  and  C_11
REMARK                            x       y       z     vdW  Elec       q    Type
REMARK                         _______ _______ _______ _____ _____    ______ ____
ROOT
ATOM      1  C   UNL     1       0.409   2.259  -0.262  0.00  0.00    +0.000 C 
ATOM      2  C   UNL     1      -0.361   0.992  -0.006  0.00  0.00    +0.000 A 
ATOM      3  C   UNL     1      -1.683   1.036   0.478  0.00  0.00    +0.000 A 
ATOM      4  C   UNL     1      -2.375  -0.156   0.737  0.00  0.00    +0.000 A 
ATOM      5  C   UNL     1      -1.789  -1.393   0.486  0.00  0.00    +0.000 A 
ATOM      6  C   UNL     1      -0.496  -1.447  -0.024  0.00  0.00    +0.000 A 
ATOM      7  C   UNL     1       0.212  -0.266  -0.268  0.00  0.00    +0.000 A 
ATOM      8 CL   UNL     1       1.812  -0.418  -0.911  0.00  0.00    +0.000 Cl
ENDROOT
BRANCH   3   9
ATOM      9  N   UNL     1      -2.327   2.255   0.750  0.00  0.00    +0.000 NA
ATOM     10  C   UNL     1      -3.076   2.724  -0.199  0.00  0.00    +0.000 C 
BRANCH  10  11
ATOM     11  C   UNL     1      -3.811   3.995  -0.058  0.00  0.00    +0.000 A 
ATOM     12  C   UNL     1      -3.716   4.753   1.113  0.00  0.00    +0.000 A 
ATOM     13  C   UNL     1      -4.420   5.952   1.221  0.00  0.00    +0.000 A 
ATOM     14  C   UNL     1      -5.217   6.392   0.163  0.00  0.00    +0.000 A 
ATOM     15  C   UNL     1      -5.311   5.635  -1.005  0.00  0.00    +0.000 A 
ATOM     16  C   UNL     1      -4.608   4.434  -1.119  0.00  0.00    +0.000 A 
ENDBRANCH  10  11
ENDBRANCH   3   9
TORSDOF 2
