REMARK  Name = *****
REMARK  5 active torsions:
REMARK  status: ('A' for Active; 'I' for Inactive)
REMARK    1  A    between atoms: C_1  and  C_2
REMARK    2  A    between atoms: C_2  and  C_3
REMARK    3  A    between atoms: C_2  and  C_9
REMARK    4  A    between atoms: C_9  and  C_10
REMARK    5  A    between atoms: C_9  and  C_11
REMARK                            x       y       z     vdW  Elec       q    Type
REMARK                         _______ _______ _______ _____ _____    ______ ____
ROOT
ATOM      1  C   UNL     1       0.749   0.144  -0.001  0.00  0.00    +0.000 C 
ATOM      2  C   UNL     1       2.277   0.295  -0.035  0.00  0.00    +0.000 C 
ENDROOT
BRANCH   2   3
ATOM      3  C   UNL     1       2.829   0.456  -1.450  0.00  0.00    +0.000 A 
ATOM      4  C   UNL     1       2.157   1.173  -2.451  0.00  0.00    +0.000 A 
ATOM      5  C   UNL     1       2.709   1.305  -3.728  0.00  0.00    +0.000 A 
ATOM      6  C   UNL     1       3.941   0.727  -4.022  0.00  0.00    +0.000 A 
ATOM      7  C   UNL     1       4.625   0.018  -3.039  0.00  0.00    +0.000 A 
ATOM      8  C   UNL     1       4.075  -0.115  -1.763  0.00  0.00    +0.000 A 
ENDBRANCH   2   3
BRANCH   2   9
ATOM      9  C   UNL     1       2.833   1.403   0.917  0.00  0.00    +0.000 C 
ATOM     10  C   UNL     1       2.257   2.804   0.659  0.00  0.00    +0.000 C 
BRANCH   9  11
ATOM     11  C   UNL     1       2.730   0.976   2.380  0.00  0.00    +0.000 A 
ATOM     12  C   UNL     1       3.760   0.196   2.935  0.00  0.00    +0.000 A 
ATOM     13  C   UNL     1       3.702  -0.229   4.264  0.00  0.00    +0.000 A 
ATOM     14  C   UNL     1       2.612   0.115   5.058  0.00  0.00    +0.000 A 
ATOM     15  C   UNL     1       1.579   0.881   4.523  0.00  0.00    +0.000 A 
ATOM     16  C   UNL     1       1.637   1.307   3.193  0.00  0.00    +0.000 A 
ENDBRANCH   9  11
ENDBRANCH   2   9
TORSDOF 3
