REMARK  Name = *****
REMARK  4 active torsions:
REMARK  status: ('A' for Active; 'I' for Inactive)
REMARK    1  A    between atoms: C_1  and  C_2
REMARK    2  A    between atoms: C_2  and  C_9
REMARK    3  A    between atoms: C_9  and  C_10
REMARK    4  A    between atoms: C_10  and  C_11
REMARK                            x       y       z     vdW  Elec       q    Type
REMARK                         _______ _______ _______ _____ _____    ______ ____
ROOT
ATOM      1  C   UNL     1       1.064   0.112   0.214  0.00  0.00    +0.000 C 
ATOM      2  C   UNL     1       2.596   0.076   0.073  0.00  0.00    +0.000 C 
ATOM      3  S   UNL     1       3.145   1.340  -1.156  0.00  0.00    +0.000 S 
ATOM      4  C   UNL     1       2.447   0.674  -2.693  0.00  0.00    +0.000 C 
ATOM      5  C   UNL     1       2.925  -0.738  -2.996  0.00  0.00    +0.000 C 
ATOM      6  C   UNL     1       2.411  -1.769  -2.008  0.00  0.00    +0.000 C 
ATOM      7  S   UNL     1       3.185  -1.617  -0.383  0.00  0.00    +0.000 S 
ATOM      8  O   UNL     1       2.528  -2.609   0.531  0.00  0.00    +0.000 OA
ENDROOT
BRANCH   2   9
ATOM      9  C   UNL     1       3.197   0.437   1.465  0.00  0.00    +0.000 C 
BRANCH   9  10
ATOM     10  C   UNL     1       4.731   0.494   1.564  0.00  0.00    +0.000 C 
BRANCH  10  11
ATOM     11  C   UNL     1       5.173   0.837   2.968  0.00  0.00    +0.000 A 
ATOM     12  C   UNL     1       5.316  -0.170   3.932  0.00  0.00    +0.000 A 
ATOM     13  C   UNL     1       5.708   0.148   5.233  0.00  0.00    +0.000 A 
ATOM     14  C   UNL     1       5.955   1.475   5.583  0.00  0.00    +0.000 A 
ATOM     15  C   UNL     1       5.808   2.484   4.633  0.00  0.00    +0.000 A 
ATOM     16  C   UNL     1       5.416   2.168   3.331  0.00  0.00    +0.000 A 
ENDBRANCH  10  11
ENDBRANCH   9  10
ENDBRANCH   2   9
TORSDOF 3
