REMARK  Name = *****
REMARK  4 active torsions:
REMARK  status: ('A' for Active; 'I' for Inactive)
REMARK    1  A    between atoms: C_1  and  C_2
REMARK    2  A    between atoms: C_4  and  O_8
REMARK    3  A    between atoms: O_8  and  C_9
REMARK    4  A    between atoms: C_9  and  C_11
REMARK                            x       y       z     vdW  Elec       q    Type
REMARK                         _______ _______ _______ _____ _____    ______ ____
ROOT
ATOM      1  C   UNL     1      -1.552   3.446  -0.573  0.00  0.00    +0.000 C 
ATOM      2  O   UNL     1      -0.902   3.346  -1.599  0.00  0.00    +0.000 OA
ENDROOT
BRANCH   1   3
ATOM      3  C   UNL     1      -2.323   4.638  -0.217  0.00  0.00    +0.000 A 
ATOM      4  C   UNL     1      -1.725   5.892  -0.294  0.00  0.00    +0.000 A 
ATOM      5  C   UNL     1      -2.448   7.042   0.022  0.00  0.00    +0.000 A 
ATOM      6  C   UNL     1      -3.784   6.940   0.413  0.00  0.00    +0.000 A 
ATOM      7  C   UNL     1      -4.390   5.685   0.485  0.00  0.00    +0.000 A 
ATOM      8  C   UNL     1      -3.657   4.541   0.167  0.00  0.00    +0.000 A 
ATOM      9  F   UNL     1      -4.273   3.352   0.222  0.00  0.00    +0.000 F 
ATOM     10  F   UNL     1      -0.438   6.021  -0.643  0.00  0.00    +0.000 F 
ENDBRANCH   1   3
BRANCH   1  11
ATOM     11  O   UNL     1      -1.674   2.542   0.464  0.00  0.00    +0.000 OA
BRANCH  11  15
ATOM     12  C   UNL     1       2.573   0.022   0.193  0.00  0.00    +0.000 C 
ATOM     13  C   UNL     1       1.075   0.084   0.150  0.00  0.00    +0.000 A 
ATOM     14  C   UNL     1       0.411   1.307   0.299  0.00  0.00    +0.000 A 
ATOM     15  C   UNL     1      -0.983   1.342   0.269  0.00  0.00    +0.000 A 
ATOM     16  C   UNL     1      -1.734   0.176   0.143  0.00  0.00    +0.000 A 
ATOM     17  C   UNL     1      -1.076  -1.044   0.011  0.00  0.00    +0.000 A 
ATOM     18  C   UNL     1       0.321  -1.091   0.017  0.00  0.00    +0.000 A 
ENDBRANCH  11  15
ENDBRANCH   1  11
TORSDOF 3
