REMARK  Name = *****
REMARK  3 active torsions:
REMARK  status: ('A' for Active; 'I' for Inactive)
REMARK    1  A    between atoms: C_4  and  C_7
REMARK    2  A    between atoms: C_8  and  C_9
REMARK    3  A    between atoms: C_12  and  C_14
REMARK                            x       y       z     vdW  Elec       q    Type
REMARK                         _______ _______ _______ _____ _____    ______ ____
ROOT
ATOM      1  C   UNL     1       2.905   0.180  -0.274  0.00  0.00    +0.000 C 
ATOM      2  C   UNL     1       4.099   0.253  -0.382  0.00  0.00    +0.000 C 
ENDROOT
BRANCH   1   6
ATOM      3  C   UNL     1      -1.294  -0.081   0.095  0.00  0.00    +0.000 A 
ATOM      4  C   UNL     1      -0.677   1.168   0.033  0.00  0.00    +0.000 A 
ATOM      5  C   UNL     1       0.712   1.255  -0.088  0.00  0.00    +0.000 A 
ATOM      6  C   UNL     1       1.483   0.092  -0.148  0.00  0.00    +0.000 A 
ATOM      7  C   UNL     1       0.862  -1.158  -0.086  0.00  0.00    +0.000 A 
ATOM      8  C   UNL     1      -0.526  -1.244   0.035  0.00  0.00    +0.000 A 
ENDBRANCH   1   6
BRANCH   2   9
ATOM      9  C   UNL     1       5.519   0.337  -0.513  0.00  0.00    +0.000 A 
ATOM     10  C   UNL     1       6.199   1.534  -0.561  0.00  0.00    +0.000 A 
ATOM     11  S   UNL     1       7.888   1.305  -0.722  0.00  0.00    +0.000 S 
ATOM     12  C   UNL     1       7.717  -0.395  -0.728  0.00  0.00    +0.000 A 
ATOM     13  C   UNL     1       6.397  -0.780  -0.609  0.00  0.00    +0.000 A 
BRANCH  12  14
ATOM     14  C   UNL     1       8.885  -1.237  -0.849  0.00  0.00    +0.000 C 
ATOM     15  O   UNL     1       8.860  -2.466  -0.862  0.00  0.00    +0.000 OA
ENDBRANCH  12  14
ENDBRANCH   2   9
TORSDOF 3
