REMARK  Name = *****
REMARK  3 active torsions:
REMARK  status: ('A' for Active; 'I' for Inactive)
REMARK    1  A    between atoms: C_4  and  C_7
REMARK    2  A    between atoms: N_8  and  C_9
REMARK    3  A    between atoms: C_13  and  C_15
REMARK                            x       y       z     vdW  Elec       q    Type
REMARK                         _______ _______ _______ _____ _____    ______ ____
ROOT
ATOM      1  C   UNL     1      -4.979  -0.368  -1.105  0.00  0.00    +0.000 A 
ATOM      2  C   UNL     1      -5.509   0.600  -1.961  0.00  0.00    +0.000 A 
ATOM      3  C   UNL     1      -6.887   0.806  -2.028  0.00  0.00    +0.000 A 
ATOM      4  C   UNL     1      -7.746   0.033  -1.246  0.00  0.00    +0.000 A 
ATOM      5  C   UNL     1      -7.234  -0.958  -0.395  0.00  0.00    +0.000 A 
ATOM      6  C   UNL     1      -5.844  -1.150  -0.336  0.00  0.00    +0.000 A 
ENDROOT
BRANCH   5   7
ATOM      7  C   UNL     1      -8.142  -1.809   0.455  0.00  0.00    +0.000 C 
ATOM      8  F   UNL     1      -9.468  -1.581   0.233  0.00  0.00    +0.000 F 
ATOM      9  F   UNL     1      -7.956  -3.142   0.252  0.00  0.00    +0.000 F 
ATOM     10  F   UNL     1      -7.949  -1.602   1.788  0.00  0.00    +0.000 F 
ENDBRANCH   5   7
BRANCH   1  12
ATOM     11  C   UNL     1      -2.934   0.177  -0.239  0.00  0.00    +0.000 C 
ATOM     12  N   UNL     1      -3.598  -0.589  -1.046  0.00  0.00    +0.000 NA
BRANCH  11  16
ATOM     13  C   UNL     1       1.288  -0.124   0.271  0.00  0.00    +0.000 A 
ATOM     14  C   UNL     1       0.637  -0.988  -0.612  0.00  0.00    +0.000 A 
ATOM     15  C   UNL     1      -0.745  -0.897  -0.785  0.00  0.00    +0.000 A 
ATOM     16  C   UNL     1      -1.473   0.061  -0.073  0.00  0.00    +0.000 A 
ATOM     17  C   UNL     1      -0.823   0.926   0.811  0.00  0.00    +0.000 A 
ATOM     18  C   UNL     1       0.560   0.831   0.981  0.00  0.00    +0.000 A 
ENDBRANCH  11  16
ENDBRANCH   1  12
TORSDOF 3
