REMARK  Name = *****
REMARK  6 active torsions:
REMARK  status: ('A' for Active; 'I' for Inactive)
REMARK    1  A    between atoms: C_1  and  C_2
REMARK    2  A    between atoms: C_4  and  C_19
REMARK    3  A    between atoms: C_6  and  N_8
REMARK    4  A    between atoms: N_8  and  C_9
REMARK    5  A    between atoms: C_9  and  C_10
REMARK    6  A    between atoms: C_16  and  C_18
REMARK                            x       y       z     vdW  Elec       q    Type
REMARK                         _______ _______ _______ _____ _____    ______ ____
ROOT
ATOM      1  N   UNL     1       0.022  -3.078   0.304  0.00  0.00    +0.000 N 
ATOM      2  C   UNL     1       1.081  -3.983   0.501  0.00  0.00    +0.000 C 
ATOM      3  O   UNL     1       2.159  -3.710   1.033  0.00  0.00    +0.000 OA
ATOM      4  C   UNL     1       0.864  -5.409   0.044  0.00  0.00    +0.000 C 
ENDROOT
BRANCH   1  10
ATOM      5  C   UNL     1      -2.013   1.370   1.377  0.00  0.00    +0.000 C 
ATOM      6  C   UNL     1      -0.799   0.535   1.093  0.00  0.00    +0.000 A 
ATOM      7  C   UNL     1       0.467   1.120   1.035  0.00  0.00    +0.000 A 
ATOM      8  C   UNL     1       1.589   0.343   0.743  0.00  0.00    +0.000 A 
ATOM      9  C   UNL     1       1.434  -1.037   0.525  0.00  0.00    +0.000 A 
ATOM     10  C   UNL     1       0.177  -1.660   0.565  0.00  0.00    +0.000 A 
ATOM     11  C   UNL     1      -0.933  -0.841   0.839  0.00  0.00    +0.000 A 
ATOM     12  C   UNL     1       2.957   0.959   0.717  0.00  0.00    +0.000 C 
ENDBRANCH   1  10
BRANCH   1  13
ATOM     13  C   UNL     1      -1.302  -3.551  -0.134  0.00  0.00    +0.000 C 
BRANCH  13  14
ATOM     14  C   UNL     1      -2.212  -4.083   0.958  0.00  0.00    +0.000 A 
ATOM     15  C   UNL     1      -1.898  -4.016   2.324  0.00  0.00    +0.000 A 
ATOM     16  C   UNL     1      -2.781  -4.517   3.284  0.00  0.00    +0.000 A 
ATOM     17  C   UNL     1      -3.989  -5.090   2.894  0.00  0.00    +0.000 A 
ATOM     18  C   UNL     1      -4.318  -5.161   1.544  0.00  0.00    +0.000 A 
ATOM     19  C   UNL     1      -3.437  -4.660   0.583  0.00  0.00    +0.000 A 
ENDBRANCH  13  14
ENDBRANCH   1  13
TORSDOF 3
