REMARK  Name = *****
REMARK  2 active torsions:
REMARK  status: ('A' for Active; 'I' for Inactive)
REMARK    1  A    between atoms: C_4  and  C_7
REMARK    2  A    between atoms: C_10  and  C_11
REMARK                            x       y       z     vdW  Elec       q    Type
REMARK                         _______ _______ _______ _____ _____    ______ ____
ROOT
ATOM      1  C   UNL     1      -2.833   0.416  -0.288  0.00  0.00    +0.000 C 
ATOM      2  C   UNL     1      -3.553  -0.520  -1.250  0.00  0.00    +0.000 C 
ATOM      3  C   UNL     1      -4.456  -0.919  -0.335  0.00  0.00    +0.000 C 
ATOM      4  C   UNL     1      -3.793  -0.158   0.806  0.00  0.00    +0.000 C 
ENDROOT
BRANCH   1   8
ATOM      5  C   UNL     1       1.534  -0.336   0.020  0.00  0.00    +0.000 A 
ATOM      6  C   UNL     1       1.047   0.954  -0.152  0.00  0.00    +0.000 A 
ATOM      7  C   UNL     1      -0.330   1.175  -0.250  0.00  0.00    +0.000 A 
ATOM      8  C   UNL     1      -1.269   0.124  -0.181  0.00  0.00    +0.000 A 
ATOM      9  C   UNL     1      -0.732  -1.170  -0.006  0.00  0.00    +0.000 A 
ATOM     10  C   UNL     1       0.644  -1.401   0.093  0.00  0.00    +0.000 A 
ENDBRANCH   1   8
BRANCH   4  11
ATOM     11  C   UNL     1      -4.789   0.830   1.564  0.00  0.00    +0.000 A 
ATOM     12  C   UNL     1      -4.846   0.860   2.973  0.00  0.00    +0.000 A 
ATOM     13  C   UNL     1      -5.702   1.720   3.668  0.00  0.00    +0.000 A 
ATOM     14  C   UNL     1      -6.534   2.586   2.970  0.00  0.00    +0.000 A 
ATOM     15  C   UNL     1      -6.510   2.590   1.580  0.00  0.00    +0.000 A 
ATOM     16  C   UNL     1      -5.650   1.726   0.894  0.00  0.00    +0.000 A 
ENDBRANCH   4  11
TORSDOF 2
