REMARK  Name = *****
REMARK  4 active torsions:
REMARK  status: ('A' for Active; 'I' for Inactive)
REMARK    1  A    between atoms: C_3  and  O_8
REMARK    2  A    between atoms: O_8  and  C_9
REMARK    3  A    between atoms: C_9  and  C_11
REMARK    4  A    between atoms: C_13  and  C_17
REMARK                            x       y       z     vdW  Elec       q    Type
REMARK                         _______ _______ _______ _____ _____    ______ ____
ROOT
ATOM      1  C   UNL     1      -1.974   4.908   0.196  0.00  0.00    +0.000 A 
ATOM      2  C   UNL     1      -3.023   5.202   1.071  0.00  0.00    +0.000 A 
ATOM      3  C   UNL     1      -3.812   6.342   0.891  0.00  0.00    +0.000 A 
ATOM      4  C   UNL     1      -3.534   7.203  -0.181  0.00  0.00    +0.000 A 
ATOM      5  C   UNL     1      -2.481   6.927  -1.053  0.00  0.00    +0.000 A 
ATOM      6  C   UNL     1      -1.702   5.785  -0.864  0.00  0.00    +0.000 A 
ATOM      7  F   UNL     1      -3.286   4.410   2.120  0.00  0.00    +0.000 F 
ENDROOT
BRANCH   3   8
ATOM      8  C   UNL     1      -4.931   6.612   1.855  0.00  0.00    +0.000 C 
ATOM      9  F   UNL     1      -5.863   5.621   1.872  0.00  0.00    +0.000 F 
ATOM     10  F   UNL     1      -4.501   6.759   3.137  0.00  0.00    +0.000 F 
ATOM     11  F   UNL     1      -5.618   7.755   1.565  0.00  0.00    +0.000 F 
ENDBRANCH   3   8
BRANCH   1  12
ATOM     12  C   UNL     1      -1.110   3.713   0.344  0.00  0.00    +0.000 C 
ATOM     13  O   UNL     1      -0.008   3.634  -0.181  0.00  0.00    +0.000 OA
BRANCH  12  14
ATOM     14  O   UNL     1      -1.761   2.735   1.068  0.00  0.00    +0.000 OA
BRANCH  14  17
ATOM     15  C   UNL     1      -0.873  -0.826   0.917  0.00  0.00    +0.000 A 
ATOM     16  C   UNL     1      -1.542   0.381   0.706  0.00  0.00    +0.000 A 
ATOM     17  C   UNL     1      -1.030   1.556   1.258  0.00  0.00    +0.000 A 
ATOM     18  C   UNL     1       0.116   1.543   2.049  0.00  0.00    +0.000 A 
ATOM     19  C   UNL     1       0.771   0.335   2.249  0.00  0.00    +0.000 A 
ATOM     20  C   UNL     1       0.290  -0.847   1.690  0.00  0.00    +0.000 A 
ATOM     21  F   UNL     1       1.879   0.302   3.000  0.00  0.00    +0.000 F 
ENDBRANCH  14  17
ENDBRANCH  12  14
ENDBRANCH   1  12
TORSDOF 4
