REMARK  Name = *****
REMARK  3 active torsions:
REMARK  status: ('A' for Active; 'I' for Inactive)
REMARK    1  A    between atoms: C_1  and  C_2
REMARK    2  A    between atoms: C_5  and  C_8
REMARK    3  A    between atoms: C_9  and  C_10
REMARK                            x       y       z     vdW  Elec       q    Type
REMARK                         _______ _______ _______ _____ _____    ______ ____
ROOT
ATOM      1  C   UNL     1       6.736   0.050  -0.738  0.00  0.00    +0.000 C 
ATOM      2  C   UNL     1       7.912   0.055  -0.979  0.00  0.00    +0.000 C 
ENDROOT
BRANCH   1   7
ATOM      3  C   UNL     1       1.113  -0.074   0.389  0.00  0.00    +0.000 C 
ATOM      4  C   UNL     1       2.588  -0.037   0.123  0.00  0.00    +0.000 A 
ATOM      5  C   UNL     1       3.243   1.183  -0.087  0.00  0.00    +0.000 A 
ATOM      6  C   UNL     1       4.612   1.213  -0.367  0.00  0.00    +0.000 A 
ATOM      7  C   UNL     1       5.335   0.023  -0.451  0.00  0.00    +0.000 A 
ATOM      8  C   UNL     1       4.687  -1.198  -0.257  0.00  0.00    +0.000 A 
ATOM      9  C   UNL     1       3.318  -1.228   0.023  0.00  0.00    +0.000 A 
ENDBRANCH   1   7
BRANCH   2  10
ATOM     10  C   UNL     1       9.307   0.049  -1.264  0.00  0.00    +0.000 C 
ATOM     11  C   UNL     1       9.966   1.203  -1.464  0.00  0.00    +0.000 C 
ATOM     12  C   UNL     1      11.436   1.308  -1.739  0.00  0.00    +0.000 C 
ATOM     13  C   UNL     1      12.190   0.051  -1.320  0.00  0.00    +0.000 C 
ATOM     14  C   UNL     1      11.496  -1.203  -1.825  0.00  0.00    +0.000 C 
ATOM     15  C   UNL     1      10.049  -1.250  -1.378  0.00  0.00    +0.000 C 
ATOM     16  O   UNL     1       9.484  -2.326  -1.186  0.00  0.00    +0.000 OA
ENDBRANCH   2  10
TORSDOF 2
