REMARK  Name = *****
REMARK  5 active torsions:
REMARK  status: ('A' for Active; 'I' for Inactive)
REMARK    1  A    between atoms: C_1  and  C_2
REMARK    2  A    between atoms: C_7  and  C_8
REMARK    3  A    between atoms: C_8  and  O_9
REMARK    4  A    between atoms: O_9  and  C_10
REMARK    5  A    between atoms: C_10  and  C_12
REMARK                            x       y       z     vdW  Elec       q    Type
REMARK                         _______ _______ _______ _____ _____    ______ ____
ROOT
ATOM      1  O   UNL     1       2.027  -2.982  -0.277  0.00  0.00    +0.000 OA
ENDROOT
BRANCH   1   2
ATOM      2  C   UNL     1       3.099  -2.971   0.549  0.00  0.00    +0.000 C 
ATOM      3  O   UNL     1       3.079  -2.848   1.763  0.00  0.00    +0.000 OA
BRANCH   2   4
ATOM      4  C   UNL     1       4.354  -3.150  -0.232  0.00  0.00    +0.000 A 
ATOM      5  C   UNL     1       5.561  -3.276   0.473  0.00  0.00    +0.000 A 
ATOM      6  C   UNL     1       6.766  -3.447  -0.214  0.00  0.00    +0.000 A 
ATOM      7  C   UNL     1       6.769  -3.489  -1.606  0.00  0.00    +0.000 A 
ATOM      8  C   UNL     1       5.578  -3.361  -2.319  0.00  0.00    +0.000 A 
ATOM      9  C   UNL     1       4.370  -3.190  -1.634  0.00  0.00    +0.000 A 
ATOM     10 CL   UNL     1       8.252  -3.700  -2.452  0.00  0.00    +0.000 Cl
ENDBRANCH   2   4
ENDBRANCH   1   2
BRANCH   1  11
ATOM     11  C   UNL     1       0.755  -2.770   0.349  0.00  0.00    +0.000 C 
BRANCH  11  18
ATOM     12  C   UNL     1      -0.447  -1.714  -2.201  0.00  0.00    +0.000 C 
ATOM     13  C   UNL     1      -0.203  -0.826  -1.012  0.00  0.00    +0.000 A 
ATOM     14  C   UNL     1      -0.549   0.533  -1.094  0.00  0.00    +0.000 A 
ATOM     15  C   UNL     1      -0.335   1.393  -0.017  0.00  0.00    +0.000 A 
ATOM     16  C   UNL     1       0.231   0.907   1.157  0.00  0.00    +0.000 A 
ATOM     17  C   UNL     1       0.574  -0.440   1.257  0.00  0.00    +0.000 A 
ATOM     18  C   UNL     1       0.351  -1.324   0.186  0.00  0.00    +0.000 A 
ENDBRANCH  11  18
ENDBRANCH   1  11
TORSDOF 4
