REMARK  Name = *****
REMARK  4 active torsions:
REMARK  status: ('A' for Active; 'I' for Inactive)
REMARK    1  A    between atoms: C_1  and  C_2
REMARK    2  A    between atoms: C_7  and  N_8
REMARK    3  A    between atoms: C_9  and  C_10
REMARK    4  A    between atoms: C_9  and  C_11
REMARK                            x       y       z     vdW  Elec       q    Type
REMARK                         _______ _______ _______ _____ _____    ______ ____
ROOT
ATOM      1  N   UNL     1       1.144  -2.282  -0.370  0.00  0.00    +0.000 NA
ATOM      2  C   UNL     1       2.241  -2.595   0.259  0.00  0.00    +0.000 C 
ATOM      3  C   UNL     1       2.900  -1.717   1.308  0.00  0.00    +0.000 C 
ENDROOT
BRANCH   1  10
ATOM      4  C   UNL     1       1.831   0.071  -1.939  0.00  0.00    +0.000 C 
ATOM      5  C   UNL     1       0.796   0.095  -0.850  0.00  0.00    +0.000 A 
ATOM      6  C   UNL     1       0.124   1.291  -0.552  0.00  0.00    +0.000 A 
ATOM      7  C   UNL     1      -0.851   1.328   0.446  0.00  0.00    +0.000 A 
ATOM      8  C   UNL     1      -1.168   0.172   1.153  0.00  0.00    +0.000 A 
ATOM      9  C   UNL     1      -0.498  -1.018   0.871  0.00  0.00    +0.000 A 
ATOM     10  C   UNL     1       0.502  -1.063  -0.108  0.00  0.00    +0.000 A 
ENDBRANCH   1  10
BRANCH   2  11
ATOM     11  C   UNL     1       2.903  -3.892  -0.082  0.00  0.00    +0.000 A 
ATOM     12  C   UNL     1       4.288  -4.061   0.037  0.00  0.00    +0.000 A 
ATOM     13  C   UNL     1       4.875  -5.285  -0.297  0.00  0.00    +0.000 A 
ATOM     14  C   UNL     1       4.086  -6.339  -0.756  0.00  0.00    +0.000 A 
ATOM     15  C   UNL     1       2.708  -6.171  -0.890  0.00  0.00    +0.000 A 
ATOM     16  C   UNL     1       2.118  -4.950  -0.559  0.00  0.00    +0.000 A 
ENDBRANCH   2  11
TORSDOF 2
