REMARK  Name = *****
REMARK  4 active torsions:
REMARK  status: ('A' for Active; 'I' for Inactive)
REMARK    1  A    between atoms: C_1  and  C_2
REMARK    2  A    between atoms: C_5  and  N_8
REMARK    3  A    between atoms: N_8  and  C_9
REMARK    4  A    between atoms: C_9  and  C_10
REMARK                            x       y       z     vdW  Elec       q    Type
REMARK                         _______ _______ _______ _____ _____    ______ ____
ROOT
ATOM      1  N   UNL     1      -3.265   0.111   0.085  0.00  0.00    +0.000 N 
ATOM      2  O   UNL     1      -3.806   1.225   0.391  0.00  0.00    +0.000 OA
ENDROOT
BRANCH   1   7
ATOM      3  C   UNL     1       2.482  -0.132  -0.165  0.00  0.00    +0.000 C 
ATOM      4  C   UNL     1       0.983  -0.070  -0.104  0.00  0.00    +0.000 A 
ATOM      5  C   UNL     1       0.285   0.998  -0.681  0.00  0.00    +0.000 A 
ATOM      6  C   UNL     1      -1.108   1.048  -0.618  0.00  0.00    +0.000 A 
ATOM      7  C   UNL     1      -1.813   0.019   0.016  0.00  0.00    +0.000 A 
ATOM      8  C   UNL     1      -1.126  -1.045   0.610  0.00  0.00    +0.000 A 
ATOM      9  C   UNL     1       0.269  -1.090   0.540  0.00  0.00    +0.000 A 
ENDBRANCH   1   7
BRANCH   1  10
ATOM     10  C   UNL     1      -3.965  -0.967  -0.187  0.00  0.00    +0.000 C 
BRANCH  10  11
ATOM     11  C   UNL     1      -5.436  -1.023  -0.148  0.00  0.00    +0.000 A 
ATOM     12  C   UNL     1      -6.201  -0.001  -0.723  0.00  0.00    +0.000 A 
ATOM     13  C   UNL     1      -7.595  -0.082  -0.722  0.00  0.00    +0.000 A 
ATOM     14  C   UNL     1      -8.232  -1.186  -0.157  0.00  0.00    +0.000 A 
ATOM     15  C   UNL     1      -7.475  -2.213   0.407  0.00  0.00    +0.000 A 
ATOM     16  C   UNL     1      -6.079  -2.139   0.407  0.00  0.00    +0.000 A 
ATOM     17 CL   UNL     1      -5.205  -3.440   1.138  0.00  0.00    +0.000 Cl
ENDBRANCH  10  11
ENDBRANCH   1  10
TORSDOF 3
