REMARK  Name = *****
REMARK  1 active torsions:
REMARK  status: ('A' for Active; 'I' for Inactive)
REMARK    1  A    between atoms: C_9  and  C_11
REMARK                            x       y       z     vdW  Elec       q    Type
REMARK                         _______ _______ _______ _____ _____    ______ ____
ROOT
ATOM      1  C   UNL     1       1.192   1.552   0.095  0.00  0.00    +0.000 C 
ATOM      2  C   UNL     1      -0.076   0.744   0.003  0.00  0.00    +0.000 A 
ATOM      3  C   UNL     1      -1.316   1.402  -0.064  0.00  0.00    +0.000 A 
ATOM      4  C   UNL     1      -2.505   0.674  -0.081  0.00  0.00    +0.000 A 
ATOM      5  C   UNL     1      -2.471  -0.716  -0.016  0.00  0.00    +0.000 A 
ATOM      6  C   UNL     1      -1.246  -1.381   0.065  0.00  0.00    +0.000 A 
ATOM      7  C   UNL     1      -0.044  -0.660   0.071  0.00  0.00    +0.000 A 
ATOM      8  C   UNL     1       1.231  -1.386   0.166  0.00  0.00    +0.000 C 
ATOM      9  C   UNL     1       2.422  -0.848  -0.145  0.00  0.00    +0.000 C 
ATOM     10  S   UNL     1       2.615   0.775  -0.716  0.00  0.00    +0.000 S 
ENDROOT
BRANCH   9  11
ATOM     11  C   UNL     1       3.649  -1.654  -0.054  0.00  0.00    +0.000 A 
ATOM     12  C   UNL     1       4.309  -2.086  -1.216  0.00  0.00    +0.000 A 
ATOM     13  C   UNL     1       5.465  -2.865  -1.123  0.00  0.00    +0.000 A 
ATOM     14  C   UNL     1       5.957  -3.213   0.129  0.00  0.00    +0.000 A 
ATOM     15  C   UNL     1       5.318  -2.799   1.291  0.00  0.00    +0.000 A 
ATOM     16  C   UNL     1       4.162  -2.020   1.201  0.00  0.00    +0.000 A 
ATOM     17  F   UNL     1       7.065  -3.961   0.217  0.00  0.00    +0.000 F 
ENDBRANCH   9  11
TORSDOF 1
