REMARK  Name = *****
REMARK  3 active torsions:
REMARK  status: ('A' for Active; 'I' for Inactive)
REMARK    1  A    between atoms: C_4  and  C_5
REMARK    2  A    between atoms: C_5  and  C_6
REMARK    3  A    between atoms: C_6  and  C_7
REMARK                            x       y       z     vdW  Elec       q    Type
REMARK                         _______ _______ _______ _____ _____    ______ ____
ROOT
ATOM      1  C   UNL     1       2.019   2.057  -2.920  0.00  0.00    +0.000 C 
ATOM      2  C   UNL     1       2.454   0.800  -2.176  0.00  0.00    +0.000 C 
ATOM      3  C   UNL     1       1.563   0.774  -0.964  0.00  0.00    +0.000 C 
ATOM      4  C   UNL     1       1.820   0.202   0.224  0.00  0.00    +0.000 C 
ATOM      5 CL   UNL     1       0.714   0.295   1.561  0.00  0.00    +0.000 Cl
ATOM      6  C   UNL     1       0.335   1.543  -1.358  0.00  0.00    +0.000 C 
ATOM      7  O   UNL     1      -0.700   1.617  -0.716  0.00  0.00    +0.000 OA
ATOM      8  C   UNL     1       0.515   2.158  -2.717  0.00  0.00    +0.000 C 
ENDROOT
BRANCH   4   9
ATOM      9  C   UNL     1       3.082  -0.558   0.556  0.00  0.00    +0.000 C 
BRANCH   9  10
ATOM     10  C   UNL     1       2.883  -2.072   0.429  0.00  0.00    +0.000 C 
BRANCH  10  11
ATOM     11  C   UNL     1       4.156  -2.824   0.731  0.00  0.00    +0.000 A 
ATOM     12  C   UNL     1       4.454  -3.213   2.044  0.00  0.00    +0.000 A 
ATOM     13  C   UNL     1       5.640  -3.892   2.328  0.00  0.00    +0.000 A 
ATOM     14  C   UNL     1       6.540  -4.183   1.305  0.00  0.00    +0.000 A 
ATOM     15  C   UNL     1       6.255  -3.795  -0.004  0.00  0.00    +0.000 A 
ATOM     16  C   UNL     1       5.070  -3.117  -0.290  0.00  0.00    +0.000 A 
ENDBRANCH  10  11
ENDBRANCH   9  10
ENDBRANCH   4   9
TORSDOF 3
