REMARK  Name = *****
REMARK  4 active torsions:
REMARK  status: ('A' for Active; 'I' for Inactive)
REMARK    1  A    between atoms: C_5  and  C_7
REMARK    2  A    between atoms: C_7  and  S_8
REMARK    3  A    between atoms: S_8  and  C_9
REMARK    4  A    between atoms: C_13  and  C_15
REMARK                            x       y       z     vdW  Elec       q    Type
REMARK                         _______ _______ _______ _____ _____    ______ ____
ROOT
ATOM      1  C   UNL     1      -1.107  -5.377  -0.226  0.00  0.00    +0.000 A 
ATOM      2  C   UNL     1      -0.255  -6.409   0.175  0.00  0.00    +0.000 A 
ATOM      3  C   UNL     1      -0.775  -7.576   0.736  0.00  0.00    +0.000 A 
ATOM      4  C   UNL     1      -2.154  -7.723   0.888  0.00  0.00    +0.000 A 
ATOM      5  C   UNL     1      -3.027  -6.709   0.468  0.00  0.00    +0.000 A 
ATOM      6  C   UNL     1      -2.489  -5.534  -0.086  0.00  0.00    +0.000 A 
ENDROOT
BRANCH   5   7
ATOM      7  C   UNL     1      -4.519  -6.854   0.638  0.00  0.00    +0.000 C 
ATOM      8  F   UNL     1      -4.927  -8.151   0.720  0.00  0.00    +0.000 F 
ATOM      9  F   UNL     1      -4.968  -6.249   1.772  0.00  0.00    +0.000 F 
ATOM     10  F   UNL     1      -5.228  -6.305  -0.386  0.00  0.00    +0.000 F 
ENDBRANCH   5   7
BRANCH   1  11
ATOM     11  S   UNL     1      -0.410  -3.902  -0.945  0.00  0.00    +0.000 S 
BRANCH  11  12
ATOM     12  C   UNL     1      -0.975  -2.668   0.280  0.00  0.00    +0.000 C 
BRANCH  12  17
ATOM     13  C   UNL     1       1.319   0.326  -0.135  0.00  0.00    +0.000 A 
ATOM     14  C   UNL     1       0.405   1.264  -0.599  0.00  0.00    +0.000 A 
ATOM     15  C   UNL     1      -0.913   0.871  -0.753  0.00  0.00    +0.000 A 
ATOM     16  N   UNL     1      -1.365  -0.371  -0.475  0.00  0.00    +0.000 NA
ATOM     17  C   UNL     1      -0.462  -1.282  -0.029  0.00  0.00    +0.000 A 
ATOM     18  C   UNL     1       0.884  -0.964   0.156  0.00  0.00    +0.000 A 
ENDBRANCH  12  17
ENDBRANCH  11  12
ENDBRANCH   1  11
TORSDOF 4
