REMARK  Name = *****
REMARK  5 active torsions:
REMARK  status: ('A' for Active; 'I' for Inactive)
REMARK    1  A    between atoms: C_1  and  C_2
REMARK    2  A    between atoms: C_2  and  O_4
REMARK    3  A    between atoms: O_4  and  C_5
REMARK    4  A    between atoms: C_5  and  C_13
REMARK    5  A    between atoms: C_6  and  C_7
REMARK                            x       y       z     vdW  Elec       q    Type
REMARK                         _______ _______ _______ _____ _____    ______ ____
ROOT
ATOM      1  C   UNL     1       4.833  -1.011  -0.431  0.00  0.00    +0.000 C 
ATOM      2  C   UNL     1       5.439   0.044   0.144  0.00  0.00    +0.000 C 
ENDROOT
BRANCH   2   3
ATOM      3  C   UNL     1       4.740   1.094   0.892  0.00  0.00    +0.000 A 
ATOM      4  C   UNL     1       3.982   0.798   2.031  0.00  0.00    +0.000 A 
ATOM      5  C   UNL     1       3.337   1.817   2.736  0.00  0.00    +0.000 A 
ATOM      6  C   UNL     1       3.451   3.139   2.309  0.00  0.00    +0.000 A 
ATOM      7  C   UNL     1       4.210   3.443   1.180  0.00  0.00    +0.000 A 
ATOM      8  C   UNL     1       4.856   2.425   0.476  0.00  0.00    +0.000 A 
ENDBRANCH   2   3
BRANCH   1   9
ATOM      9  C   UNL     1       5.550  -2.112  -1.194  0.00  0.00    +0.000 C 
ATOM     10  C   UNL     1       6.263  -3.072  -0.228  0.00  0.00    +0.000 C 
ATOM     11  C   UNL     1       6.960  -4.207  -0.975  0.00  0.00    +0.000 C 
ATOM     12  C   UNL     1       7.914  -3.680  -2.043  0.00  0.00    +0.000 C 
ATOM     13  C   UNL     1       7.211  -2.727  -3.005  0.00  0.00    +0.000 C 
ATOM     14  C   UNL     1       6.527  -1.582  -2.260  0.00  0.00    +0.000 C 
ENDBRANCH   1   9
BRANCH   1  15
ATOM     15  O   UNL     1       3.437  -1.180  -0.326  0.00  0.00    +0.000 OA
BRANCH  15  17
ATOM     16  C   UNL     1       1.277  -0.828  -1.155  0.00  0.00    +0.000 C 
ATOM     17  C   UNL     1       2.749  -0.722  -1.423  0.00  0.00    +0.000 C 
ATOM     18  O   UNL     1       3.223  -0.307  -2.473  0.00  0.00    +0.000 OA
ENDBRANCH  15  17
ENDBRANCH   1  15
TORSDOF 4
