REMARK  Name = *****
REMARK  3 active torsions:
REMARK  status: ('A' for Active; 'I' for Inactive)
REMARK    1  A    between atoms: C_4  and  C_7
REMARK    2  A    between atoms: C_7  and  C_8
REMARK    3  A    between atoms: C_8  and  C_9
REMARK                            x       y       z     vdW  Elec       q    Type
REMARK                         _______ _______ _______ _____ _____    ______ ____
ROOT
ATOM      1  C   UNL     1      -2.743   0.470  -0.010  0.00  0.00    +0.000 C 
ATOM      2  F   UNL     1      -3.152   1.124  -1.147  0.00  0.00    +0.000 F 
ATOM      3  F   UNL     1      -3.491  -0.683  -0.002  0.00  0.00    +0.000 F 
ENDROOT
BRANCH   1   7
ATOM      4  C   UNL     1       1.478  -0.470  -0.140  0.00  0.00    +0.000 A 
ATOM      5  C   UNL     1       0.638  -1.156   0.734  0.00  0.00    +0.000 A 
ATOM      6  C   UNL     1      -0.725  -0.859   0.771  0.00  0.00    +0.000 A 
ATOM      7  C   UNL     1      -1.261   0.134  -0.065  0.00  0.00    +0.000 A 
ATOM      8  C   UNL     1      -0.404   0.811  -0.947  0.00  0.00    +0.000 A 
ATOM      9  C   UNL     1       0.958   0.511  -0.982  0.00  0.00    +0.000 A 
ENDBRANCH   1   7
BRANCH   1  10
ATOM     10  C   UNL     1      -3.144   1.322   1.229  0.00  0.00    +0.000 C 
ATOM     11  F   UNL     1      -4.507   1.485   1.227  0.00  0.00    +0.000 F 
ATOM     12  F   UNL     1      -2.885   0.629   2.381  0.00  0.00    +0.000 F 
BRANCH  10  13
ATOM     13  C   UNL     1      -2.499   2.688   1.253  0.00  0.00    +0.000 A 
ATOM     14  C   UNL     1      -2.891   3.825   0.568  0.00  0.00    +0.000 A 
ATOM     15  C   UNL     1      -2.038   4.937   0.823  0.00  0.00    +0.000 A 
ATOM     16  C   UNL     1      -1.027   4.619   1.701  0.00  0.00    +0.000 A 
ATOM     17  S   UNL     1      -1.111   2.992   2.215  0.00  0.00    +0.000 S 
ENDBRANCH  10  13
ENDBRANCH   1  10
TORSDOF 3
