REMARK  Name = *****
REMARK  3 active torsions:
REMARK  status: ('A' for Active; 'I' for Inactive)
REMARK    1  A    between atoms: C_2  and  C_3
REMARK    2  A    between atoms: C_8  and  C_9
REMARK    3  A    between atoms: C_10  and  C_11
REMARK                            x       y       z     vdW  Elec       q    Type
REMARK                         _______ _______ _______ _____ _____    ______ ____
ROOT
ATOM      1  C   UNL     1       3.637  -0.114   0.024  0.00  0.00    +0.000 A 
ATOM      2  C   UNL     1       4.337   1.100   0.023  0.00  0.00    +0.000 A 
ATOM      3  C   UNL     1       5.731   1.113  -0.052  0.00  0.00    +0.000 A 
ATOM      4  C   UNL     1       6.435  -0.087  -0.124  0.00  0.00    +0.000 A 
ATOM      5  C   UNL     1       5.746  -1.301  -0.123  0.00  0.00    +0.000 A 
ATOM      6  C   UNL     1       4.347  -1.323  -0.052  0.00  0.00    +0.000 A 
ENDROOT
BRANCH   1   8
ATOM      7  C   UNL     1       1.005  -0.043   0.162  0.00  0.00    +0.000 C 
ATOM      8  C   UNL     1       2.204  -0.077   0.099  0.00  0.00    +0.000 C 
ENDBRANCH   1   8
BRANCH   6   9
ATOM      9  C   UNL     1       3.681  -2.593  -0.081  0.00  0.00    +0.000 C 
ATOM     10  C   UNL     1       3.122  -3.654  -0.140  0.00  0.00    +0.000 C 
BRANCH  10  11
ATOM     11  C   UNL     1       2.448  -4.910  -0.254  0.00  0.00    +0.000 A 
ATOM     12  C   UNL     1       3.124  -6.099   0.026  0.00  0.00    +0.000 A 
ATOM     13  C   UNL     1       2.470  -7.325  -0.115  0.00  0.00    +0.000 A 
ATOM     14  C   UNL     1       1.140  -7.362  -0.534  0.00  0.00    +0.000 A 
ATOM     15  C   UNL     1       0.461  -6.175  -0.808  0.00  0.00    +0.000 A 
ATOM     16  C   UNL     1       1.114  -4.949  -0.668  0.00  0.00    +0.000 A 
ENDBRANCH  10  11
ENDBRANCH   6   9
TORSDOF 3
