REMARK  Name = *****
REMARK  5 active torsions:
REMARK  status: ('A' for Active; 'I' for Inactive)
REMARK    1  A    between atoms: C_4  and  C_7
REMARK    2  A    between atoms: C_8  and  C_9
REMARK    3  A    between atoms: C_8  and  C_13
REMARK    4  A    between atoms: C_9  and  C_10
REMARK    5  A    between atoms: C_10  and  C_11
REMARK                            x       y       z     vdW  Elec       q    Type
REMARK                         _______ _______ _______ _____ _____    ______ ____
ROOT
ATOM      1  C   UNL     1      -2.752   0.492   0.063  0.00  0.00    +0.000 C 
ATOM      2  C   UNL     1      -3.486  -0.556  -0.363  0.00  0.00    +0.000 C 
ENDROOT
BRANCH   1   6
ATOM      3  C   UNL     1       1.492   0.557   0.488  0.00  0.00    +0.000 A 
ATOM      4  C   UNL     1       0.926   0.498  -0.784  0.00  0.00    +0.000 A 
ATOM      5  C   UNL     1      -0.462   0.480  -0.932  0.00  0.00    +0.000 A 
ATOM      6  C   UNL     1      -1.292   0.508   0.193  0.00  0.00    +0.000 A 
ATOM      7  C   UNL     1      -0.718   0.579   1.468  0.00  0.00    +0.000 A 
ATOM      8  C   UNL     1       0.671   0.601   1.614  0.00  0.00    +0.000 A 
ENDBRANCH   1   6
BRANCH   2   9
ATOM      9  C   UNL     1      -4.950  -0.388  -0.426  0.00  0.00    +0.000 A 
ATOM     10  C   UNL     1      -5.599  -0.314  -1.665  0.00  0.00    +0.000 A 
ATOM     11  C   UNL     1      -6.984  -0.146  -1.728  0.00  0.00    +0.000 A 
ATOM     12  C   UNL     1      -7.730  -0.052  -0.554  0.00  0.00    +0.000 A 
ATOM     13  C   UNL     1      -7.093  -0.124   0.684  0.00  0.00    +0.000 A 
ATOM     14  C   UNL     1      -5.708  -0.289   0.749  0.00  0.00    +0.000 A 
ENDBRANCH   2   9
BRANCH   2  15
ATOM     15  C   UNL     1      -2.947  -1.893  -0.824  0.00  0.00    +0.000 C 
BRANCH  15  16
ATOM     16  C   UNL     1      -2.634  -2.816   0.350  0.00  0.00    +0.000 C 
BRANCH  16  17
ATOM     17  C   UNL     1      -2.096  -4.149  -0.106  0.00  0.00    +0.000 C 
ATOM     18  O   UNL     1      -1.990  -4.498  -1.277  0.00  0.00    +0.000 OA
ENDBRANCH  16  17
ENDBRANCH  15  16
ENDBRANCH   2  15
TORSDOF 5
