REMARK  Name = *****
REMARK  5 active torsions:
REMARK  status: ('A' for Active; 'I' for Inactive)
REMARK    1  A    between atoms: C_1  and  C_2
REMARK    2  A    between atoms: C_5  and  S_8
REMARK    3  A    between atoms: S_8  and  C_10
REMARK    4  A    between atoms: C_10  and  C_11
REMARK    5  A    between atoms: C_10  and  C_13
REMARK                            x       y       z     vdW  Elec       q    Type
REMARK                         _______ _______ _______ _____ _____    ______ ____
ROOT
ATOM      1  S   UNL     1      -5.367   1.970  -1.513  0.00  0.00    +0.000 S 
ATOM      2  O   UNL     1      -5.731   3.426  -1.517  0.00  0.00    +0.000 OA
ENDROOT
BRANCH   1   7
ATOM      3  C   UNL     1      -1.777   1.028  -6.372  0.00  0.00    +0.000 C 
ATOM      4  C   UNL     1      -2.635   1.258  -5.164  0.00  0.00    +0.000 A 
ATOM      5  C   UNL     1      -2.792   2.547  -4.643  0.00  0.00    +0.000 A 
ATOM      6  C   UNL     1      -3.619   2.769  -3.540  0.00  0.00    +0.000 A 
ATOM      7  C   UNL     1      -4.295   1.704  -2.938  0.00  0.00    +0.000 A 
ATOM      8  C   UNL     1      -4.170   0.421  -3.479  0.00  0.00    +0.000 A 
ATOM      9  C   UNL     1      -3.344   0.199  -4.584  0.00  0.00    +0.000 A 
ENDBRANCH   1   7
BRANCH   1  10
ATOM     10  C   UNL     1      -4.162   1.676  -0.131  0.00  0.00    +0.000 C 
BRANCH  10  11
ATOM     11  C   UNL     1      -2.915   2.547  -0.216  0.00  0.00    +0.000 A 
ATOM     12  C   UNL     1      -1.677   2.072  -0.678  0.00  0.00    +0.000 A 
ATOM     13  C   UNL     1      -0.566   2.918  -0.744  0.00  0.00    +0.000 A 
ATOM     14  C   UNL     1      -0.673   4.249  -0.353  0.00  0.00    +0.000 A 
ATOM     15  C   UNL     1      -1.892   4.740   0.102  0.00  0.00    +0.000 A 
ATOM     16  C   UNL     1      -3.003   3.897   0.169  0.00  0.00    +0.000 A 
ENDBRANCH  10  11
BRANCH  10  17
ATOM     17  C   UNL     1      -3.957   0.163   0.024  0.00  0.00    +0.000 C 
ATOM     18 CL   UNL     1      -3.180  -0.256   1.578  0.00  0.00    +0.000 Cl
ENDBRANCH  10  17
ENDBRANCH   1  10
TORSDOF 4
