REMARK  Name = *****
REMARK  4 active torsions:
REMARK  status: ('A' for Active; 'I' for Inactive)
REMARK    1  A    between atoms: C_5  and  C_7
REMARK    2  A    between atoms: C_7  and  O_8
REMARK    3  A    between atoms: O_8  and  C_9
REMARK    4  A    between atoms: C_9  and  C_11
REMARK                            x       y       z     vdW  Elec       q    Type
REMARK                         _______ _______ _______ _____ _____    ______ ____
ROOT
ATOM      1  O   UNL     1      -1.597   0.177   2.404  0.00  0.00    +0.000 OA
ENDROOT
BRANCH   1   2
ATOM      2  C   UNL     1      -2.549   0.782   3.155  0.00  0.00    +0.000 C 
ATOM      3  O   UNL     1      -3.727   0.473   3.216  0.00  0.00    +0.000 OA
BRANCH   2   4
ATOM      4  C   UNL     1      -1.962   1.927   3.903  0.00  0.00    +0.000 A 
ATOM      5  C   UNL     1      -0.578   2.112   4.025  0.00  0.00    +0.000 A 
ATOM      6  C   UNL     1      -0.077   3.199   4.746  0.00  0.00    +0.000 A 
ATOM      7  C   UNL     1      -0.953   4.104   5.345  0.00  0.00    +0.000 A 
ATOM      8  C   UNL     1      -2.331   3.925   5.228  0.00  0.00    +0.000 A 
ATOM      9  C   UNL     1      -2.835   2.838   4.512  0.00  0.00    +0.000 A 
ENDBRANCH   2   4
ENDBRANCH   1   2
BRANCH   1  10
ATOM     10  C   UNL     1      -2.045  -0.919   1.585  0.00  0.00    +0.000 C 
BRANCH  10  15
ATOM     11  C   UNL     1      -2.681  -2.298  -1.281  0.00  0.00    +0.000 C 
ATOM     12  C   UNL     1      -2.737  -1.145  -2.285  0.00  0.00    +0.000 C 
ATOM     13  C   UNL     1      -2.223   0.151  -1.731  0.00  0.00    +0.000 C 
ATOM     14  C   UNL     1      -1.548   0.245  -0.575  0.00  0.00    +0.000 C 
ATOM     15  C   UNL     1      -1.205  -0.946   0.294  0.00  0.00    +0.000 C 
ATOM     16  C   UNL     1      -1.386  -2.271  -0.470  0.00  0.00    +0.000 C 
ENDBRANCH  10  15
ENDBRANCH   1  10
TORSDOF 4
