REMARK  Name = *****
REMARK  5 active torsions:
REMARK  status: ('A' for Active; 'I' for Inactive)
REMARK    1  A    between atoms: C_1  and  C_2
REMARK    2  A    between atoms: C_5  and  N_8
REMARK    3  A    between atoms: N_8  and  C_9
REMARK    4  A    between atoms: N_8  and  C_10
REMARK    5  A    between atoms: C_10  and  C_12
REMARK                            x       y       z     vdW  Elec       q    Type
REMARK                         _______ _______ _______ _____ _____    ______ ____
ROOT
ATOM      1  N   UNL     1      -3.042   0.367   0.327  0.00  0.00    +0.000 N 
ATOM      2  C   UNL     1      -3.960  -0.745   0.606  0.00  0.00    +0.000 C 
ENDROOT
BRANCH   1   7
ATOM      3  C   UNL     1       2.570  -1.003   0.238  0.00  0.00    +0.000 C 
ATOM      4  C   UNL     1       1.116  -0.643   0.221  0.00  0.00    +0.000 A 
ATOM      5  C   UNL     1       0.147  -1.591  -0.110  0.00  0.00    +0.000 A 
ATOM      6  C   UNL     1      -1.215  -1.260  -0.087  0.00  0.00    +0.000 A 
ATOM      7  C   UNL     1      -1.660   0.022   0.277  0.00  0.00    +0.000 A 
ATOM      8  C   UNL     1      -0.665   0.957   0.617  0.00  0.00    +0.000 A 
ATOM      9  C   UNL     1       0.698   0.634   0.596  0.00  0.00    +0.000 A 
ENDBRANCH   1   7
BRANCH   1  10
ATOM     10  C   UNL     1      -3.510   1.686   0.259  0.00  0.00    +0.000 C 
ATOM     11  C   UNL     1      -3.136   2.579  -0.673  0.00  0.00    +0.000 C 
BRANCH  10  12
ATOM     12  C   UNL     1      -4.464   2.137   1.304  0.00  0.00    +0.000 A 
ATOM     13  C   UNL     1      -5.711   2.688   0.972  0.00  0.00    +0.000 A 
ATOM     14  C   UNL     1      -6.594   3.099   1.973  0.00  0.00    +0.000 A 
ATOM     15  C   UNL     1      -6.242   2.961   3.315  0.00  0.00    +0.000 A 
ATOM     16  C   UNL     1      -5.009   2.411   3.659  0.00  0.00    +0.000 A 
ATOM     17  C   UNL     1      -4.126   2.000   2.659  0.00  0.00    +0.000 A 
ENDBRANCH  10  12
ENDBRANCH   1  10
TORSDOF 3
