REMARK  Name = *****
REMARK  2 active torsions:
REMARK  status: ('A' for Active; 'I' for Inactive)
REMARK    1  A    between atoms: C_4  and  C_8
REMARK    2  A    between atoms: N_9  and  C_10
REMARK                            x       y       z     vdW  Elec       q    Type
REMARK                         _______ _______ _______ _____ _____    ______ ____
ROOT
ATOM      1  C   UNL     1      -0.211   2.190   0.168  0.00  0.00    +0.000 C 
ATOM      2  N   UNL     1      -1.138   2.868  -0.430  0.00  0.00    +0.000 NA
ENDROOT
BRANCH   1   6
ATOM      3  C   UNL     1       0.038  -2.078  -0.080  0.00  0.00    +0.000 A 
ATOM      4  C   UNL     1       1.171  -1.289  -0.263  0.00  0.00    +0.000 A 
ATOM      5  C   UNL     1       1.080   0.105  -0.174  0.00  0.00    +0.000 A 
ATOM      6  C   UNL     1      -0.153   0.719   0.093  0.00  0.00    +0.000 A 
ATOM      7  C   UNL     1      -1.288  -0.080   0.291  0.00  0.00    +0.000 A 
ATOM      8  C   UNL     1      -1.187  -1.475   0.200  0.00  0.00    +0.000 A 
ATOM      9 CL   UNL     1      -2.833   0.556   0.737  0.00  0.00    +0.000 Cl
ATOM     10 CL   UNL     1       2.532   1.008  -0.440  0.00  0.00    +0.000 Cl
ENDBRANCH   1   6
BRANCH   2  11
ATOM     11  C   UNL     1      -1.072   4.259  -0.289  0.00  0.00    +0.000 A 
ATOM     12  C   UNL     1      -0.195   5.019  -1.072  0.00  0.00    +0.000 A 
ATOM     13  C   UNL     1      -0.151   6.407  -0.934  0.00  0.00    +0.000 A 
ATOM     14  C   UNL     1      -0.993   7.030  -0.020  0.00  0.00    +0.000 A 
ATOM     15  C   UNL     1      -1.881   6.292   0.755  0.00  0.00    +0.000 A 
ATOM     16  C   UNL     1      -1.923   4.904   0.615  0.00  0.00    +0.000 A 
ATOM     17  F   UNL     1      -0.952   8.362   0.113  0.00  0.00    +0.000 F 
ENDBRANCH   2  11
TORSDOF 2
