REMARK  Name = *****
REMARK  3 active torsions:
REMARK  status: ('A' for Active; 'I' for Inactive)
REMARK    1  A    between atoms: C_1  and  C_2
REMARK    2  A    between atoms: C_2  and  C_10
REMARK    3  A    between atoms: N_3  and  C_4
REMARK                            x       y       z     vdW  Elec       q    Type
REMARK                         _______ _______ _______ _____ _____    ______ ____
ROOT
ATOM      1  C   UNL     1       1.201   0.082   0.983  0.00  0.00    +0.000 C 
ATOM      2  C   UNL     1       2.492  -0.103   0.213  0.00  0.00    +0.000 C 
ATOM      3  N   UNL     1       2.989  -1.251  -0.145  0.00  0.00    +0.000 NA
ENDROOT
BRANCH   3   4
ATOM      4  C   UNL     1       2.321  -2.437   0.178  0.00  0.00    +0.000 A 
ATOM      5  C   UNL     1       1.294  -2.920  -0.637  0.00  0.00    +0.000 A 
ATOM      6  C   UNL     1       0.645  -4.116  -0.322  0.00  0.00    +0.000 A 
ATOM      7  C   UNL     1       1.031  -4.842   0.804  0.00  0.00    +0.000 A 
ATOM      8  C   UNL     1       2.070  -4.377   1.609  0.00  0.00    +0.000 A 
ATOM      9  C   UNL     1       2.717  -3.181   1.292  0.00  0.00    +0.000 A 
ENDBRANCH   3   4
BRANCH   2  10
ATOM     10  C   UNL     1       3.238   1.168  -0.197  0.00  0.00    +0.000 C 
ATOM     11  C   UNL     1       3.489   1.201  -1.709  0.00  0.00    +0.000 C 
ATOM     12  C   UNL     1       4.278   2.444  -2.115  0.00  0.00    +0.000 C 
ATOM     13  C   UNL     1       5.582   2.561  -1.331  0.00  0.00    +0.000 C 
ATOM     14  C   UNL     1       5.340   2.523   0.176  0.00  0.00    +0.000 C 
ATOM     15  C   UNL     1       4.548   1.284   0.589  0.00  0.00    +0.000 C 
ENDBRANCH   2  10
TORSDOF 2
