REMARK  Name = *****
REMARK  2 active torsions:
REMARK  status: ('A' for Active; 'I' for Inactive)
REMARK    1  A    between atoms: C_1  and  C_2
REMARK    2  A    between atoms: C_2  and  C_7
REMARK                            x       y       z     vdW  Elec       q    Type
REMARK                         _______ _______ _______ _____ _____    ______ ____
ROOT
ATOM      1  C   UNL     1       0.749   1.276   1.972  0.00  0.00    +0.000 A 
ATOM      2  C   UNL     1       1.151   0.307   2.919  0.00  0.00    +0.000 A 
ATOM      3  C   UNL     1       1.541   0.648   4.228  0.00  0.00    +0.000 A 
ATOM      4  C   UNL     1       1.958  -0.327   5.149  0.00  0.00    +0.000 A 
ATOM      5  C   UNL     1       2.339   0.028   6.444  0.00  0.00    +0.000 A 
ATOM      6  C   UNL     1       2.305   1.362   6.837  0.00  0.00    +0.000 A 
ATOM      7  C   UNL     1       1.893   2.344   5.933  0.00  0.00    +0.000 A 
ATOM      8  C   UNL     1       1.512   2.000   4.626  0.00  0.00    +0.000 A 
ATOM      9  C   UNL     1       1.097   2.969   3.704  0.00  0.00    +0.000 A 
ATOM     10  C   UNL     1       0.723   2.613   2.403  0.00  0.00    +0.000 A 
ENDROOT
BRANCH   1  12
ATOM     11  C   UNL     1       0.199   2.021  -0.450  0.00  0.00    +0.000 C 
ATOM     12  C   UNL     1       0.309   0.865   0.562  0.00  0.00    +0.000 C 
ATOM     13  S   UNL     1      -1.363   0.075   0.642  0.00  0.00    +0.000 S 
ATOM     14  C   UNL     1      -0.864  -1.583   0.119  0.00  0.00    +0.000 C 
ATOM     15  C   UNL     1       0.244  -1.443  -0.903  0.00  0.00    +0.000 C 
ATOM     16  S   UNL     1       1.492  -0.341  -0.199  0.00  0.00    +0.000 S 
ENDBRANCH   1  12
TORSDOF 1
