REMARK  Name = *****
REMARK  3 active torsions:
REMARK  status: ('A' for Active; 'I' for Inactive)
REMARK    1  A    between atoms: C_1  and  C_2
REMARK    2  A    between atoms: C_7  and  C_8
REMARK    3  A    between atoms: C_10  and  C_11
REMARK                            x       y       z     vdW  Elec       q    Type
REMARK                         _______ _______ _______ _____ _____    ______ ____
ROOT
ATOM      1  C   UNL     1       1.386  -2.133  -0.652  0.00  0.00    +0.000 C 
ATOM      2  C   UNL     1       2.577  -1.807  -1.517  0.00  0.00    +0.000 C 
ATOM      3  C   UNL     1       2.802  -2.282  -0.107  0.00  0.00    +0.000 C 
ENDROOT
BRANCH   1  10
ATOM      4  C   UNL     1      -0.294  -0.467  -2.506  0.00  0.00    +0.000 C 
ATOM      5  C   UNL     1      -0.317  -0.243  -1.017  0.00  0.00    +0.000 A 
ATOM      6  C   UNL     1      -1.129   0.783  -0.502  0.00  0.00    +0.000 A 
ATOM      7  C   UNL     1      -1.186   1.028   0.868  0.00  0.00    +0.000 A 
ATOM      8  C   UNL     1      -0.431   0.252   1.737  0.00  0.00    +0.000 A 
ATOM      9  C   UNL     1       0.388  -0.760   1.232  0.00  0.00    +0.000 A 
ATOM     10  C   UNL     1       0.484  -1.021  -0.149  0.00  0.00    +0.000 A 
ENDBRANCH   1  10
BRANCH   3  11
ATOM     11  C   UNL     1       3.366  -3.660   0.150  0.00  0.00    +0.000 A 
ATOM     12  C   UNL     1       4.602  -4.053  -0.388  0.00  0.00    +0.000 A 
ATOM     13  C   UNL     1       5.135  -5.321  -0.139  0.00  0.00    +0.000 A 
ATOM     14  C   UNL     1       4.441  -6.223   0.662  0.00  0.00    +0.000 A 
ATOM     15  C   UNL     1       3.219  -5.855   1.216  0.00  0.00    +0.000 A 
ATOM     16  C   UNL     1       2.691  -4.586   0.964  0.00  0.00    +0.000 A 
ENDBRANCH   3  11
TORSDOF 2
