REMARK  Name = *****
REMARK  5 active torsions:
REMARK  status: ('A' for Active; 'I' for Inactive)
REMARK    1  A    between atoms: C_1  and  C_2
REMARK    2  A    between atoms: C_5  and  C_8
REMARK    3  A    between atoms: C_8  and  N_9
REMARK    4  A    between atoms: N_9  and  N_10
REMARK    5  A    between atoms: N_10  and  C_11
REMARK                            x       y       z     vdW  Elec       q    Type
REMARK                         _______ _______ _______ _____ _____    ______ ____
ROOT
ATOM      1  C   UNL     1       6.629   0.129  -0.815  0.00  0.00    +0.000 C 
ENDROOT
BRANCH   1   6
ATOM      2  C   UNL     1       1.000   0.066   0.288  0.00  0.00    +0.000 C 
ATOM      3  C   UNL     1       2.477   0.086   0.030  0.00  0.00    +0.000 A 
ATOM      4  C   UNL     1       3.144   1.299  -0.188  0.00  0.00    +0.000 A 
ATOM      5  C   UNL     1       4.515   1.312  -0.462  0.00  0.00    +0.000 A 
ATOM      6  C   UNL     1       5.228   0.115  -0.530  0.00  0.00    +0.000 A 
ATOM      7  C   UNL     1       4.567  -1.097  -0.330  0.00  0.00    +0.000 A 
ATOM      8  C   UNL     1       3.197  -1.113  -0.056  0.00  0.00    +0.000 A 
ENDBRANCH   1   6
BRANCH   1   9
ATOM      9  N   UNL     1       7.720   0.135  -1.043  0.00  0.00    +0.000 NA
BRANCH   9  10
ATOM     10  N   UNL     1       9.156   0.159  -1.302  0.00  0.00    +0.000 NA
BRANCH  10  11
ATOM     11  C   UNL     1       9.531  -0.300  -2.519  0.00  0.00    +0.000 A 
ATOM     12  C   UNL     1       8.655  -0.761  -3.515  0.00  0.00    +0.000 A 
ATOM     13  C   UNL     1       9.119  -1.222  -4.754  0.00  0.00    +0.000 A 
ATOM     14  C   UNL     1      10.482  -1.233  -5.030  0.00  0.00    +0.000 A 
ATOM     15  C   UNL     1      11.376  -0.782  -4.064  0.00  0.00    +0.000 A 
ATOM     16  C   UNL     1      10.901  -0.324  -2.830  0.00  0.00    +0.000 A 
ENDBRANCH  10  11
ENDBRANCH   9  10
ENDBRANCH   1   9
TORSDOF 4
