REMARK  Name = *****
REMARK  4 active torsions:
REMARK  status: ('A' for Active; 'I' for Inactive)
REMARK    1  A    between atoms: C_2  and  C_3
REMARK    2  A    between atoms: C_6  and  C_9
REMARK    3  A    between atoms: C_9  and  S_10
REMARK    4  A    between atoms: S_10  and  C_11
REMARK                            x       y       z     vdW  Elec       q    Type
REMARK                         _______ _______ _______ _____ _____    ______ ____
ROOT
ATOM      1  C   UNL     1       3.066  -0.692  -1.072  0.00  0.00    +0.000 A 
ATOM      2  C   UNL     1       2.461  -0.444  -2.310  0.00  0.00    +0.000 A 
ATOM      3  C   UNL     1       2.995  -0.978  -3.487  0.00  0.00    +0.000 A 
ATOM      4  C   UNL     1       4.151  -1.768  -3.451  0.00  0.00    +0.000 A 
ATOM      5  C   UNL     1       4.772  -1.996  -2.216  0.00  0.00    +0.000 A 
ATOM      6  C   UNL     1       4.235  -1.461  -1.040  0.00  0.00    +0.000 A 
ENDROOT
BRANCH   1   8
ATOM      7  C   UNL     1       2.511  -0.641   1.353  0.00  0.00    +0.000 C 
ATOM      8  C   UNL     1       2.488  -0.084   0.134  0.00  0.00    +0.000 C 
ENDBRANCH   1   8
BRANCH   4   9
ATOM      9  C   UNL     1       4.734  -2.335  -4.720  0.00  0.00    +0.000 C 
BRANCH   9  10
ATOM     10  S   UNL     1       5.938  -1.192  -5.471  0.00  0.00    +0.000 S 
BRANCH  10  11
ATOM     11  C   UNL     1       6.469  -2.197  -6.843  0.00  0.00    +0.000 A 
ATOM     12  C   UNL     1       5.601  -2.491  -7.899  0.00  0.00    +0.000 A 
ATOM     13  C   UNL     1       6.035  -3.276  -8.969  0.00  0.00    +0.000 A 
ATOM     14  C   UNL     1       7.340  -3.765  -8.992  0.00  0.00    +0.000 A 
ATOM     15  C   UNL     1       8.214  -3.464  -7.948  0.00  0.00    +0.000 A 
ATOM     16  C   UNL     1       7.780  -2.679  -6.878  0.00  0.00    +0.000 A 
ENDBRANCH  10  11
ENDBRANCH   9  10
ENDBRANCH   4   9
TORSDOF 4
