REMARK  Name = *****
REMARK  5 active torsions:
REMARK  status: ('A' for Active; 'I' for Inactive)
REMARK    1  A    between atoms: C_1  and  C_2
REMARK    2  A    between atoms: C_5  and  C_8
REMARK    3  A    between atoms: C_8  and  O_9
REMARK    4  A    between atoms: O_9  and  C_10
REMARK    5  A    between atoms: C_13  and  C_16
REMARK                            x       y       z     vdW  Elec       q    Type
REMARK                         _______ _______ _______ _____ _____    ______ ____
ROOT
ATOM      1  O   UNL     1      -3.839   1.316  -0.140  0.00  0.00    +0.000 OA
ENDROOT
BRANCH   1   2
ATOM      2  C   UNL     1      -5.194   1.480  -0.080  0.00  0.00    +0.000 A 
ATOM      3  C   UNL     1      -6.138   0.474   0.121  0.00  0.00    +0.000 A 
ATOM      4  C   UNL     1      -7.502   0.789   0.161  0.00  0.00    +0.000 A 
ATOM      5  C   UNL     1      -7.940   2.113   0.000  0.00  0.00    +0.000 A 
ATOM      6  C   UNL     1      -6.989   3.119  -0.202  0.00  0.00    +0.000 A 
ATOM      7  C   UNL     1      -5.627   2.798  -0.241  0.00  0.00    +0.000 A 
BRANCH   5   8
ATOM      8  C   UNL     1      -9.411   2.402   0.051  0.00  0.00    +0.000 C 
ATOM      9  O   UNL     1     -10.167   1.448   0.230  0.00  0.00    +0.000 OA
ATOM     10 CL   UNL     1      -9.986   4.046  -0.140  0.00  0.00    +0.000 Cl
ENDBRANCH   5   8
ENDBRANCH   1   2
BRANCH   1  11
ATOM     11  C   UNL     1      -3.332  -0.009   0.031  0.00  0.00    +0.000 C 
BRANCH  11  16
ATOM     12  C   UNL     1       2.498   0.024  -0.063  0.00  0.00    +0.000 C 
ATOM     13  C   UNL     1       0.999   0.039  -0.067  0.00  0.00    +0.000 A 
ATOM     14  C   UNL     1       0.297   0.957   0.721  0.00  0.00    +0.000 A 
ATOM     15  C   UNL     1      -1.099   0.950   0.743  0.00  0.00    +0.000 A 
ATOM     16  C   UNL     1      -1.822   0.024  -0.021  0.00  0.00    +0.000 A 
ATOM     17  C   UNL     1      -1.116  -0.911  -0.790  0.00  0.00    +0.000 A 
ATOM     18  C   UNL     1       0.281  -0.904  -0.811  0.00  0.00    +0.000 A 
ENDBRANCH  11  16
ENDBRANCH   1  11
TORSDOF 4
