REMARK  Name = *****
REMARK  3 active torsions:
REMARK  status: ('A' for Active; 'I' for Inactive)
REMARK    1  A    between atoms: C_4  and  O_7
REMARK    2  A    between atoms: O_7  and  C_8
REMARK    3  A    between atoms: C_8  and  C_10
REMARK                            x       y       z     vdW  Elec       q    Type
REMARK                         _______ _______ _______ _____ _____    ______ ____
ROOT
ATOM      1  C   UNL     1      -3.634  -0.734  -0.148  0.00  0.00    +0.000 C 
ATOM      2  O   UNL     1      -3.332  -1.830   0.298  0.00  0.00    +0.000 OA
ENDROOT
BRANCH   1   3
ATOM      3  C   UNL     1      -5.030  -0.369  -0.522  0.00  0.00    +0.000 A 
ATOM      4  C   UNL     1      -5.374   0.895  -1.019  0.00  0.00    +0.000 A 
ATOM      5  C   UNL     1      -6.701   1.170  -1.348  0.00  0.00    +0.000 A 
ATOM      6  C   UNL     1      -7.691   0.202  -1.189  0.00  0.00    +0.000 A 
ATOM      7  C   UNL     1      -7.355  -1.057  -0.695  0.00  0.00    +0.000 A 
ATOM      8  C   UNL     1      -6.029  -1.342  -0.362  0.00  0.00    +0.000 A 
ATOM      9 CL   UNL     1      -7.122   2.724  -1.958  0.00  0.00    +0.000 Cl
ENDBRANCH   1   3
BRANCH   1  10
ATOM     10  O   UNL     1      -2.793   0.338  -0.385  0.00  0.00    +0.000 OA
BRANCH  10  14
ATOM     11  C   UNL     1       1.277  -0.100   0.436  0.00  0.00    +0.000 A 
ATOM     12  C   UNL     1       0.670  -0.961  -0.481  0.00  0.00    +0.000 A 
ATOM     13  C   UNL     1      -0.691  -0.839  -0.759  0.00  0.00    +0.000 A 
ATOM     14  C   UNL     1      -1.437   0.135  -0.097  0.00  0.00    +0.000 A 
ATOM     15  C   UNL     1      -0.837   1.013   0.805  0.00  0.00    +0.000 A 
ATOM     16  C   UNL     1       0.525   0.887   1.077  0.00  0.00    +0.000 A 
ENDBRANCH  10  14
ENDBRANCH   1  10
TORSDOF 3
