REMARK  Name = *****
REMARK  2 active torsions:
REMARK  status: ('A' for Active; 'I' for Inactive)
REMARK    1  A    between atoms: C_3  and  N_8
REMARK    2  A    between atoms: C_9  and  C_10
REMARK                            x       y       z     vdW  Elec       q    Type
REMARK                         _______ _______ _______ _____ _____    ______ ____
ROOT
ATOM      1  N   UNL     1      -1.889   2.480   0.492  0.00  0.00    +0.000 NA
ATOM      2  C   UNL     1      -1.490   3.508  -0.188  0.00  0.00    +0.000 C 
ENDROOT
BRANCH   1   5
ATOM      3  C   UNL     1      -1.023  -0.872  -0.832  0.00  0.00    +0.000 A 
ATOM      4  C   UNL     1      -1.701   0.331  -0.613  0.00  0.00    +0.000 A 
ATOM      5  C   UNL     1      -1.188   1.287   0.271  0.00  0.00    +0.000 A 
ATOM      6  C   UNL     1      -0.003   1.020   0.957  0.00  0.00    +0.000 A 
ATOM      7  C   UNL     1       0.665  -0.178   0.734  0.00  0.00    +0.000 A 
ATOM      8  C   UNL     1       0.169  -1.125  -0.157  0.00  0.00    +0.000 A 
ATOM      9  F   UNL     1       1.808  -0.427   1.387  0.00  0.00    +0.000 F 
ENDBRANCH   1   5
BRANCH   2  10
ATOM     10  C   UNL     1      -2.135   4.829  -0.054  0.00  0.00    +0.000 A 
ATOM     11  C   UNL     1      -3.219   5.012   0.812  0.00  0.00    +0.000 A 
ATOM     12  C   UNL     1      -3.813   6.270   0.922  0.00  0.00    +0.000 A 
ATOM     13  C   UNL     1      -3.320   7.329   0.167  0.00  0.00    +0.000 A 
ATOM     14  C   UNL     1      -2.242   7.156  -0.696  0.00  0.00    +0.000 A 
ATOM     15  C   UNL     1      -1.643   5.900  -0.810  0.00  0.00    +0.000 A 
ATOM     16  F   UNL     1      -3.890   8.536   0.273  0.00  0.00    +0.000 F 
ENDBRANCH   2  10
TORSDOF 2
