REMARK  Name = *****
REMARK  3 active torsions:
REMARK  status: ('A' for Active; 'I' for Inactive)
REMARK    1  A    between atoms: C_4  and  C_7
REMARK    2  A    between atoms: C_7  and  C_8
REMARK    3  A    between atoms: C_9  and  C_10
REMARK                            x       y       z     vdW  Elec       q    Type
REMARK                         _______ _______ _______ _____ _____    ______ ____
ROOT
ATOM      1  C   UNL     1      -3.571  -0.987  -0.066  0.00  0.00    +0.000 C 
ATOM      2  C   UNL     1      -3.035  -2.127  -0.537  0.00  0.00    +0.000 C 
ATOM      3 CL   UNL     1      -5.206  -0.901   0.512  0.00  0.00    +0.000 Cl
ENDROOT
BRANCH   2   4
ATOM      4  C   UNL     1      -3.709  -3.425  -0.579  0.00  0.00    +0.000 A 
ATOM      5  C   UNL     1      -4.518  -3.772  -1.666  0.00  0.00    +0.000 A 
ATOM      6  C   UNL     1      -5.157  -5.013  -1.696  0.00  0.00    +0.000 A 
ATOM      7  C   UNL     1      -4.991  -5.910  -0.641  0.00  0.00    +0.000 A 
ATOM      8  C   UNL     1      -4.188  -5.568   0.446  0.00  0.00    +0.000 A 
ATOM      9  C   UNL     1      -3.547  -4.328   0.478  0.00  0.00    +0.000 A 
ENDBRANCH   2   4
BRANCH   1  10
ATOM     10  C   UNL     1      -2.817   0.319  -0.036  0.00  0.00    +0.000 C 
BRANCH  10  14
ATOM     11  C   UNL     1      -0.580   1.338   3.533  0.00  0.00    +0.000 A 
ATOM     12  C   UNL     1      -1.398   0.211   3.543  0.00  0.00    +0.000 A 
ATOM     13  C   UNL     1      -2.131  -0.136   2.405  0.00  0.00    +0.000 A 
ATOM     14  C   UNL     1      -2.053   0.636   1.237  0.00  0.00    +0.000 A 
ATOM     15  C   UNL     1      -1.227   1.774   1.247  0.00  0.00    +0.000 A 
ATOM     16  C   UNL     1      -0.496   2.121   2.385  0.00  0.00    +0.000 A 
ENDBRANCH  10  14
ENDBRANCH   1  10
TORSDOF 3
