REMARK  Name = *****
REMARK  3 active torsions:
REMARK  status: ('A' for Active; 'I' for Inactive)
REMARK    1  A    between atoms: C_4  and  O_8
REMARK    2  A    between atoms: O_8  and  C_9
REMARK    3  A    between atoms: C_9  and  C_11
REMARK                            x       y       z     vdW  Elec       q    Type
REMARK                         _______ _______ _______ _____ _____    ______ ____
ROOT
ATOM      1  O   UNL     1       2.479  -1.258   0.113  0.00  0.00    +0.000 OA
ENDROOT
BRANCH   1   5
ATOM      2  C   UNL     1       0.087   0.025   1.365  0.00  0.00    +0.000 C 
ATOM      3  C   UNL     1       0.004   1.107   0.287  0.00  0.00    +0.000 C 
ATOM      4  C   UNL     1       1.256   0.783  -0.556  0.00  0.00    +0.000 C 
ATOM      5  C   UNL     1       1.291  -0.775  -0.533  0.00  0.00    +0.000 C 
ATOM      6  C   UNL     1       0.065  -1.124   0.349  0.00  0.00    +0.000 C 
ATOM      7  C   UNL     1      -1.182  -0.737  -0.414  0.00  0.00    +0.000 C 
ATOM      8  C   UNL     1      -1.212   0.604  -0.459  0.00  0.00    +0.000 C 
ENDBRANCH   1   5
BRANCH   1   9
ATOM      9  C   UNL     1       3.601  -1.232  -0.648  0.00  0.00    +0.000 C 
ATOM     10  O   UNL     1       3.673  -0.841  -1.802  0.00  0.00    +0.000 OA
BRANCH   9  11
ATOM     11  C   UNL     1       4.767  -1.747   0.121  0.00  0.00    +0.000 A 
ATOM     12  C   UNL     1       6.008  -1.813  -0.526  0.00  0.00    +0.000 A 
ATOM     13  C   UNL     1       7.133  -2.287   0.154  0.00  0.00    +0.000 A 
ATOM     14  C   UNL     1       7.023  -2.695   1.482  0.00  0.00    +0.000 A 
ATOM     15  C   UNL     1       5.792  -2.632   2.134  0.00  0.00    +0.000 A 
ATOM     16  C   UNL     1       4.664  -2.159   1.457  0.00  0.00    +0.000 A 
ENDBRANCH   9  11
ENDBRANCH   1   9
TORSDOF 3
