REMARK  Name = *****
REMARK  4 active torsions:
REMARK  status: ('A' for Active; 'I' for Inactive)
REMARK    1  A    between atoms: C_1  and  C_2
REMARK    2  A    between atoms: C_3  and  O_9
REMARK    3  A    between atoms: O_9  and  C_10
REMARK    4  A    between atoms: C_10  and  C_11
REMARK                            x       y       z     vdW  Elec       q    Type
REMARK                         _______ _______ _______ _____ _____    ______ ____
ROOT
ATOM      1  O   UNL     1      -3.430  -1.057  -0.076  0.00  0.00    +0.000 OA
ENDROOT
BRANCH   1   4
ATOM      2  C   UNL     1      -2.378   2.015  -0.008  0.00  0.00    +0.000 C 
ATOM      3  C   UNL     1      -1.631   0.711  -0.005  0.00  0.00    +0.000 A 
ATOM      4  C   UNL     1      -2.147  -0.595  -0.040  0.00  0.00    +0.000 A 
ATOM      5  C   UNL     1      -1.248  -1.683  -0.053  0.00  0.00    +0.000 A 
ATOM      6  C   UNL     1       0.135  -1.507  -0.028  0.00  0.00    +0.000 A 
ATOM      7  C   UNL     1       0.646  -0.224   0.010  0.00  0.00    +0.000 A 
ATOM      8  C   UNL     1      -0.220   0.868   0.022  0.00  0.00    +0.000 A 
ATOM      9 CL   UNL     1       2.347   0.028   0.039  0.00  0.00    +0.000 Cl
ENDBRANCH   1   4
BRANCH   1  10
ATOM     10  C   UNL     1      -4.544  -0.192   0.052  0.00  0.00    +0.000 C 
BRANCH  10  11
ATOM     11  C   UNL     1      -5.833  -0.991   0.109  0.00  0.00    +0.000 A 
ATOM     12  C   UNL     1      -6.952  -0.452   0.765  0.00  0.00    +0.000 A 
ATOM     13  C   UNL     1      -8.166  -1.143   0.787  0.00  0.00    +0.000 A 
ATOM     14  C   UNL     1      -8.273  -2.374   0.145  0.00  0.00    +0.000 A 
ATOM     15  C   UNL     1      -7.178  -2.918  -0.522  0.00  0.00    +0.000 A 
ATOM     16  C   UNL     1      -5.965  -2.226  -0.545  0.00  0.00    +0.000 A 
ATOM     17 CL   UNL     1      -9.770  -3.223   0.167  0.00  0.00    +0.000 Cl
ENDBRANCH  10  11
ENDBRANCH   1  10
TORSDOF 3
