REMARK  Name = *****
REMARK  2 active torsions:
REMARK  status: ('A' for Active; 'I' for Inactive)
REMARK    1  A    between atoms: C_4  and  C_7
REMARK    2  A    between atoms: N_8  and  C_9
REMARK                            x       y       z     vdW  Elec       q    Type
REMARK                         _______ _______ _______ _____ _____    ______ ____
ROOT
ATOM      1  C   UNL     1      -5.024  -0.322  -0.693  0.00  0.00    +0.000 A 
ATOM      2  C   UNL     1      -5.531   0.703  -1.506  0.00  0.00    +0.000 A 
ATOM      3  C   UNL     1      -6.904   0.928  -1.604  0.00  0.00    +0.000 A 
ATOM      4  C   UNL     1      -7.807   0.137  -0.908  0.00  0.00    +0.000 A 
ATOM      5  C   UNL     1      -7.317  -0.888  -0.110  0.00  0.00    +0.000 A 
ATOM      6  C   UNL     1      -5.946  -1.120  -0.005  0.00  0.00    +0.000 A 
ATOM      7  F   UNL     1      -5.515  -2.122   0.778  0.00  0.00    +0.000 F 
ATOM      8  F   UNL     1      -8.182  -1.658   0.564  0.00  0.00    +0.000 F 
ATOM      9  F   UNL     1      -7.366   1.921  -2.376  0.00  0.00    +0.000 F 
ATOM     10  F   UNL     1      -4.692   1.492  -2.196  0.00  0.00    +0.000 F 
ENDROOT
BRANCH   1  12
ATOM     11  C   UNL     1      -2.854   0.348  -0.227  0.00  0.00    +0.000 C 
ATOM     12  N   UNL     1      -3.645  -0.608  -0.600  0.00  0.00    +0.000 NA
BRANCH  11  16
ATOM     13  C   UNL     1       1.361  -0.179   0.149  0.00  0.00    +0.000 A 
ATOM     14  C   UNL     1       0.561  -1.263  -0.215  0.00  0.00    +0.000 A 
ATOM     15  C   UNL     1      -0.819  -1.100  -0.342  0.00  0.00    +0.000 A 
ATOM     16  C   UNL     1      -1.396   0.150  -0.102  0.00  0.00    +0.000 A 
ATOM     17  C   UNL     1      -0.597   1.237   0.264  0.00  0.00    +0.000 A 
ATOM     18  C   UNL     1       0.784   1.069   0.388  0.00  0.00    +0.000 A 
ENDBRANCH  11  16
ENDBRANCH   1  12
TORSDOF 2
