REMARK  Name = *****
REMARK  3 active torsions:
REMARK  status: ('A' for Active; 'I' for Inactive)
REMARK    1  A    between atoms: C_4  and  C_7
REMARK    2  A    between atoms: C_7  and  O_8
REMARK    3  A    between atoms: O_8  and  C_9
REMARK                            x       y       z     vdW  Elec       q    Type
REMARK                         _______ _______ _______ _____ _____    ______ ____
ROOT
ATOM      1  O   UNL     1      -3.604  -0.762  -0.061  0.00  0.00    +0.000 OA
ENDROOT
BRANCH   1   2
ATOM      2  C   UNL     1      -4.961  -0.706  -0.216  0.00  0.00    +0.000 A 
ATOM      3  C   UNL     1      -5.721   0.450  -0.394  0.00  0.00    +0.000 A 
ATOM      4  C   UNL     1      -7.108   0.354  -0.537  0.00  0.00    +0.000 A 
ATOM      5  C   UNL     1      -7.747  -0.882  -0.504  0.00  0.00    +0.000 A 
ATOM      6  C   UNL     1      -6.985  -2.031  -0.324  0.00  0.00    +0.000 A 
ATOM      7  C   UNL     1      -5.601  -1.948  -0.179  0.00  0.00    +0.000 A 
ATOM      8 CL   UNL     1      -7.758  -3.568  -0.281  0.00  0.00    +0.000 Cl
ATOM      9 CL   UNL     1      -8.039   1.786  -0.756  0.00  0.00    +0.000 Cl
ENDBRANCH   1   2
BRANCH   1  10
ATOM     10  C   UNL     1      -2.878   0.464  -0.177  0.00  0.00    +0.000 C 
BRANCH  10  14
ATOM     11  C   UNL     1       1.386  -0.181   0.109  0.00  0.00    +0.000 A 
ATOM     12  C   UNL     1       0.573  -1.168  -0.445  0.00  0.00    +0.000 A 
ATOM     13  C   UNL     1      -0.807  -0.971  -0.532  0.00  0.00    +0.000 A 
ATOM     14  C   UNL     1      -1.392   0.211  -0.052  0.00  0.00    +0.000 A 
ATOM     15  C   UNL     1      -0.559   1.202   0.490  0.00  0.00    +0.000 A 
ATOM     16  C   UNL     1       0.821   1.004   0.574  0.00  0.00    +0.000 A 
ENDBRANCH  10  14
ENDBRANCH   1  10
TORSDOF 3
