REMARK  Name = *****
REMARK  4 active torsions:
REMARK  status: ('A' for Active; 'I' for Inactive)
REMARK    1  A    between atoms: C_1  and  C_2
REMARK    2  A    between atoms: C_5  and  C_8
REMARK    3  A    between atoms: C_9  and  C_10
REMARK    4  A    between atoms: C_9  and  C_12
REMARK                            x       y       z     vdW  Elec       q    Type
REMARK                         _______ _______ _______ _____ _____    ______ ____
ROOT
ATOM      1  C   UNL     1      -3.266   0.249  -0.101  0.00  0.00    +0.000 C 
ATOM      2  C   UNL     1      -4.020   1.361   0.015  0.00  0.00    +0.000 C 
ENDROOT
BRANCH   1   7
ATOM      3  C   UNL     1       2.502   0.021   0.007  0.00  0.00    +0.000 C 
ATOM      4  C   UNL     1       1.004   0.105  -0.019  0.00  0.00    +0.000 A 
ATOM      5  C   UNL     1       0.274   0.138   1.175  0.00  0.00    +0.000 A 
ATOM      6  C   UNL     1      -1.122   0.183   1.151  0.00  0.00    +0.000 A 
ATOM      7  C   UNL     1      -1.803   0.188  -0.069  0.00  0.00    +0.000 A 
ATOM      8  C   UNL     1      -1.081   0.137  -1.264  0.00  0.00    +0.000 A 
ATOM      9  C   UNL     1       0.315   0.091  -1.238  0.00  0.00    +0.000 A 
ENDBRANCH   1   7
BRANCH   2  10
ATOM     10  C   UNL     1      -5.493   1.231  -0.042  0.00  0.00    +0.000 A 
ATOM     11  C   UNL     1      -6.176   0.363   0.825  0.00  0.00    +0.000 A 
ATOM     12  C   UNL     1      -7.566   0.237   0.759  0.00  0.00    +0.000 A 
ATOM     13  C   UNL     1      -8.290   0.979  -0.172  0.00  0.00    +0.000 A 
ATOM     14  C   UNL     1      -7.626   1.850  -1.033  0.00  0.00    +0.000 A 
ATOM     15  C   UNL     1      -6.236   1.976  -0.968  0.00  0.00    +0.000 A 
ENDBRANCH   2  10
BRANCH   2  16
ATOM     16  C   UNL     1      -3.380   2.707   0.159  0.00  0.00    +0.000 C 
ATOM     17  O   UNL     1      -4.015   3.749   0.279  0.00  0.00    +0.000 OA
ENDBRANCH   2  16
TORSDOF 3
