REMARK  Name = *****
REMARK  2 active torsions:
REMARK  status: ('A' for Active; 'I' for Inactive)
REMARK    1  A    between atoms: C_4  and  C_7
REMARK    2  A    between atoms: C_8  and  C_9
REMARK                            x       y       z     vdW  Elec       q    Type
REMARK                         _______ _______ _______ _____ _____    ______ ____
ROOT
ATOM      1  C   UNL     1       2.922   0.198  -0.320  0.00  0.00    +0.000 C 
ATOM      2  C   UNL     1       4.114   0.265  -0.454  0.00  0.00    +0.000 C 
ENDROOT
BRANCH   2   3
ATOM      3  C   UNL     1       5.533   0.340  -0.616  0.00  0.00    +0.000 A 
ATOM      4  C   UNL     1       6.163   1.587  -0.682  0.00  0.00    +0.000 A 
ATOM      5  C   UNL     1       7.550   1.664  -0.842  0.00  0.00    +0.000 A 
ATOM      6  C   UNL     1       8.311   0.497  -0.937  0.00  0.00    +0.000 A 
ATOM      7  C   UNL     1       7.686  -0.748  -0.871  0.00  0.00    +0.000 A 
ATOM      8  C   UNL     1       6.304  -0.819  -0.711  0.00  0.00    +0.000 A 
ATOM      9  F   UNL     1       5.726  -2.029  -0.651  0.00  0.00    +0.000 F 
ENDBRANCH   2   3
BRANCH   1  13
ATOM     10  C   UNL     1      -1.268  -0.068   0.135  0.00  0.00    +0.000 A 
ATOM     11  C   UNL     1      -0.652   1.182   0.069  0.00  0.00    +0.000 A 
ATOM     12  C   UNL     1       0.733   1.271  -0.081  0.00  0.00    +0.000 A 
ATOM     13  C   UNL     1       1.503   0.109  -0.165  0.00  0.00    +0.000 A 
ATOM     14  C   UNL     1       0.885  -1.142  -0.097  0.00  0.00    +0.000 A 
ATOM     15  C   UNL     1      -0.500  -1.229   0.052  0.00  0.00    +0.000 A 
ENDBRANCH   1  13
TORSDOF 2
