REMARK  Name = *****
REMARK  2 active torsions:
REMARK  status: ('A' for Active; 'I' for Inactive)
REMARK    1  A    between atoms: C_2  and  C_11
REMARK    2  A    between atoms: C_3  and  C_4
REMARK                            x       y       z     vdW  Elec       q    Type
REMARK                         _______ _______ _______ _____ _____    ______ ____
ROOT
ATOM      1  C   UNL     1      -0.260   0.976   0.101  0.00  0.00    +0.000 C 
ATOM      2  C   UNL     1       0.745  -0.144   0.066  0.00  0.00    +0.000 C 
ATOM      3  C   UNL     1      -0.709  -0.405  -0.321  0.00  0.00    +0.000 C 
ATOM      4 CL   UNL     1      -1.023  -0.617  -2.067  0.00  0.00    +0.000 Cl
ENDROOT
BRANCH   3   5
ATOM      5  C   UNL     1      -1.680  -1.176   0.553  0.00  0.00    +0.000 A 
ATOM      6  C   UNL     1      -2.799  -0.556   1.142  0.00  0.00    +0.000 A 
ATOM      7  C   UNL     1      -3.701  -1.268   1.938  0.00  0.00    +0.000 A 
ATOM      8  C   UNL     1      -3.511  -2.629   2.157  0.00  0.00    +0.000 A 
ATOM      9  C   UNL     1      -2.427  -3.275   1.573  0.00  0.00    +0.000 A 
ATOM     10  C   UNL     1      -1.530  -2.557   0.777  0.00  0.00    +0.000 A 
ENDBRANCH   3   5
BRANCH   2  11
ATOM     11  C   UNL     1       1.356  -0.722   1.326  0.00  0.00    +0.000 A 
ATOM     12  C   UNL     1       1.450  -0.009   2.533  0.00  0.00    +0.000 A 
ATOM     13  C   UNL     1       2.037  -0.570   3.672  0.00  0.00    +0.000 A 
ATOM     14  C   UNL     1       2.559  -1.859   3.625  0.00  0.00    +0.000 A 
ATOM     15  C   UNL     1       2.500  -2.582   2.439  0.00  0.00    +0.000 A 
ATOM     16  C   UNL     1       1.911  -2.015   1.306  0.00  0.00    +0.000 A 
ENDBRANCH   2  11
TORSDOF 2
