REMARK  Name = *****
REMARK  5 active torsions:
REMARK  status: ('A' for Active; 'I' for Inactive)
REMARK    1  A    between atoms: C_1  and  C_2
REMARK    2  A    between atoms: C_2  and  C_4
REMARK    3  A    between atoms: C_9  and  S_10
REMARK    4  A    between atoms: S_10  and  C_11
REMARK    5  A    between atoms: C_11  and  C_13
REMARK                            x       y       z     vdW  Elec       q    Type
REMARK                         _______ _______ _______ _____ _____    ______ ____
ROOT
ATOM      1  S   UNL     1       4.976   1.482  -0.704  0.00  0.00    +0.000 S 
ENDROOT
BRANCH   1   7
ATOM      2  C   UNL     1       3.453   0.233   1.316  0.00  0.00    +0.000 A 
ATOM      3  C   UNL     1       3.047   0.083   2.652  0.00  0.00    +0.000 A 
ATOM      4  C   UNL     1       3.608   0.880   3.650  0.00  0.00    +0.000 A 
ATOM      5  C   UNL     1       4.574   1.826   3.319  0.00  0.00    +0.000 A 
ATOM      6  C   UNL     1       4.981   1.976   1.991  0.00  0.00    +0.000 A 
ATOM      7  C   UNL     1       4.434   1.178   0.974  0.00  0.00    +0.000 A 
BRANCH   2   9
ATOM      8  C   UNL     1       1.320  -0.738   0.289  0.00  0.00    +0.000 C 
ATOM      9  C   UNL     1       2.823  -0.645   0.299  0.00  0.00    +0.000 C 
ATOM     10  O   UNL     1       3.518  -1.293  -0.479  0.00  0.00    +0.000 OA
ENDBRANCH   2   9
ENDBRANCH   1   7
BRANCH   1  11
ATOM     11  C   UNL     1       6.403   0.446  -0.754  0.00  0.00    +0.000 C 
ATOM     12  O   UNL     1       7.207   0.433   0.172  0.00  0.00    +0.000 OA
BRANCH  11  13
ATOM     13  C   UNL     1       6.670  -0.330  -2.001  0.00  0.00    +0.000 A 
ATOM     14  C   UNL     1       5.676  -0.663  -2.932  0.00  0.00    +0.000 A 
ATOM     15  C   UNL     1       5.998  -1.398  -4.078  0.00  0.00    +0.000 A 
ATOM     16  C   UNL     1       7.312  -1.806  -4.298  0.00  0.00    +0.000 A 
ATOM     17  C   UNL     1       8.309  -1.491  -3.378  0.00  0.00    +0.000 A 
ATOM     18  C   UNL     1       7.988  -0.760  -2.231  0.00  0.00    +0.000 A 
ATOM     19 CL   UNL     1       7.703  -2.708  -5.709  0.00  0.00    +0.000 Cl
ENDBRANCH  11  13
ENDBRANCH   1  11
TORSDOF 4
