REMARK  Name = *****
REMARK  4 active torsions:
REMARK  status: ('A' for Active; 'I' for Inactive)
REMARK    1  A    between atoms: C_1  and  C_2
REMARK    2  A    between atoms: C_5  and  N_8
REMARK    3  A    between atoms: N_8  and  C_9
REMARK    4  A    between atoms: C_9  and  C_11
REMARK                            x       y       z     vdW  Elec       q    Type
REMARK                         _______ _______ _______ _____ _____    ______ ____
ROOT
ATOM      1  N   UNL     1      -3.124   0.082  -0.149  0.00  0.00    +0.000 N 
ATOM      2  H   UNL     1      -3.492  -0.720   0.288  0.00  0.00    +0.000 HD
ENDROOT
BRANCH   1   7
ATOM      3  C   UNL     1       2.593  -0.002   0.318  0.00  0.00    +0.000 C 
ATOM      4  C   UNL     1       1.099   0.058   0.210  0.00  0.00    +0.000 A 
ATOM      5  C   UNL     1       0.475   1.139  -0.417  0.00  0.00    +0.000 A 
ATOM      6  C   UNL     1      -0.920   1.187  -0.552  0.00  0.00    +0.000 A 
ATOM      7  C   UNL     1      -1.717   0.151  -0.073  0.00  0.00    +0.000 A 
ATOM      8  C   UNL     1      -1.084  -0.936   0.548  0.00  0.00    +0.000 A 
ATOM      9  C   UNL     1       0.307  -0.989   0.682  0.00  0.00    +0.000 A 
ENDBRANCH   1   7
BRANCH   1  10
ATOM     10  C   UNL     1      -4.099   0.886  -0.697  0.00  0.00    +0.000 C 
ATOM     11  S   UNL     1      -5.695   0.366  -0.544  0.00  0.00    +0.000 S 
BRANCH  10  12
ATOM     12  C   UNL     1      -3.781   2.110  -1.447  0.00  0.00    +0.000 A 
ATOM     13  C   UNL     1      -3.536   1.989  -2.823  0.00  0.00    +0.000 A 
ATOM     14  C   UNL     1      -3.262   3.126  -3.582  0.00  0.00    +0.000 A 
ATOM     15  C   UNL     1      -3.240   4.382  -2.974  0.00  0.00    +0.000 A 
ATOM     16  C   UNL     1      -3.491   4.504  -1.604  0.00  0.00    +0.000 A 
ATOM     17  C   UNL     1      -3.765   3.370  -0.835  0.00  0.00    +0.000 A 
ATOM     18 CL   UNL     1      -4.038   3.583   0.856  0.00  0.00    +0.000 Cl
ENDBRANCH  10  12
ENDBRANCH   1  10
TORSDOF 3
