REMARK  Name = *****
REMARK  2 active torsions:
REMARK  status: ('A' for Active; 'I' for Inactive)
REMARK    1  A    between atoms: C_3  and  C_9
REMARK    2  A    between atoms: N_10  and  C_11
REMARK                            x       y       z     vdW  Elec       q    Type
REMARK                         _______ _______ _______ _____ _____    ______ ____
ROOT
ATOM      1  C   UNL     1      -2.450  -2.025  -0.229  0.00  0.00    +0.000 C 
ATOM      2  N   UNL     1      -2.542  -3.250   0.185  0.00  0.00    +0.000 NA
ENDROOT
BRANCH   1   5
ATOM      3  C   UNL     1       1.126  -1.090   0.535  0.00  0.00    +0.000 A 
ATOM      4  C   UNL     1      -0.047  -1.842   0.440  0.00  0.00    +0.000 A 
ATOM      5  C   UNL     1      -1.195  -1.263  -0.112  0.00  0.00    +0.000 A 
ATOM      6  C   UNL     1      -1.162   0.057  -0.562  0.00  0.00    +0.000 A 
ATOM      7  C   UNL     1       0.003   0.810  -0.469  0.00  0.00    +0.000 A 
ATOM      8  C   UNL     1       1.139   0.227   0.079  0.00  0.00    +0.000 A 
ATOM      9  F   UNL     1       2.266   0.943   0.173  0.00  0.00    +0.000 F 
ATOM     10  F   UNL     1      -2.256   0.623  -1.092  0.00  0.00    +0.000 F 
ENDBRANCH   1   5
BRANCH   2  11
ATOM     11  C   UNL     1      -3.789  -3.866   0.019  0.00  0.00    +0.000 A 
ATOM     12  C   UNL     1      -4.019  -4.691  -1.083  0.00  0.00    +0.000 A 
ATOM     13  C   UNL     1      -5.252  -5.320  -1.232  0.00  0.00    +0.000 A 
ATOM     14  C   UNL     1      -6.262  -5.149  -0.297  0.00  0.00    +0.000 A 
ATOM     15  C   UNL     1      -6.020  -4.340   0.804  0.00  0.00    +0.000 A 
ATOM     16  C   UNL     1      -4.795  -3.702   0.974  0.00  0.00    +0.000 A 
ATOM     17  F   UNL     1      -6.982  -4.171   1.721  0.00  0.00    +0.000 F 
ATOM     18  F   UNL     1      -5.466  -6.104  -2.297  0.00  0.00    +0.000 F 
ENDBRANCH   2  11
TORSDOF 2
