REMARK  Name = *****
REMARK  2 active torsions:
REMARK  status: ('A' for Active; 'I' for Inactive)
REMARK    1  A    between atoms: N_11  and  C_12
REMARK    2  A    between atoms: C_12  and  C_13
REMARK                            x       y       z     vdW  Elec       q    Type
REMARK                         _______ _______ _______ _____ _____    ______ ____
ROOT
ATOM      1  C   UNL     1      -1.307  -1.332   0.126  0.00  0.00    +0.000 C 
ATOM      2  C   UNL     1      -0.004  -0.590   0.140  0.00  0.00    +0.000 A 
ATOM      3  C   UNL     1       1.094  -1.047   0.881  0.00  0.00    +0.000 A 
ATOM      4  C   UNL     1       2.304  -0.354   0.840  0.00  0.00    +0.000 A 
ATOM      5  C   UNL     1       2.427   0.790   0.054  0.00  0.00    +0.000 A 
ATOM      6  C   UNL     1       1.339   1.245  -0.692  0.00  0.00    +0.000 A 
ATOM      7  C   UNL     1       0.122   0.559  -0.646  0.00  0.00    +0.000 A 
ATOM      8  S   UNL     1      -1.266   1.128  -1.597  0.00  0.00    +0.000 S 
ATOM      9  C   UNL     1      -2.615   0.675  -0.557  0.00  0.00    +0.000 C 
ATOM     10  O   UNL     1      -3.643   1.342  -0.591  0.00  0.00    +0.000 OA
ATOM     11  N   UNL     1      -2.440  -0.429   0.264  0.00  0.00    +0.000 N 
ENDROOT
BRANCH  11  12
ATOM     12  C   UNL     1      -3.542  -0.847   1.120  0.00  0.00    +0.000 C 
BRANCH  12  13
ATOM     13  C   UNL     1      -3.159  -0.867   2.582  0.00  0.00    +0.000 A 
ATOM     14  C   UNL     1      -2.703   0.302   3.211  0.00  0.00    +0.000 A 
ATOM     15  C   UNL     1      -2.347   0.289   4.560  0.00  0.00    +0.000 A 
ATOM     16  C   UNL     1      -2.450  -0.889   5.297  0.00  0.00    +0.000 A 
ATOM     17  C   UNL     1      -2.910  -2.054   4.686  0.00  0.00    +0.000 A 
ATOM     18  C   UNL     1      -3.266  -2.044   3.336  0.00  0.00    +0.000 A 
ENDBRANCH  12  13
ENDBRANCH  11  12
TORSDOF 2
