REMARK  Name = *****
REMARK  3 active torsions:
REMARK  status: ('A' for Active; 'I' for Inactive)
REMARK    1  A    between atoms: C_1  and  C_2
REMARK    2  A    between atoms: C_6  and  C_8
REMARK    3  A    between atoms: C_9  and  C_10
REMARK                            x       y       z     vdW  Elec       q    Type
REMARK                         _______ _______ _______ _____ _____    ______ ____
ROOT
ATOM      1  C   UNL     1       1.017  -0.071   0.020  0.00  0.00    +0.000 C 
ATOM      2  C   UNL     1       2.507  -0.095  -0.133  0.00  0.00    +0.000 A 
ATOM      3  C   UNL     1       3.258   1.080  -0.057  0.00  0.00    +0.000 A 
ATOM      4  C   UNL     1       4.645   1.061  -0.177  0.00  0.00    +0.000 A 
ATOM      5  C   UNL     1       5.306  -0.152  -0.371  0.00  0.00    +0.000 A 
ATOM      6  C   UNL     1       4.574  -1.340  -0.439  0.00  0.00    +0.000 A 
ATOM      7  C   UNL     1       3.180  -1.313  -0.316  0.00  0.00    +0.000 A 
ATOM      8  F   UNL     1       2.646   2.257   0.134  0.00  0.00    +0.000 F 
ENDROOT
BRANCH   6   9
ATOM      9  C   UNL     1       5.253  -2.583  -0.642  0.00  0.00    +0.000 C 
ATOM     10  C   UNL     1       5.838  -3.615  -0.830  0.00  0.00    +0.000 C 
BRANCH  10  11
ATOM     11  C   UNL     1       6.584  -4.860  -1.086  0.00  0.00    +0.000 C 
ATOM     12  C   UNL     1       6.141  -5.480  -2.422  0.00  0.00    +0.000 C 
ATOM     13  C   UNL     1       6.667  -6.907  -2.568  0.00  0.00    +0.000 C 
ATOM     14  C   UNL     1       6.172  -7.803  -1.430  0.00  0.00    +0.000 C 
ATOM     15  C   UNL     1       6.214  -7.132  -0.088  0.00  0.00    +0.000 C 
ATOM     16  C   UNL     1       6.410  -5.813   0.069  0.00  0.00    +0.000 C 
ENDBRANCH  10  11
ENDBRANCH   6   9
TORSDOF 2
