REMARK  Name = *****
REMARK  6 active torsions:
REMARK  status: ('A' for Active; 'I' for Inactive)
REMARK    1  A    between atoms: C_1  and  C_2
REMARK    2  A    between atoms: C_5  and  C_8
REMARK    3  A    between atoms: C_8  and  O_9
REMARK    4  A    between atoms: O_9  and  C_10
REMARK    5  A    between atoms: C_10  and  C_11
REMARK    6  A    between atoms: C_14  and  C_17
REMARK                            x       y       z     vdW  Elec       q    Type
REMARK                         _______ _______ _______ _____ _____    ______ ____
ROOT
ATOM      1  O   UNL     1      -3.776   1.373  -0.048  0.00  0.00    +0.000 OA
ENDROOT
BRANCH   1   2
ATOM      2  C   UNL     1      -3.280   0.037  -0.060  0.00  0.00    +0.000 C 
BRANCH   2   7
ATOM      3  C   UNL     1       2.548  -0.090   0.067  0.00  0.00    +0.000 C 
ATOM      4  C   UNL     1       1.050  -0.032   0.008  0.00  0.00    +0.000 A 
ATOM      5  C   UNL     1       0.349   0.956   0.707  0.00  0.00    +0.000 A 
ATOM      6  C   UNL     1      -1.047   0.990   0.675  0.00  0.00    +0.000 A 
ATOM      7  C   UNL     1      -1.771   0.037  -0.055  0.00  0.00    +0.000 A 
ATOM      8  C   UNL     1      -1.066  -0.968  -0.730  0.00  0.00    +0.000 A 
ATOM      9  C   UNL     1       0.331  -1.002  -0.699  0.00  0.00    +0.000 A 
ENDBRANCH   2   7
ENDBRANCH   1   2
BRANCH   1  10
ATOM     10  C   UNL     1      -5.202   1.404  -0.054  0.00  0.00    +0.000 C 
BRANCH  10  11
ATOM     11  C   UNL     1      -5.698   2.829  -0.043  0.00  0.00    +0.000 A 
ATOM     12  C   UNL     1      -5.017   3.841  -0.731  0.00  0.00    +0.000 A 
ATOM     13  C   UNL     1      -5.509   5.149  -0.749  0.00  0.00    +0.000 A 
ATOM     14  C   UNL     1      -6.693   5.470  -0.077  0.00  0.00    +0.000 A 
ATOM     15  C   UNL     1      -7.392   4.457   0.587  0.00  0.00    +0.000 A 
ATOM     16  C   UNL     1      -6.899   3.149   0.604  0.00  0.00    +0.000 A 
ATOM     17  C   UNL     1      -7.239   6.866  -0.124  0.00  0.00    +0.000 C 
ENDBRANCH  10  11
ENDBRANCH   1  10
TORSDOF 4
