REMARK  Name = *****
REMARK  2 active torsions:
REMARK  status: ('A' for Active; 'I' for Inactive)
REMARK    1  A    between atoms: C_2  and  C_12
REMARK    2  A    between atoms: C_3  and  C_4
REMARK                            x       y       z     vdW  Elec       q    Type
REMARK                         _______ _______ _______ _____ _____    ______ ____
ROOT
ATOM      1  C   UNL     1       0.032   0.601   0.138  0.00  0.00    +0.000 C 
ATOM      2  C   UNL     1       0.791  -0.693   0.281  0.00  0.00    +0.000 C 
ATOM      3  C   UNL     1      -0.669  -0.701  -0.154  0.00  0.00    +0.000 C 
ENDROOT
BRANCH   3   4
ATOM      4  C   UNL     1      -1.727  -1.235   0.784  0.00  0.00    +0.000 A 
ATOM      5  C   UNL     1      -2.822  -0.461   1.195  0.00  0.00    +0.000 A 
ATOM      6  C   UNL     1      -3.810  -0.955   2.049  0.00  0.00    +0.000 A 
ATOM      7  C   UNL     1      -3.733  -2.264   2.516  0.00  0.00    +0.000 A 
ATOM      8  C   UNL     1      -2.668  -3.067   2.118  0.00  0.00    +0.000 A 
ATOM      9  C   UNL     1      -1.691  -2.552   1.264  0.00  0.00    +0.000 A 
ATOM     10  F   UNL     1      -0.687  -3.363   0.894  0.00  0.00    +0.000 F 
ATOM     11  F   UNL     1      -2.941   0.802   0.758  0.00  0.00    +0.000 F 
ENDBRANCH   3   4
BRANCH   2  12
ATOM     12  C   UNL     1       1.866  -1.064  -0.713  0.00  0.00    +0.000 A 
ATOM     13  C   UNL     1       2.917  -0.185  -1.021  0.00  0.00    +0.000 A 
ATOM     14  C   UNL     1       3.920  -0.536  -1.929  0.00  0.00    +0.000 A 
ATOM     15  C   UNL     1       3.894  -1.785  -2.544  0.00  0.00    +0.000 A 
ATOM     16  C   UNL     1       2.871  -2.680  -2.248  0.00  0.00    +0.000 A 
ATOM     17  C   UNL     1       1.872  -2.322  -1.339  0.00  0.00    +0.000 A 
ENDBRANCH   2  12
TORSDOF 2
