REMARK  Name = *****
REMARK  5 active torsions:
REMARK  status: ('A' for Active; 'I' for Inactive)
REMARK    1  A    between atoms: C_1  and  C_2
REMARK    2  A    between atoms: C_4  and  C_18
REMARK    3  A    between atoms: C_6  and  C_9
REMARK    4  A    between atoms: C_6  and  C_10
REMARK    5  A    between atoms: C_11  and  C_12
REMARK                            x       y       z     vdW  Elec       q    Type
REMARK                         _______ _______ _______ _____ _____    ______ ____
ROOT
ATOM      1  C   UNL     1       0.846   0.076  -0.032  0.00  0.00    +0.000 C 
ATOM      2  C   UNL     1       2.341   0.054  -0.017  0.00  0.00    +0.000 C 
ATOM      3  C   UNL     1       3.102   1.153  -0.123  0.00  0.00    +0.000 C 
ATOM      4  C   UNL     1       4.546   1.139  -0.106  0.00  0.00    +0.000 C 
ATOM      5  C   UNL     1       5.213  -0.021   0.002  0.00  0.00    +0.000 C 
ATOM      6  C   UNL     1       4.547  -1.377   0.114  0.00  0.00    +0.000 C 
ATOM      7  C   UNL     1       2.996  -1.286   0.127  0.00  0.00    +0.000 C 
ATOM      8  O   UNL     1       2.281  -2.284   0.252  0.00  0.00    +0.000 OA
ATOM      9  C   UNL     1       4.966  -1.998   1.460  0.00  0.00    +0.000 C 
ATOM     10  C   UNL     1       5.242   2.465  -0.218  0.00  0.00    +0.000 C 
ENDROOT
BRANCH   6  11
ATOM     11  C   UNL     1       4.924  -2.199  -1.113  0.00  0.00    +0.000 C 
ATOM     12  C   UNL     1       5.587  -3.369  -1.140  0.00  0.00    +0.000 C 
BRANCH  12  13
ATOM     13  C   UNL     1       5.899  -4.100  -2.376  0.00  0.00    +0.000 A 
ATOM     14  C   UNL     1       6.346  -3.451  -3.534  0.00  0.00    +0.000 A 
ATOM     15  C   UNL     1       6.665  -4.184  -4.680  0.00  0.00    +0.000 A 
ATOM     16  C   UNL     1       6.551  -5.573  -4.676  0.00  0.00    +0.000 A 
ATOM     17  C   UNL     1       6.122  -6.230  -3.525  0.00  0.00    +0.000 A 
ATOM     18  C   UNL     1       5.803  -5.498  -2.379  0.00  0.00    +0.000 A 
ENDBRANCH  12  13
ENDBRANCH   6  11
TORSDOF 2
