REMARK  Name = *****
REMARK  6 active torsions:
REMARK  status: ('A' for Active; 'I' for Inactive)
REMARK    1  A    between atoms: C_1  and  C_2
REMARK    2  A    between atoms: C_4  and  C_17
REMARK    3  A    between atoms: C_5  and  C_9
REMARK    4  A    between atoms: C_6  and  C_8
REMARK    5  A    between atoms: C_9  and  S_10
REMARK    6  A    between atoms: S_10  and  C_11
REMARK                            x       y       z     vdW  Elec       q    Type
REMARK                         _______ _______ _______ _____ _____    ______ ____
ROOT
ATOM      1  C   UNL     1       2.027   2.045   0.062  0.00  0.00    +0.000 C 
ATOM      2  C   UNL     1       1.021   0.935   0.002  0.00  0.00    +0.000 A 
ATOM      3  C   UNL     1       1.416  -0.380  -0.247  0.00  0.00    +0.000 A 
ATOM      4  C   UNL     1       0.479  -1.428  -0.287  0.00  0.00    +0.000 A 
ATOM      5  C   UNL     1      -0.896  -1.153  -0.074  0.00  0.00    +0.000 A 
ATOM      6  C   UNL     1      -1.293   0.180   0.201  0.00  0.00    +0.000 A 
ATOM      7  C   UNL     1      -0.331   1.203   0.231  0.00  0.00    +0.000 A 
ATOM      8  C   UNL     1      -2.733   0.551   0.447  0.00  0.00    +0.000 C 
ATOM      9  C   UNL     1       0.982  -2.819  -0.576  0.00  0.00    +0.000 C 
ENDROOT
BRANCH   5  10
ATOM     10  C   UNL     1      -1.923  -2.273  -0.115  0.00  0.00    +0.000 C 
BRANCH  10  11
ATOM     11  S   UNL     1      -2.133  -3.050   1.523  0.00  0.00    +0.000 S 
BRANCH  11  12
ATOM     12  C   UNL     1      -3.287  -4.345   1.114  0.00  0.00    +0.000 A 
ATOM     13  C   UNL     1      -3.562  -5.320   2.068  0.00  0.00    +0.000 A 
ATOM     14  C   UNL     1      -4.467  -6.331   1.755  0.00  0.00    +0.000 A 
ATOM     15  C   UNL     1      -5.072  -6.338   0.506  0.00  0.00    +0.000 A 
ATOM     16  C   UNL     1      -4.745  -5.327  -0.382  0.00  0.00    +0.000 A 
ATOM     17  N   UNL     1      -3.869  -4.336  -0.106  0.00  0.00    +0.000 NA
ENDBRANCH  11  12
ENDBRANCH  10  11
ENDBRANCH   5  10
TORSDOF 3
