REMARK  Name = *****
REMARK  2 active torsions:
REMARK  status: ('A' for Active; 'I' for Inactive)
REMARK    1  A    between atoms: C_2  and  C_10
REMARK    2  A    between atoms: C_3  and  C_4
REMARK                            x       y       z     vdW  Elec       q    Type
REMARK                         _______ _______ _______ _____ _____    ______ ____
ROOT
ATOM      1  C   UNL     1       0.047   0.670   0.051  0.00  0.00    +0.000 C 
ATOM      2  C   UNL     1       0.807  -0.612   0.274  0.00  0.00    +0.000 C 
ATOM      3  C   UNL     1      -0.656  -0.648  -0.147  0.00  0.00    +0.000 C 
ENDROOT
BRANCH   3   4
ATOM      4  C   UNL     1      -1.707  -1.106   0.837  0.00  0.00    +0.000 A 
ATOM      5  C   UNL     1      -2.824  -0.307   1.138  0.00  0.00    +0.000 A 
ATOM      6  C   UNL     1      -3.805  -0.735   2.036  0.00  0.00    +0.000 A 
ATOM      7  C   UNL     1      -3.693  -1.979   2.649  0.00  0.00    +0.000 A 
ATOM      8  C   UNL     1      -2.602  -2.794   2.362  0.00  0.00    +0.000 A 
ATOM      9  C   UNL     1      -1.624  -2.361   1.463  0.00  0.00    +0.000 A 
ENDBRANCH   3   4
BRANCH   2  10
ATOM     10  C   UNL     1       1.879  -1.039  -0.700  0.00  0.00    +0.000 A 
ATOM     11  C   UNL     1       2.967  -0.203  -1.001  0.00  0.00    +0.000 A 
ATOM     12  C   UNL     1       3.970  -0.601  -1.889  0.00  0.00    +0.000 A 
ATOM     13  C   UNL     1       3.908  -1.854  -2.491  0.00  0.00    +0.000 A 
ATOM     14  C   UNL     1       2.847  -2.706  -2.204  0.00  0.00    +0.000 A 
ATOM     15  C   UNL     1       1.847  -2.302  -1.315  0.00  0.00    +0.000 A 
ENDBRANCH   2  10
TORSDOF 2
