REMARK  Name = *****
REMARK  3 active torsions:
REMARK  status: ('A' for Active; 'I' for Inactive)
REMARK    1  A    between atoms: C_4  and  C_7
REMARK    2  A    between atoms: C_7  and  C_9
REMARK    3  A    between atoms: C_10  and  C_11
REMARK                            x       y       z     vdW  Elec       q    Type
REMARK                         _______ _______ _______ _____ _____    ______ ____
ROOT
ATOM      1  C   UNL     1      -3.782  -0.690  -0.740  0.00  0.00    +0.000 C 
ATOM      2  C   UNL     1      -5.095  -0.548  -0.501  0.00  0.00    +0.000 C 
ENDROOT
BRANCH   2   3
ATOM      3  C   UNL     1      -6.071  -1.649  -0.533  0.00  0.00    +0.000 A 
ATOM      4  C   UNL     1      -5.775  -2.960  -0.136  0.00  0.00    +0.000 A 
ATOM      5  C   UNL     1      -6.755  -3.949  -0.164  0.00  0.00    +0.000 A 
ATOM      6  C   UNL     1      -8.050  -3.657  -0.575  0.00  0.00    +0.000 A 
ATOM      7  C   UNL     1      -8.368  -2.356  -0.959  0.00  0.00    +0.000 A 
ATOM      8  C   UNL     1      -7.386  -1.358  -0.932  0.00  0.00    +0.000 A 
ATOM      9  F   UNL     1      -6.456  -5.200   0.213  0.00  0.00    +0.000 F 
ATOM     10  F   UNL     1      -4.543  -3.285   0.289  0.00  0.00    +0.000 F 
ENDBRANCH   2   3
BRANCH   1  11
ATOM     11  C   UNL     1      -2.895   0.504  -0.698  0.00  0.00    +0.000 C 
ATOM     12  O   UNL     1      -3.349   1.644  -0.677  0.00  0.00    +0.000 OA
BRANCH  11  16
ATOM     13  C   UNL     1       1.358  -0.020  -0.823  0.00  0.00    +0.000 A 
ATOM     14  C   UNL     1       0.564  -1.026  -0.272  0.00  0.00    +0.000 A 
ATOM     15  C   UNL     1      -0.824  -0.875  -0.220  0.00  0.00    +0.000 A 
ATOM     16  C   UNL     1      -1.424   0.284  -0.731  0.00  0.00    +0.000 A 
ATOM     17  C   UNL     1      -0.617   1.297  -1.267  0.00  0.00    +0.000 A 
ATOM     18  C   UNL     1       0.769   1.143  -1.317  0.00  0.00    +0.000 A 
ENDBRANCH  11  16
ENDBRANCH   1  11
TORSDOF 3
