REMARK  Name = *****
REMARK  6 active torsions:
REMARK  status: ('A' for Active; 'I' for Inactive)
REMARK    1  A    between atoms: C_1  and  C_2
REMARK    2  A    between atoms: C_4  and  C_18
REMARK    3  A    between atoms: C_5  and  C_9
REMARK    4  A    between atoms: C_6  and  C_8
REMARK    5  A    between atoms: C_9  and  C_11
REMARK    6  A    between atoms: C_11  and  C_12
REMARK                            x       y       z     vdW  Elec       q    Type
REMARK                         _______ _______ _______ _____ _____    ______ ____
ROOT
ATOM      1  C   UNL     1       1.728   2.024  -1.022  0.00  0.00    +0.000 C 
ATOM      2  C   UNL     1       0.756   1.043  -0.434  0.00  0.00    +0.000 A 
ATOM      3  C   UNL     1       0.976  -0.334  -0.563  0.00  0.00    +0.000 A 
ATOM      4  C   UNL     1       0.097  -1.264   0.010  0.00  0.00    +0.000 A 
ATOM      5  C   UNL     1      -1.026  -0.786   0.714  0.00  0.00    +0.000 A 
ATOM      6  C   UNL     1      -1.242   0.593   0.897  0.00  0.00    +0.000 A 
ATOM      7  C   UNL     1      -0.343   1.495   0.307  0.00  0.00    +0.000 A 
ATOM      8  C   UNL     1      -2.419   1.128   1.665  0.00  0.00    +0.000 C 
ATOM      9  C   UNL     1       0.371  -2.733  -0.150  0.00  0.00    +0.000 C 
ENDROOT
BRANCH   5  10
ATOM     10  C   UNL     1      -1.992  -1.756   1.279  0.00  0.00    +0.000 C 
ATOM     11  O   UNL     1      -1.928  -2.043   2.471  0.00  0.00    +0.000 OA
BRANCH  10  12
ATOM     12  C   UNL     1      -3.011  -2.345   0.324  0.00  0.00    +0.000 C 
BRANCH  12  13
ATOM     13  C   UNL     1      -4.398  -1.784   0.513  0.00  0.00    +0.000 A 
ATOM     14  C   UNL     1      -5.002  -1.022  -0.496  0.00  0.00    +0.000 A 
ATOM     15  C   UNL     1      -6.285  -0.501  -0.318  0.00  0.00    +0.000 A 
ATOM     16  C   UNL     1      -6.976  -0.738   0.868  0.00  0.00    +0.000 A 
ATOM     17  C   UNL     1      -6.387  -1.496   1.877  0.00  0.00    +0.000 A 
ATOM     18  C   UNL     1      -5.105  -2.018   1.701  0.00  0.00    +0.000 A 
ENDBRANCH  12  13
ENDBRANCH  10  12
ENDBRANCH   5  10
TORSDOF 3
