REMARK  Name = *****
REMARK  3 active torsions:
REMARK  status: ('A' for Active; 'I' for Inactive)
REMARK    1  A    between atoms: C_5  and  C_7
REMARK    2  A    between atoms: C_8  and  C_10
REMARK    3  A    between atoms: C_8  and  C_12
REMARK                            x       y       z     vdW  Elec       q    Type
REMARK                         _______ _______ _______ _____ _____    ______ ____
ROOT
ATOM      1  C   UNL     1      -0.153  -2.700   0.085  0.00  0.00    +0.000 C 
ATOM      2  C   UNL     1      -1.171  -3.479  -0.765  0.00  0.00    +0.000 C 
ATOM      3  O   UNL     1      -1.475  -3.004   0.558  0.00  0.00    +0.000 OA
ENDROOT
BRANCH   1   8
ATOM      4  C   UNL     1      -0.112   1.119   0.412  0.00  0.00    +0.000 A 
ATOM      5  C   UNL     1       0.761   1.496  -0.601  0.00  0.00    +0.000 A 
ATOM      6  C   UNL     1       1.351   0.521  -1.401  0.00  0.00    +0.000 A 
ATOM      7  C   UNL     1       1.062  -0.831  -1.187  0.00  0.00    +0.000 A 
ATOM      8  C   UNL     1       0.175  -1.245  -0.175  0.00  0.00    +0.000 A 
ATOM      9  C   UNL     1      -0.396  -0.234   0.623  0.00  0.00    +0.000 A 
ATOM     10 CL   UNL     1       1.832  -1.988  -2.215  0.00  0.00    +0.000 Cl
ENDBRANCH   1   8
BRANCH   2  11
ATOM     11  C   UNL     1      -0.939  -4.974  -0.928  0.00  0.00    +0.000 A 
ATOM     12  C   UNL     1      -1.724  -5.916  -0.235  0.00  0.00    +0.000 A 
ATOM     13  C   UNL     1      -1.519  -7.289  -0.384  0.00  0.00    +0.000 A 
ATOM     14  C   UNL     1      -0.518  -7.741  -1.231  0.00  0.00    +0.000 A 
ATOM     15  C   UNL     1       0.277  -6.844  -1.931  0.00  0.00    +0.000 A 
ATOM     16  C   UNL     1       0.066  -5.471  -1.780  0.00  0.00    +0.000 A 
ATOM     17  F   UNL     1      -0.317  -9.057  -1.377  0.00  0.00    +0.000 F 
ENDBRANCH   2  11
BRANCH   2  18
ATOM     18  C   UNL     1      -1.958  -2.780  -1.847  0.00  0.00    +0.000 C 
ATOM     19 CL   UNL     1      -3.640  -3.367  -1.895  0.00  0.00    +0.000 Cl
ENDBRANCH   2  18
TORSDOF 3
