REMARK  Name = *****
REMARK  3 active torsions:
REMARK  status: ('A' for Active; 'I' for Inactive)
REMARK    1  A    between atoms: C_4  and  N_7
REMARK    2  A    between atoms: N_7  and  C_8
REMARK    3  A    between atoms: N_9  and  C_10
REMARK                            x       y       z     vdW  Elec       q    Type
REMARK                         _______ _______ _______ _____ _____    ______ ____
ROOT
ATOM      1  C   UNL     1      -3.762  -0.546  -0.053  0.00  0.00    +0.000 C 
ATOM      2  N   UNL     1      -5.035  -0.330  -0.130  0.00  0.00    +0.000 NA
ENDROOT
BRANCH   2   3
ATOM      3  C   UNL     1      -5.848  -1.459  -0.307  0.00  0.00    +0.000 A 
ATOM      4  C   UNL     1      -6.002  -2.414   0.703  0.00  0.00    +0.000 A 
ATOM      5  C   UNL     1      -6.840  -3.516   0.518  0.00  0.00    +0.000 A 
ATOM      6  C   UNL     1      -7.541  -3.663  -0.678  0.00  0.00    +0.000 A 
ATOM      7  C   UNL     1      -7.406  -2.708  -1.686  0.00  0.00    +0.000 A 
ATOM      8  C   UNL     1      -6.565  -1.609  -1.496  0.00  0.00    +0.000 A 
ENDBRANCH   2   3
BRANCH   1   9
ATOM      9  N   UNL     1      -2.912   0.457   0.136  0.00  0.00    +0.000 NA
BRANCH   9  13
ATOM     10  C   UNL     1       1.199  -0.314  -0.109  0.00  0.00    +0.000 A 
ATOM     11  C   UNL     1       0.350  -0.816  -1.090  0.00  0.00    +0.000 A 
ATOM     12  C   UNL     1      -1.026  -0.571  -1.020  0.00  0.00    +0.000 A 
ATOM     13  C   UNL     1      -1.592   0.165   0.036  0.00  0.00    +0.000 A 
ATOM     14  C   UNL     1      -0.707   0.679   0.996  0.00  0.00    +0.000 A 
ATOM     15  C   UNL     1       0.670   0.439   0.934  0.00  0.00    +0.000 A 
ENDBRANCH   9  13
ENDBRANCH   1   9
TORSDOF 3
