REMARK  Name = *****
REMARK  4 active torsions:
REMARK  status: ('A' for Active; 'I' for Inactive)
REMARK    1  A    between atoms: C_4  and  O_7
REMARK    2  A    between atoms: O_7  and  C_8
REMARK    3  A    between atoms: C_8  and  C_10
REMARK    4  A    between atoms: C_13  and  C_16
REMARK                            x       y       z     vdW  Elec       q    Type
REMARK                         _______ _______ _______ _____ _____    ______ ____
ROOT
ATOM      1  C   UNL     1      -5.071  -0.546  -0.566  0.00  0.00    +0.000 A 
ATOM      2  C   UNL     1      -5.521  -0.013  -1.781  0.00  0.00    +0.000 A 
ATOM      3  C   UNL     1      -6.879   0.266  -1.969  0.00  0.00    +0.000 A 
ATOM      4  C   UNL     1      -7.809   0.023  -0.946  0.00  0.00    +0.000 A 
ATOM      5  C   UNL     1      -7.355  -0.519   0.266  0.00  0.00    +0.000 A 
ATOM      6  C   UNL     1      -5.998  -0.796   0.455  0.00  0.00    +0.000 A 
ENDROOT
BRANCH   4   7
ATOM      7  C   UNL     1      -9.277   0.305  -1.165  0.00  0.00    +0.000 C 
ATOM      8  F   UNL     1      -9.495   1.408  -1.933  0.00  0.00    +0.000 F 
ATOM      9  F   UNL     1      -9.911  -0.722  -1.795  0.00  0.00    +0.000 F 
ATOM     10  F   UNL     1      -9.962   0.516  -0.007  0.00  0.00    +0.000 F 
ENDBRANCH   4   7
BRANCH   1  11
ATOM     11  C   UNL     1      -3.638  -0.863  -0.304  0.00  0.00    +0.000 C 
ATOM     12  O   UNL     1      -3.237  -1.289   0.768  0.00  0.00    +0.000 OA
BRANCH  11  13
ATOM     13  O   UNL     1      -2.889  -0.600  -1.436  0.00  0.00    +0.000 OA
BRANCH  13  17
ATOM     14  C   UNL     1       1.223  -1.338  -1.399  0.00  0.00    +0.000 A 
ATOM     15  C   UNL     1       0.344  -2.370  -1.062  0.00  0.00    +0.000 A 
ATOM     16  C   UNL     1      -1.032  -2.141  -1.055  0.00  0.00    +0.000 A 
ATOM     17  C   UNL     1      -1.514  -0.871  -1.368  0.00  0.00    +0.000 A 
ATOM     18  C   UNL     1      -0.646   0.159  -1.726  0.00  0.00    +0.000 A 
ATOM     19  C   UNL     1       0.729  -0.076  -1.734  0.00  0.00    +0.000 A 
ENDBRANCH  13  17
ENDBRANCH  11  13
ENDBRANCH   1  11
TORSDOF 4
