REMARK  Name = *****
REMARK  2 active torsions:
REMARK  status: ('A' for Active; 'I' for Inactive)
REMARK    1  A    between atoms: C_5  and  C_6
REMARK    2  A    between atoms: C_6  and  C_7
REMARK                            x       y       z     vdW  Elec       q    Type
REMARK                         _______ _______ _______ _____ _____    ______ ____
ROOT
ATOM      1  C   UNL     1      -2.441  -2.504   0.069  0.00  0.00    +0.000 C 
ATOM      2  C   UNL     1      -2.981  -3.308  -0.866  0.00  0.00    +0.000 C 
ATOM      3  C   UNL     1      -2.797  -4.773  -0.562  0.00  0.00    +0.000 C 
ATOM      4  C   UNL     1      -2.064  -4.704   0.741  0.00  0.00    +0.000 A 
ATOM      5  C   UNL     1      -1.616  -5.746   1.536  0.00  0.00    +0.000 A 
ATOM      6  C   UNL     1      -0.956  -5.429   2.725  0.00  0.00    +0.000 A 
ATOM      7  C   UNL     1      -0.757  -4.090   3.097  0.00  0.00    +0.000 A 
ATOM      8  C   UNL     1      -1.215  -3.047   2.286  0.00  0.00    +0.000 A 
ATOM      9  C   UNL     1      -1.866  -3.364   1.105  0.00  0.00    +0.000 A 
ENDROOT
BRANCH   1  10
ATOM     10  C   UNL     1      -2.446  -1.012   0.109  0.00  0.00    +0.000 C 
BRANCH  10  15
ATOM     11  C   UNL     1       0.150  -0.614  -0.104  0.00  0.00    +0.000 C 
ATOM     12  C   UNL     1       0.926   0.219  -1.083  0.00  0.00    +0.000 C 
ATOM     13  C   UNL     1       0.087   0.791  -1.960  0.00  0.00    +0.000 C 
ATOM     14  C   UNL     1      -1.266   0.407  -1.646  0.00  0.00    +0.000 C 
ATOM     15  C   UNL     1      -1.266  -0.406  -0.576  0.00  0.00    +0.000 C 
ENDBRANCH  10  15
ENDBRANCH   1  10
TORSDOF 2
