REMARK  Name = *****
REMARK  3 active torsions:
REMARK  status: ('A' for Active; 'I' for Inactive)
REMARK    1  A    between atoms: C_2  and  C_12
REMARK    2  A    between atoms: C_3  and  C_4
REMARK    3  A    between atoms: C_3  and  C_6
REMARK                            x       y       z     vdW  Elec       q    Type
REMARK                         _______ _______ _______ _____ _____    ______ ____
ROOT
ATOM      1  C   UNL     1       1.679  -0.502  -0.083  0.00  0.00    +0.000 C 
ATOM      2  C   UNL     1       1.623   0.997   0.013  0.00  0.00    +0.000 C 
ATOM      3  C   UNL     1       0.442   0.148   0.530  0.00  0.00    +0.000 C 
ENDROOT
BRANCH   3   4
ATOM      4  C   UNL     1       0.295   0.064   2.057  0.00  0.00    +0.000 A 
ATOM      5  C   UNL     1       0.135   1.221   2.841  0.00  0.00    +0.000 A 
ATOM      6  C   UNL     1      -0.009   1.147   4.228  0.00  0.00    +0.000 A 
ATOM      7  C   UNL     1      -0.003  -0.091   4.863  0.00  0.00    +0.000 A 
ATOM      8  C   UNL     1       0.142  -1.253   4.112  0.00  0.00    +0.000 A 
ATOM      9  C   UNL     1       0.286  -1.175   2.724  0.00  0.00    +0.000 A 
ENDBRANCH   3   4
BRANCH   2  10
ATOM     10  C   UNL     1       1.525   1.845  -1.237  0.00  0.00    +0.000 A 
ATOM     11  C   UNL     1       0.617   2.914  -1.323  0.00  0.00    +0.000 A 
ATOM     12  C   UNL     1       0.538   3.713  -2.467  0.00  0.00    +0.000 A 
ATOM     13  C   UNL     1       1.377   3.467  -3.548  0.00  0.00    +0.000 A 
ATOM     14  C   UNL     1       2.297   2.425  -3.484  0.00  0.00    +0.000 A 
ATOM     15  C   UNL     1       2.371   1.628  -2.338  0.00  0.00    +0.000 A 
ENDBRANCH   2  10
BRANCH   3  16
ATOM     16  C   UNL     1      -0.761   0.064  -0.287  0.00  0.00    +0.000 C 
ATOM     17  N   UNL     1      -1.725  -0.018  -0.927  0.00  0.00    +0.000 NA
ENDBRANCH   3  16
TORSDOF 3
