REMARK  Name = *****
REMARK  1 active torsions:
REMARK  status: ('A' for Active; 'I' for Inactive)
REMARK    1  A    between atoms: C_4  and  C_7
REMARK                            x       y       z     vdW  Elec       q    Type
REMARK                         _______ _______ _______ _____ _____    ______ ____
ROOT
ATOM      1  C   UNL     1       0.736  -2.787   0.214  0.00  0.00    +0.000 A 
ATOM      2  C   UNL     1       1.802  -3.442  -0.381  0.00  0.00    +0.000 A 
ATOM      3  C   UNL     1       1.891  -4.837  -0.060  0.00  0.00    +0.000 A 
ATOM      4  C   UNL     1       2.827  -5.819  -0.466  0.00  0.00    +0.000 A 
ATOM      5  C   UNL     1       2.709  -7.137  -0.017  0.00  0.00    +0.000 A 
ATOM      6  C   UNL     1       1.671  -7.497   0.832  0.00  0.00    +0.000 A 
ATOM      7  C   UNL     1       0.734  -6.549   1.247  0.00  0.00    +0.000 A 
ATOM      8  C   UNL     1       0.858  -5.222   0.792  0.00  0.00    +0.000 A 
ATOM      9  S   UNL     1      -0.171  -3.898   1.165  0.00  0.00    +0.000 S 
ENDROOT
BRANCH   1  13
ATOM     10  C   UNL     1      -0.360   1.422   0.248  0.00  0.00    +0.000 C 
ATOM     11  C   UNL     1      -1.346   0.462  -0.400  0.00  0.00    +0.000 C 
ATOM     12  C   UNL     1      -1.128  -0.963   0.111  0.00  0.00    +0.000 C 
ATOM     13  C   UNL     1       0.330  -1.405   0.125  0.00  0.00    +0.000 C 
ATOM     14  C   UNL     1       1.308  -0.476   0.040  0.00  0.00    +0.000 C 
ATOM     15  C   UNL     1       1.077   1.005  -0.050  0.00  0.00    +0.000 C 
ENDBRANCH   1  13
TORSDOF 1
