REMARK  Name = *****
REMARK  5 active torsions:
REMARK  status: ('A' for Active; 'I' for Inactive)
REMARK    1  A    between atoms: C_4  and  C_7
REMARK    2  A    between atoms: C_7  and  C_8
REMARK    3  A    between atoms: C_8  and  O_9
REMARK    4  A    between atoms: O_9  and  C_10
REMARK    5  A    between atoms: C_10  and  C_11
REMARK                            x       y       z     vdW  Elec       q    Type
REMARK                         _______ _______ _______ _____ _____    ______ ____
ROOT
ATOM      1  C   UNL     1      -3.823  -0.760  -0.102  0.00  0.00    +0.000 C 
ENDROOT
BRANCH   1   2
ATOM      2  C   UNL     1      -2.841   0.413  -0.011  0.00  0.00    +0.000 C 
BRANCH   2   6
ATOM      3  C   UNL     1      -3.623   2.968   3.379  0.00  0.00    +0.000 A 
ATOM      4  C   UNL     1      -2.700   1.929   3.487  0.00  0.00    +0.000 A 
ATOM      5  C   UNL     1      -2.444   1.103   2.391  0.00  0.00    +0.000 A 
ATOM      6  C   UNL     1      -3.107   1.312   1.174  0.00  0.00    +0.000 A 
ATOM      7  C   UNL     1      -4.037   2.356   1.078  0.00  0.00    +0.000 A 
ATOM      8  C   UNL     1      -4.292   3.180   2.175  0.00  0.00    +0.000 A 
ENDBRANCH   2   6
ENDBRANCH   1   2
BRANCH   1   9
ATOM      9  O   UNL     1      -5.153  -0.352  -0.429  0.00  0.00    +0.000 OA
BRANCH   9  10
ATOM     10  C   UNL     1      -5.348  -0.101  -1.819  0.00  0.00    +0.000 C 
BRANCH  10  11
ATOM     11  C   UNL     1      -6.756   0.380  -2.082  0.00  0.00    +0.000 A 
ATOM     12  C   UNL     1      -7.498   1.058  -1.104  0.00  0.00    +0.000 A 
ATOM     13  C   UNL     1      -8.782   1.531  -1.384  0.00  0.00    +0.000 A 
ATOM     14  C   UNL     1      -9.335   1.342  -2.648  0.00  0.00    +0.000 A 
ATOM     15  C   UNL     1      -8.605   0.682  -3.635  0.00  0.00    +0.000 A 
ATOM     16  C   UNL     1      -7.321   0.209  -3.355  0.00  0.00    +0.000 A 
ENDBRANCH  10  11
ENDBRANCH   9  10
ENDBRANCH   1   9
TORSDOF 5
