REMARK  Name = *****
REMARK  1 active torsions:
REMARK  status: ('A' for Active; 'I' for Inactive)
REMARK    1  A    between atoms: C_11  and  C_13
REMARK                            x       y       z     vdW  Elec       q    Type
REMARK                         _______ _______ _______ _____ _____    ______ ____
ROOT
ATOM      1  C   UNL     1      -2.441   0.648  -0.042  0.00  0.00    +0.000 A 
ATOM      2  C   UNL     1      -2.409  -0.741  -0.053  0.00  0.00    +0.000 A 
ATOM      3  C   UNL     1      -1.183  -1.402  -0.031  0.00  0.00    +0.000 A 
ATOM      4  C   UNL     1       0.018  -0.683   0.001  0.00  0.00    +0.000 A 
ATOM      5  C   UNL     1      -0.004   0.719   0.012  0.00  0.00    +0.000 A 
ATOM      6  C   UNL     1      -1.247   1.375  -0.010  0.00  0.00    +0.000 A 
ATOM      7  C   UNL     1       1.296   1.413   0.046  0.00  0.00    +0.000 C 
ATOM      8  C   UNL     1       1.446   2.745   0.049  0.00  0.00    +0.000 C 
ATOM      9 CL   UNL     1       2.972   3.534   0.087  0.00  0.00    +0.000 Cl
ATOM     10  O   UNL     1       2.452   0.596   0.075  0.00  0.00    +0.000 OA
ATOM     11  C   UNL     1       2.326  -0.764   0.059  0.00  0.00    +0.000 C 
ATOM     12  N   UNL     1       1.209  -1.415   0.023  0.00  0.00    +0.000 NA
ENDROOT
BRANCH  11  13
ATOM     13  C   UNL     1       3.627  -1.403   0.088  0.00  0.00    +0.000 A 
ATOM     14  C   UNL     1       4.882  -0.817   0.133  0.00  0.00    +0.000 A 
ATOM     15  C   UNL     1       5.938  -1.775   0.150  0.00  0.00    +0.000 A 
ATOM     16  C   UNL     1       5.460  -3.065   0.116  0.00  0.00    +0.000 A 
ATOM     17  S   UNL     1       3.753  -3.115   0.065  0.00  0.00    +0.000 S 
ENDBRANCH  11  13
TORSDOF 1
