REMARK  Name = *****
REMARK  4 active torsions:
REMARK  status: ('A' for Active; 'I' for Inactive)
REMARK    1  A    between atoms: C_1  and  C_2
REMARK    2  A    between atoms: C_4  and  N_9
REMARK    3  A    between atoms: C_5  and  C_8
REMARK    4  A    between atoms: C_10  and  C_11
REMARK                            x       y       z     vdW  Elec       q    Type
REMARK                         _______ _______ _______ _____ _____    ______ ____
ROOT
ATOM      1  C   UNL     1       2.936  -0.237   0.537  0.00  0.00    +0.000 C 
ATOM      2  C   UNL     1       1.477  -0.071   0.234  0.00  0.00    +0.000 A 
ATOM      3  C   UNL     1       0.819   1.124   0.550  0.00  0.00    +0.000 A 
ATOM      4  C   UNL     1      -0.550   1.286   0.301  0.00  0.00    +0.000 A 
ATOM      5  C   UNL     1      -1.288   0.218  -0.235  0.00  0.00    +0.000 A 
ATOM      6  C   UNL     1      -0.632  -0.982  -0.543  0.00  0.00    +0.000 A 
ATOM      7  C   UNL     1       0.737  -1.126  -0.308  0.00  0.00    +0.000 A 
ATOM      8  C   UNL     1      -2.764   0.353  -0.483  0.00  0.00    +0.000 C 
ENDROOT
BRANCH   4   9
ATOM      9  N   UNL     1      -1.171   2.503   0.632  0.00  0.00    +0.000 NA
ATOM     10  C   UNL     1      -1.091   3.436  -0.263  0.00  0.00    +0.000 C 
BRANCH  10  11
ATOM     11  C   UNL     1      -1.695   4.767  -0.062  0.00  0.00    +0.000 A 
ATOM     12  C   UNL     1      -2.393   5.067   1.112  0.00  0.00    +0.000 A 
ATOM     13  C   UNL     1      -2.957   6.332   1.279  0.00  0.00    +0.000 A 
ATOM     14  C   UNL     1      -2.823   7.293   0.276  0.00  0.00    +0.000 A 
ATOM     15  C   UNL     1      -2.126   6.993  -0.895  0.00  0.00    +0.000 A 
ATOM     16  C   UNL     1      -1.561   5.728  -1.067  0.00  0.00    +0.000 A 
ENDBRANCH  10  11
ENDBRANCH   4   9
TORSDOF 2
