REMARK  Name = *****
REMARK  3 active torsions:
REMARK  status: ('A' for Active; 'I' for Inactive)
REMARK    1  A    between atoms: C_5  and  C_7
REMARK    2  A    between atoms: C_7  and  C_16
REMARK    3  A    between atoms: N_8  and  C_9
REMARK                            x       y       z     vdW  Elec       q    Type
REMARK                         _______ _______ _______ _____ _____    ______ ____
ROOT
ATOM      1  C   UNL     1      -0.341  -2.538  -0.034  0.00  0.00    +0.000 C 
ATOM      2  N   UNL     1       0.296  -3.674  -0.077  0.00  0.00    +0.000 NA
ENDROOT
BRANCH   1   7
ATOM      3  C   UNL     1       1.311   0.572  -1.349  0.00  0.00    +0.000 A 
ATOM      4  C   UNL     1       1.476   1.321  -0.184  0.00  0.00    +0.000 A 
ATOM      5  C   UNL     1       1.047   0.814   1.045  0.00  0.00    +0.000 A 
ATOM      6  C   UNL     1       0.451  -0.448   1.113  0.00  0.00    +0.000 A 
ATOM      7  C   UNL     1       0.292  -1.198  -0.056  0.00  0.00    +0.000 A 
ATOM      8  C   UNL     1       0.717  -0.689  -1.289  0.00  0.00    +0.000 A 
ATOM      9 CL   UNL     1      -0.060  -1.028   2.656  0.00  0.00    +0.000 Cl
ENDBRANCH   1   7
BRANCH   2  10
ATOM     10  C   UNL     1       1.695  -3.700  -0.114  0.00  0.00    +0.000 A 
ATOM     11  C   UNL     1       2.440  -3.630   1.069  0.00  0.00    +0.000 A 
ATOM     12  C   UNL     1       3.835  -3.671   1.027  0.00  0.00    +0.000 A 
ATOM     13  C   UNL     1       4.478  -3.799  -0.199  0.00  0.00    +0.000 A 
ATOM     14  C   UNL     1       3.753  -3.896  -1.381  0.00  0.00    +0.000 A 
ATOM     15  C   UNL     1       2.358  -3.855  -1.336  0.00  0.00    +0.000 A 
ATOM     16  F   UNL     1       5.816  -3.838  -0.241  0.00  0.00    +0.000 F 
ENDBRANCH   2  10
BRANCH   1  17
ATOM     17  C   UNL     1      -1.855  -2.553   0.013  0.00  0.00    +0.000 C 
ATOM     18 CL   UNL     1      -2.469  -2.544  -1.655  0.00  0.00    +0.000 Cl
ENDBRANCH   1  17
TORSDOF 3
