REMARK  Name = *****
REMARK  4 active torsions:
REMARK  status: ('A' for Active; 'I' for Inactive)
REMARK    1  A    between atoms: C_1  and  O_2
REMARK    2  A    between atoms: O_2  and  C_3
REMARK    3  A    between atoms: C_9  and  C_10
REMARK    4  A    between atoms: C_10  and  C_11
REMARK                            x       y       z     vdW  Elec       q    Type
REMARK                         _______ _______ _______ _____ _____    ______ ____
ROOT
ATOM      1  C   UNL     1       7.619  -6.861   7.602  0.00  0.00    +0.000 C 
ATOM      2  C   UNL     1       6.740  -5.836   7.770  0.00  0.00    +0.000 C 
ATOM      3  C   UNL     1       6.100  -5.469   6.625  0.00  0.00    +0.000 C 
ATOM      4  C   UNL     1       6.374  -6.206   5.468  0.00  0.00    +0.000 C 
ATOM      5  C   UNL     1       7.671  -6.485   5.064  0.00  0.00    +0.000 C 
ATOM      6  C   UNL     1       8.029  -7.139   6.231  0.00  0.00    +0.000 C 
ATOM      7  C   UNL     1       7.268  -5.769   3.885  0.00  0.00    +0.000 C 
ENDROOT
BRANCH   1   9
ATOM      8  C   UNL     1       7.393  -7.553   9.882  0.00  0.00    +0.000 C 
ATOM      9  O   UNL     1       8.101  -7.631   8.628  0.00  0.00    +0.000 OA
ENDBRANCH   1   9
BRANCH   7  10
ATOM     10  C   UNL     1       6.731  -5.427   2.857  0.00  0.00    +0.000 C 
BRANCH  10  11
ATOM     11  C   UNL     1       6.580  -5.526   1.401  0.00  0.00    +0.000 C 
ATOM     12  C   UNL     1       8.007  -5.147   0.976  0.00  0.00    +0.000 C 
ATOM     13  C   UNL     1       8.763  -6.090   0.071  0.00  0.00    +0.000 C 
ATOM     14  C   UNL     1       8.293  -7.540  -0.019  0.00  0.00    +0.000 C 
ATOM     15  C   UNL     1       6.965  -7.862   0.571  0.00  0.00    +0.000 C 
ATOM     16  C   UNL     1       6.176  -6.960   1.162  0.00  0.00    +0.000 C 
ENDBRANCH  10  11
ENDBRANCH   7  10
TORSDOF 3
