REMARK  Name = *****
REMARK  3 active torsions:
REMARK  status: ('A' for Active; 'I' for Inactive)
REMARK    1  A    between atoms: C_4  and  C_7
REMARK    2  A    between atoms: C_7  and  C_8
REMARK    3  A    between atoms: C_8  and  C_9
REMARK                            x       y       z     vdW  Elec       q    Type
REMARK                         _______ _______ _______ _____ _____    ______ ____
ROOT
ATOM      1  C   UNL     1      -3.591  -0.846  -0.328  0.00  0.00    +0.000 C 
ENDROOT
BRANCH   1   2
ATOM      2  C   UNL     1      -5.073  -0.604  -0.495  0.00  0.00    +0.000 A 
ATOM      3  C   UNL     1      -5.618  -0.401  -1.772  0.00  0.00    +0.000 A 
ATOM      4  C   UNL     1      -6.984  -0.158  -1.924  0.00  0.00    +0.000 A 
ATOM      5  C   UNL     1      -7.801  -0.116  -0.801  0.00  0.00    +0.000 A 
ATOM      6  C   UNL     1      -7.279  -0.310   0.472  0.00  0.00    +0.000 A 
ATOM      7  C   UNL     1      -5.914  -0.552   0.627  0.00  0.00    +0.000 A 
ATOM      8  F   UNL     1      -9.112   0.117  -0.948  0.00  0.00    +0.000 F 
ENDBRANCH   1   2
BRANCH   1   9
ATOM      9  C   UNL     1      -2.817   0.468  -0.190  0.00  0.00    +0.000 C 
BRANCH   9  13
ATOM     10  C   UNL     1       1.405  -0.269   0.290  0.00  0.00    +0.000 A 
ATOM     11  C   UNL     1       0.868  -0.093  -0.984  0.00  0.00    +0.000 A 
ATOM     12  C   UNL     1      -0.498   0.151  -1.140  0.00  0.00    +0.000 A 
ATOM     13  C   UNL     1      -1.337   0.225  -0.021  0.00  0.00    +0.000 A 
ATOM     14  C   UNL     1      -0.789   0.041   1.255  0.00  0.00    +0.000 A 
ATOM     15  C   UNL     1       0.577  -0.203   1.409  0.00  0.00    +0.000 A 
ENDBRANCH   9  13
ENDBRANCH   1   9
TORSDOF 3
