REMARK  Name = *****
REMARK  5 active torsions:
REMARK  status: ('A' for Active; 'I' for Inactive)
REMARK    1  A    between atoms: C_4  and  C_7
REMARK    2  A    between atoms: C_7  and  C_8
REMARK    3  A    between atoms: C_8  and  S_9
REMARK    4  A    between atoms: S_9  and  C_10
REMARK    5  A    between atoms: C_10  and  C_11
REMARK                            x       y       z     vdW  Elec       q    Type
REMARK                         _______ _______ _______ _____ _____    ______ ____
ROOT
ATOM      1  C   UNL     1      -0.335  -3.643   0.301  0.00  0.00    +0.000 C 
ENDROOT
BRANCH   1   2
ATOM      2  C   UNL     1       0.798  -2.676  -0.050  0.00  0.00    +0.000 C 
BRANCH   2   6
ATOM      3  C   UNL     1      -0.839   1.396   0.103  0.00  0.00    +0.000 C 
ATOM      4  C   UNL     1      -0.700   0.732  -1.262  0.00  0.00    +0.000 C 
ATOM      5  C   UNL     1      -0.589  -0.789  -1.127  0.00  0.00    +0.000 C 
ATOM      6  C   UNL     1       0.346  -1.230  -0.023  0.00  0.00    +0.000 C 
ATOM      7  C   UNL     1       0.779  -0.371   0.919  0.00  0.00    +0.000 C 
ATOM      8  C   UNL     1       0.356   1.067   0.998  0.00  0.00    +0.000 C 
ENDBRANCH   2   6
ENDBRANCH   1   2
BRANCH   1   9
ATOM      9  S   UNL     1       0.211  -5.383   0.274  0.00  0.00    +0.000 S 
BRANCH   9  10
ATOM     10  C   UNL     1       1.116  -5.437   1.853  0.00  0.00    +0.000 C 
BRANCH  10  11
ATOM     11  C   UNL     1       1.638  -6.821   2.143  0.00  0.00    +0.000 A 
ATOM     12  C   UNL     1       2.904  -7.217   1.685  0.00  0.00    +0.000 A 
ATOM     13  C   UNL     1       3.384  -8.501   1.949  0.00  0.00    +0.000 A 
ATOM     14  C   UNL     1       2.603  -9.404   2.667  0.00  0.00    +0.000 A 
ATOM     15  C   UNL     1       1.339  -9.027   3.118  0.00  0.00    +0.000 A 
ATOM     16  C   UNL     1       0.857  -7.744   2.856  0.00  0.00    +0.000 A 
ENDBRANCH  10  11
ENDBRANCH   9  10
ENDBRANCH   1   9
TORSDOF 5
