REMARK  Name = *****
REMARK  6 active torsions:
REMARK  status: ('A' for Active; 'I' for Inactive)
REMARK    1  A    between atoms: C_1  and  C_2
REMARK    2  A    between atoms: C_5  and  C_8
REMARK    3  A    between atoms: C_8  and  S_10
REMARK    4  A    between atoms: S_10  and  C_11
REMARK    5  A    between atoms: C_14  and  O_17
REMARK    6  A    between atoms: O_17  and  C_18
REMARK                            x       y       z     vdW  Elec       q    Type
REMARK                         _______ _______ _______ _____ _____    ______ ____
ROOT
ATOM      1  C   UNL     1      -3.551   0.105   0.315  0.00  0.00    +0.000 C 
ATOM      2  O   UNL     1      -4.097  -0.960   0.579  0.00  0.00    +0.000 OA
ENDROOT
BRANCH   1   7
ATOM      3  C   UNL     1       2.231   0.174  -0.317  0.00  0.00    +0.000 C 
ATOM      4  C   UNL     1       0.737   0.171  -0.188  0.00  0.00    +0.000 A 
ATOM      5  C   UNL     1       0.010   1.358  -0.328  0.00  0.00    +0.000 A 
ATOM      6  C   UNL     1      -1.381   1.367  -0.174  0.00  0.00    +0.000 A 
ATOM      7  C   UNL     1      -2.069   0.185   0.134  0.00  0.00    +0.000 A 
ATOM      8  C   UNL     1      -1.334  -1.001   0.286  0.00  0.00    +0.000 A 
ATOM      9  C   UNL     1       0.055  -1.007   0.133  0.00  0.00    +0.000 A 
ENDBRANCH   1   7
BRANCH   1  10
ATOM     10  S   UNL     1      -4.505   1.579   0.174  0.00  0.00    +0.000 S 
BRANCH  10  11
ATOM     11  C   UNL     1      -5.201   1.353  -1.450  0.00  0.00    +0.000 A 
ATOM     12  C   UNL     1      -6.020   0.260  -1.747  0.00  0.00    +0.000 A 
ATOM     13  C   UNL     1      -6.570   0.106  -3.026  0.00  0.00    +0.000 A 
ATOM     14  C   UNL     1      -6.312   1.052  -4.018  0.00  0.00    +0.000 A 
ATOM     15  C   UNL     1      -5.503   2.150  -3.718  0.00  0.00    +0.000 A 
ATOM     16  C   UNL     1      -4.953   2.304  -2.442  0.00  0.00    +0.000 A 
BRANCH  14  17
ATOM     17  O   UNL     1      -6.784   1.023  -5.301  0.00  0.00    +0.000 OA
ATOM     18  C   UNL     1      -7.627  -0.068  -5.651  0.00  0.00    +0.000 C 
ENDBRANCH  14  17
ENDBRANCH  10  11
ENDBRANCH   1  10
TORSDOF 4
