REMARK  Name = *****
REMARK  6 active torsions:
REMARK  status: ('A' for Active; 'I' for Inactive)
REMARK    1  A    between atoms: C_1  and  C_2
REMARK    2  A    between atoms: C_2  and  C_3
REMARK    3  A    between atoms: C_2  and  C_4
REMARK    4  A    between atoms: C_7  and  C_9
REMARK    5  A    between atoms: C_9  and  C_10
REMARK    6  A    between atoms: C_10  and  C_11
REMARK                            x       y       z     vdW  Elec       q    Type
REMARK                         _______ _______ _______ _____ _____    ______ ____
ROOT
ATOM      1  C   UNL     1       2.901   0.929   0.976  0.00  0.00    +0.000 C 
ATOM      2  C   UNL     1       2.826   2.263   1.093  0.00  0.00    +0.000 C 
ATOM      3  C   UNL     1       3.230   2.828   2.421  0.00  0.00    +0.000 C 
ATOM      4  C   UNL     1       3.235   1.685   3.448  0.00  0.00    +0.000 C 
ATOM      5  S   UNL     1       3.492   0.174   2.437  0.00  0.00    +0.000 S 
ENDROOT
BRANCH   1   7
ATOM      6  C   UNL     1       1.233  -0.588  -0.110  0.00  0.00    +0.000 C 
ATOM      7  C   UNL     1       2.604   0.083  -0.242  0.00  0.00    +0.000 C 
ATOM      8  C   UNL     1       2.675   0.852  -1.566  0.00  0.00    +0.000 C 
ENDBRANCH   1   7
BRANCH   4   9
ATOM      9  C   UNL     1       1.917   1.616   4.235  0.00  0.00    +0.000 C 
BRANCH   9  10
ATOM     10  C   UNL     1       1.924   0.549   5.336  0.00  0.00    +0.000 C 
BRANCH  10  11
ATOM     11  C   UNL     1       0.647   0.582   6.140  0.00  0.00    +0.000 A 
ATOM     12  C   UNL     1      -0.480  -0.130   5.707  0.00  0.00    +0.000 A 
ATOM     13  C   UNL     1      -1.668  -0.087   6.437  0.00  0.00    +0.000 A 
ATOM     14  C   UNL     1      -1.742   0.672   7.604  0.00  0.00    +0.000 A 
ATOM     15  C   UNL     1      -0.629   1.389   8.040  0.00  0.00    +0.000 A 
ATOM     16  C   UNL     1       0.560   1.346   7.311  0.00  0.00    +0.000 A 
ENDBRANCH  10  11
ENDBRANCH   9  10
ENDBRANCH   4   9
TORSDOF 4
