REMARK  Name = *****
REMARK  1 active torsions:
REMARK  status: ('A' for Active; 'I' for Inactive)
REMARK    1  A    between atoms: C_5  and  C_9
REMARK                            x       y       z     vdW  Elec       q    Type
REMARK                         _______ _______ _______ _____ _____    ______ ____
ROOT
ATOM      1  C   UNL     1       1.545  -0.371  -0.994  0.00  0.00    +0.000 C 
ATOM      2  C   UNL     1       0.905  -1.462  -0.147  0.00  0.00    +0.000 C 
ATOM      3  C   UNL     1      -0.057  -0.748   0.813  0.00  0.00    +0.000 C 
ATOM      4  C   UNL     1      -1.529  -0.828   0.401  0.00  0.00    +0.000 C 
ATOM      5  C   UNL     1      -1.730   0.356  -0.546  0.00  0.00    +0.000 C 
ATOM      6  C   UNL     1      -0.882   1.461   0.095  0.00  0.00    +0.000 C 
ATOM      7  C   UNL     1       0.311   0.749   0.753  0.00  0.00    +0.000 C 
ATOM      8  C   UNL     1       1.606   0.820  -0.055  0.00  0.00    +0.000 C 
ENDROOT
BRANCH   5   9
ATOM      9  C   UNL     1      -3.175   0.732  -0.781  0.00  0.00    +0.000 A 
ATOM     10  C   UNL     1      -4.030   1.100   0.269  0.00  0.00    +0.000 A 
ATOM     11  C   UNL     1      -5.361   1.442   0.022  0.00  0.00    +0.000 A 
ATOM     12  C   UNL     1      -5.858   1.422  -1.279  0.00  0.00    +0.000 A 
ATOM     13  C   UNL     1      -5.024   1.060  -2.333  0.00  0.00    +0.000 A 
ATOM     14  C   UNL     1      -3.692   0.718  -2.086  0.00  0.00    +0.000 A 
ENDBRANCH   5   9
TORSDOF 1
