REMARK  Name = *****
REMARK  2 active torsions:
REMARK  status: ('A' for Active; 'I' for Inactive)
REMARK    1  A    between atoms: C_5  and  C_7
REMARK    2  A    between atoms: C_8  and  C_9
REMARK                            x       y       z     vdW  Elec       q    Type
REMARK                         _______ _______ _______ _____ _____    ______ ____
ROOT
ATOM      1  C   UNL     1      -0.055   2.204  -0.501  0.00  0.00    +0.000 C 
ATOM      2  C   UNL     1      -0.841   2.759   0.435  0.00  0.00    +0.000 C 
ENDROOT
BRANCH   1   7
ATOM      3  C   UNL     1       2.525  -0.057   1.062  0.00  0.00    +0.000 A 
ATOM      4  C   UNL     1       2.397  -1.217   0.302  0.00  0.00    +0.000 A 
ATOM      5  C   UNL     1       1.460  -1.272  -0.730  0.00  0.00    +0.000 A 
ATOM      6  C   UNL     1       0.647  -0.166  -1.002  0.00  0.00    +0.000 A 
ATOM      7  C   UNL     1       0.759   1.008  -0.238  0.00  0.00    +0.000 A 
ATOM      8  C   UNL     1       1.714   1.048   0.792  0.00  0.00    +0.000 A 
ATOM      9 BR   UNL     1      -0.611  -0.337  -2.419  0.00  0.00    +0.000 Br
ENDBRANCH   1   7
BRANCH   2  10
ATOM     10  C   UNL     1      -1.682   3.940   0.197  0.00  0.00    +0.000 A 
ATOM     11  C   UNL     1      -1.242   5.026  -0.568  0.00  0.00    +0.000 A 
ATOM     12  C   UNL     1      -2.066   6.135  -0.738  0.00  0.00    +0.000 A 
ATOM     13  C   UNL     1      -3.325   6.193  -0.151  0.00  0.00    +0.000 A 
ATOM     14  C   UNL     1      -3.767   5.124   0.624  0.00  0.00    +0.000 A 
ATOM     15  C   UNL     1      -2.946   4.006   0.802  0.00  0.00    +0.000 A 
ATOM     16  F   UNL     1      -1.636   7.168  -1.474  0.00  0.00    +0.000 F 
ENDBRANCH   2  10
TORSDOF 2
