REMARK  Name = *****
REMARK  2 active torsions:
REMARK  status: ('A' for Active; 'I' for Inactive)
REMARK    1  A    between atoms: C_3  and  C_7
REMARK    2  A    between atoms: C_8  and  C_9
REMARK                            x       y       z     vdW  Elec       q    Type
REMARK                         _______ _______ _______ _____ _____    ______ ____
ROOT
ATOM      1  C   UNL     1       2.093   0.562  -1.351  0.00  0.00    +0.000 C 
ATOM      2  C   UNL     1       2.521   0.722  -2.463  0.00  0.00    +0.000 C 
ENDROOT
BRANCH   1   5
ATOM      3  C   UNL     1      -0.819   1.089  -0.410  0.00  0.00    +0.000 C 
ATOM      4  C   UNL     1       0.479   1.374   0.354  0.00  0.00    +0.000 C 
ATOM      5  C   UNL     1       1.593   0.372   0.027  0.00  0.00    +0.000 C 
ATOM      6  C   UNL     1       1.123  -1.077   0.262  0.00  0.00    +0.000 C 
ATOM      7  C   UNL     1      -0.299  -1.342  -0.151  0.00  0.00    +0.000 C 
ATOM      8  C   UNL     1      -1.166  -0.369  -0.465  0.00  0.00    +0.000 C 
ENDBRANCH   1   5
BRANCH   2   9
ATOM      9  C   UNL     1       3.048   0.915  -3.778  0.00  0.00    +0.000 A 
ATOM     10  C   UNL     1       3.348   2.203  -4.230  0.00  0.00    +0.000 A 
ATOM     11  C   UNL     1       3.876   2.390  -5.509  0.00  0.00    +0.000 A 
ATOM     12  C   UNL     1       4.105   1.292  -6.337  0.00  0.00    +0.000 A 
ATOM     13  C   UNL     1       3.804   0.005  -5.889  0.00  0.00    +0.000 A 
ATOM     14  C   UNL     1       3.276  -0.184  -4.610  0.00  0.00    +0.000 A 
ENDBRANCH   2   9
TORSDOF 2
