REMARK  Name = *****
REMARK  2 active torsions:
REMARK  status: ('A' for Active; 'I' for Inactive)
REMARK    1  A    between atoms: C_2  and  S_10
REMARK    2  A    between atoms: S_10  and  C_11
REMARK                            x       y       z     vdW  Elec       q    Type
REMARK                         _______ _______ _______ _____ _____    ______ ____
ROOT
ATOM      1  C   UNL     1       1.728   1.237   0.241  0.00  0.00    +0.000 C 
ATOM      2  C   UNL     1       2.551   0.008  -0.200  0.00  0.00    +0.000 C 
ATOM      3  C   UNL     1       1.700  -1.228   0.165  0.00  0.00    +0.000 C 
ATOM      4  C   UNL     1       0.315  -0.675   0.020  0.00  0.00    +0.000 A 
ATOM      5  C   UNL     1      -0.875  -1.373  -0.092  0.00  0.00    +0.000 A 
ATOM      6  C   UNL     1      -2.064  -0.644  -0.174  0.00  0.00    +0.000 A 
ATOM      7  C   UNL     1      -2.048   0.759  -0.130  0.00  0.00    +0.000 A 
ATOM      8  C   UNL     1      -0.844   1.454  -0.003  0.00  0.00    +0.000 A 
ATOM      9  C   UNL     1       0.331   0.724   0.065  0.00  0.00    +0.000 A 
ENDROOT
BRANCH   2  10
ATOM     10  S   UNL     1       4.208  -0.077   0.571  0.00  0.00    +0.000 S 
BRANCH  10  11
ATOM     11  C   UNL     1       4.945   1.406  -0.088  0.00  0.00    +0.000 A 
ATOM     12  C   UNL     1       5.380   2.401   0.796  0.00  0.00    +0.000 A 
ATOM     13  C   UNL     1       5.968   3.570   0.306  0.00  0.00    +0.000 A 
ATOM     14  C   UNL     1       6.128   3.733  -1.064  0.00  0.00    +0.000 A 
ATOM     15  C   UNL     1       5.715   2.749  -1.955  0.00  0.00    +0.000 A 
ATOM     16  C   UNL     1       5.126   1.581  -1.466  0.00  0.00    +0.000 A 
ATOM     17  F   UNL     1       6.692   4.853  -1.534  0.00  0.00    +0.000 F 
ENDBRANCH  10  11
ENDBRANCH   2  10
TORSDOF 2
