REMARK  Name = *****
REMARK  3 active torsions:
REMARK  status: ('A' for Active; 'I' for Inactive)
REMARK    1  A    between atoms: C_4  and  O_7
REMARK    2  A    between atoms: O_7  and  C_8
REMARK    3  A    between atoms: C_8  and  C_10
REMARK                            x       y       z     vdW  Elec       q    Type
REMARK                         _______ _______ _______ _____ _____    ______ ____
ROOT
ATOM      1  C   UNL     1       3.473  -1.654   0.413  0.00  0.00    +0.000 C 
ATOM      2  O   UNL     1       3.114  -2.259   1.410  0.00  0.00    +0.000 OA
ENDROOT
BRANCH   1   3
ATOM      3  C   UNL     1       4.794  -1.862  -0.238  0.00  0.00    +0.000 A 
ATOM      4  C   UNL     1       5.191  -1.145  -1.375  0.00  0.00    +0.000 A 
ATOM      5  C   UNL     1       6.444  -1.385  -1.939  0.00  0.00    +0.000 A 
ATOM      6  C   UNL     1       7.307  -2.330  -1.384  0.00  0.00    +0.000 A 
ATOM      7  C   UNL     1       6.916  -3.046  -0.253  0.00  0.00    +0.000 A 
ATOM      8  C   UNL     1       5.663  -2.813   0.318  0.00  0.00    +0.000 A 
ATOM      9 CL   UNL     1       6.932  -0.504  -3.335  0.00  0.00    +0.000 Cl
ENDBRANCH   1   3
BRANCH   1  10
ATOM     10  O   UNL     1       2.756  -0.718  -0.255  0.00  0.00    +0.000 OA
BRANCH  10  14
ATOM     11  C   UNL     1      -1.355   0.332  -0.278  0.00  0.00    +0.000 C 
ATOM     12  C   UNL     1      -0.988  -1.078   0.175  0.00  0.00    +0.000 C 
ATOM     13  C   UNL     1       0.435  -1.447  -0.232  0.00  0.00    +0.000 C 
ATOM     14  C   UNL     1       1.452  -0.419   0.276  0.00  0.00    +0.000 C 
ATOM     15  C   UNL     1       1.079   0.989  -0.194  0.00  0.00    +0.000 C 
ATOM     16  C   UNL     1      -0.342   1.363   0.212  0.00  0.00    +0.000 C 
ENDBRANCH  10  14
ENDBRANCH   1  10
TORSDOF 3
