REMARK  Name = *****
REMARK  2 active torsions:
REMARK  status: ('A' for Active; 'I' for Inactive)
REMARK    1  A    between atoms: C_4  and  C_7
REMARK    2  A    between atoms: C_7  and  C_8
REMARK                            x       y       z     vdW  Elec       q    Type
REMARK                         _______ _______ _______ _____ _____    ______ ____
ROOT
ATOM      1  C   UNL     1      -3.870  -0.925  -0.147  0.00  0.00    +0.000 A 
ATOM      2  N   UNL     1      -4.382  -1.670  -1.111  0.00  0.00    +0.000 NA
ATOM      3  C   UNL     1      -5.047  -2.660  -0.435  0.00  0.00    +0.000 A 
ATOM      4  C   UNL     1      -4.920  -2.467   0.931  0.00  0.00    +0.000 A 
ATOM      5  O   UNL     1      -4.168  -1.345   1.126  0.00  0.00    +0.000 OA
ATOM      6  C   UNL     1      -5.472  -3.288   1.905  0.00  0.00    +0.000 A 
ATOM      7  C   UNL     1      -6.204  -4.377   1.421  0.00  0.00    +0.000 A 
ATOM      8  C   UNL     1      -6.363  -4.613   0.049  0.00  0.00    +0.000 A 
ATOM      9  C   UNL     1      -5.785  -3.756  -0.901  0.00  0.00    +0.000 A 
ATOM     10 CL   UNL     1      -6.932  -5.460   2.548  0.00  0.00    +0.000 Cl
ENDROOT
BRANCH   1  11
ATOM     11  C   UNL     1      -3.037   0.304  -0.266  0.00  0.00    +0.000 C 
BRANCH  11  15
ATOM     12  C   UNL     1       1.184  -0.436   0.264  0.00  0.00    +0.000 A 
ATOM     13  C   UNL     1       0.519  -0.955  -0.845  0.00  0.00    +0.000 A 
ATOM     14  C   UNL     1      -0.845  -0.716  -1.017  0.00  0.00    +0.000 A 
ATOM     15  C   UNL     1      -1.560   0.044  -0.077  0.00  0.00    +0.000 A 
ATOM     16  C   UNL     1      -0.880   0.558   1.036  0.00  0.00    +0.000 A 
ATOM     17  C   UNL     1       0.486   0.320   1.203  0.00  0.00    +0.000 A 
ENDBRANCH  11  15
ENDBRANCH   1  11
TORSDOF 2
