REMARK  Name = *****
REMARK  6 active torsions:
REMARK  status: ('A' for Active; 'I' for Inactive)
REMARK    1  A    between atoms: C_1  and  O_2
REMARK    2  A    between atoms: O_2  and  C_3
REMARK    3  A    between atoms: C_3  and  C_13
REMARK    4  A    between atoms: C_4  and  C_5
REMARK    5  A    between atoms: C_4  and  O_11
REMARK    6  A    between atoms: O_11  and  C_12
REMARK                            x       y       z     vdW  Elec       q    Type
REMARK                         _______ _______ _______ _____ _____    ______ ____
ROOT
ATOM      1  C   UNL     1       3.099   0.881   1.177  0.00  0.00    +0.000 C 
ATOM      2  C   UNL     1       2.361   1.351   2.208  0.00  0.00    +0.000 C 
ENDROOT
BRANCH   2   3
ATOM      3  C   UNL     1       0.885   1.236   2.269  0.00  0.00    +0.000 A 
ATOM      4  C   UNL     1       0.276   0.704   3.416  0.00  0.00    +0.000 A 
ATOM      5  C   UNL     1      -1.115   0.606   3.505  0.00  0.00    +0.000 A 
ATOM      6  C   UNL     1      -1.913   1.044   2.451  0.00  0.00    +0.000 A 
ATOM      7  C   UNL     1      -1.323   1.583   1.310  0.00  0.00    +0.000 A 
ATOM      8  C   UNL     1       0.068   1.682   1.221  0.00  0.00    +0.000 A 
ENDBRANCH   2   3
BRANCH   1   9
ATOM      9  C   UNL     1       4.575   0.997   1.118  0.00  0.00    +0.000 A 
ATOM     10  C   UNL     1       5.391   0.542   2.163  0.00  0.00    +0.000 A 
ATOM     11  C   UNL     1       6.782   0.642   2.077  0.00  0.00    +0.000 A 
ATOM     12  C   UNL     1       7.373   1.191   0.940  0.00  0.00    +0.000 A 
ATOM     13  C   UNL     1       6.575   1.638  -0.111  0.00  0.00    +0.000 A 
ATOM     14  C   UNL     1       5.185   1.538  -0.024  0.00  0.00    +0.000 A 
ENDBRANCH   1   9
BRANCH   1  16
ATOM     15  C   UNL     1       2.620  -1.063   0.014  0.00  0.00    +0.000 C 
ATOM     16  O   UNL     1       2.513   0.360   0.031  0.00  0.00    +0.000 OA
ENDBRANCH   1  16
BRANCH   2  17
ATOM     17  O   UNL     1       2.948   1.872   3.354  0.00  0.00    +0.000 OA
ATOM     18  C   UNL     1       2.852   3.297   3.364  0.00  0.00    +0.000 C 
ENDBRANCH   2  17
TORSDOF 4
