REMARK  Name = *****
REMARK  3 active torsions:
REMARK  status: ('A' for Active; 'I' for Inactive)
REMARK    1  A    between atoms: C_2  and  C_3
REMARK    2  A    between atoms: C_8  and  C_9
REMARK    3  A    between atoms: C_10  and  C_11
REMARK                            x       y       z     vdW  Elec       q    Type
REMARK                         _______ _______ _______ _____ _____    ______ ____
ROOT
ATOM      1  C   UNL     1       3.804  -2.582  -0.149  0.00  0.00    +0.000 C 
ATOM      2  C   UNL     1       3.242  -3.642  -0.211  0.00  0.00    +0.000 C 
ENDROOT
BRANCH   2   3
ATOM      3  C   UNL     1       2.562  -4.897  -0.290  0.00  0.00    +0.000 A 
ATOM      4  C   UNL     1       3.237  -6.081   0.026  0.00  0.00    +0.000 A 
ATOM      5  C   UNL     1       2.571  -7.305  -0.055  0.00  0.00    +0.000 A 
ATOM      6  C   UNL     1       1.237  -7.335  -0.448  0.00  0.00    +0.000 A 
ATOM      7  C   UNL     1       0.556  -6.165  -0.764  0.00  0.00    +0.000 A 
ATOM      8  C   UNL     1       1.221  -4.939  -0.684  0.00  0.00    +0.000 A 
ATOM      9  F   UNL     1       0.599  -8.510  -0.525  0.00  0.00    +0.000 F 
ENDBRANCH   2   3
BRANCH   1  15
ATOM     10  C   UNL     1       3.757  -0.108   0.042  0.00  0.00    +0.000 A 
ATOM     11  C   UNL     1       4.455   1.105   0.103  0.00  0.00    +0.000 A 
ATOM     12  C   UNL     1       5.850   1.121   0.046  0.00  0.00    +0.000 A 
ATOM     13  C   UNL     1       6.556  -0.074  -0.073  0.00  0.00    +0.000 A 
ATOM     14  C   UNL     1       5.868  -1.287  -0.136  0.00  0.00    +0.000 A 
ATOM     15  C   UNL     1       4.469  -1.312  -0.079  0.00  0.00    +0.000 A 
BRANCH  10  17
ATOM     16  C   UNL     1       1.124  -0.045   0.158  0.00  0.00    +0.000 C 
ATOM     17  C   UNL     1       2.324  -0.076   0.104  0.00  0.00    +0.000 C 
ENDBRANCH  10  17
ENDBRANCH   1  15
TORSDOF 3
