REMARK  Name = *****
REMARK  2 active torsions:
REMARK  status: ('A' for Active; 'I' for Inactive)
REMARK    1  A    between atoms: C_1  and  C_2
REMARK    2  A    between atoms: C_9  and  C_11
REMARK                            x       y       z     vdW  Elec       q    Type
REMARK                         _______ _______ _______ _____ _____    ______ ____
ROOT
ATOM      1  C   UNL     1       1.095  -0.014  -0.188  0.00  0.00    +0.000 C 
ATOM      2  C   UNL     1       2.587  -0.059  -0.016  0.00  0.00    +0.000 A 
ATOM      3  C   UNL     1       3.284  -1.259  -0.259  0.00  0.00    +0.000 A 
ATOM      4  C   UNL     1       4.678  -1.263  -0.121  0.00  0.00    +0.000 A 
ATOM      5  C   UNL     1       5.320  -0.091   0.236  0.00  0.00    +0.000 A 
ATOM      6  C   UNL     1       4.683   1.120   0.473  0.00  0.00    +0.000 A 
ATOM      7  C   UNL     1       3.289   1.110   0.332  0.00  0.00    +0.000 A 
ATOM      8  O   UNL     1       6.656  -0.350   0.303  0.00  0.00    +0.000 OA
ATOM      9  C   UNL     1       6.756  -1.679  -0.020  0.00  0.00    +0.000 A 
ATOM     10  N   UNL     1       5.600  -2.266  -0.285  0.00  0.00    +0.000 NA
ENDROOT
BRANCH   9  11
ATOM     11  C   UNL     1       8.092  -2.267  -0.038  0.00  0.00    +0.000 A 
ATOM     12  C   UNL     1       9.249  -1.548   0.296  0.00  0.00    +0.000 A 
ATOM     13  C   UNL     1      10.509  -2.143   0.267  0.00  0.00    +0.000 A 
ATOM     14  C   UNL     1      10.622  -3.475  -0.099  0.00  0.00    +0.000 A 
ATOM     15  C   UNL     1       9.500  -4.220  -0.437  0.00  0.00    +0.000 A 
ATOM     16  C   UNL     1       8.239  -3.618  -0.406  0.00  0.00    +0.000 A 
ATOM     17  F   UNL     1      11.830  -4.052  -0.129  0.00  0.00    +0.000 F 
ATOM     18  F   UNL     1       9.183  -0.259   0.658  0.00  0.00    +0.000 F 
ENDBRANCH   9  11
TORSDOF 1
