REMARK  Name = *****
REMARK  2 active torsions:
REMARK  status: ('A' for Active; 'I' for Inactive)
REMARK    1  A    between atoms: C_7  and  C_8
REMARK    2  A    between atoms: C_9  and  C_10
REMARK                            x       y       z     vdW  Elec       q    Type
REMARK                         _______ _______ _______ _____ _____    ______ ____
ROOT
ATOM      1  C   UNL     1       1.843  -2.071  -1.093  0.00  0.00    +0.000 C 
ATOM      2  C   UNL     1       3.037  -1.848  -1.667  0.00  0.00    +0.000 C 
ENDROOT
BRANCH   1   9
ATOM      3  C   UNL     1       0.555  -1.439   0.968  0.00  0.00    +0.000 C 
ATOM      4  C   UNL     1      -0.916  -1.212   1.188  0.00  0.00    +0.000 C 
ATOM      5  C   UNL     1      -1.595  -0.089   0.914  0.00  0.00    +0.000 C 
ATOM      6  C   UNL     1      -1.014   1.126   0.394  0.00  0.00    +0.000 C 
ATOM      7  C   UNL     1       0.028   1.218  -0.445  0.00  0.00    +0.000 C 
ATOM      8  C   UNL     1       0.779   0.122  -1.014  0.00  0.00    +0.000 C 
ATOM      9  C   UNL     1       1.058  -1.050  -0.409  0.00  0.00    +0.000 C 
ENDBRANCH   1   9
BRANCH   2  10
ATOM     10  C   UNL     1       3.835  -2.884  -2.337  0.00  0.00    +0.000 A 
ATOM     11  C   UNL     1       3.253  -3.894  -3.115  0.00  0.00    +0.000 A 
ATOM     12  C   UNL     1       4.049  -4.842  -3.762  0.00  0.00    +0.000 A 
ATOM     13  C   UNL     1       5.437  -4.785  -3.647  0.00  0.00    +0.000 A 
ATOM     14  C   UNL     1       6.029  -3.776  -2.890  0.00  0.00    +0.000 A 
ATOM     15  C   UNL     1       5.232  -2.828  -2.243  0.00  0.00    +0.000 A 
ENDBRANCH   2  10
TORSDOF 2
