REMARK  Name = *****
REMARK  2 active torsions:
REMARK  status: ('A' for Active; 'I' for Inactive)
REMARK    1  A    between atoms: C_4  and  C_7
REMARK    2  A    between atoms: C_8  and  C_9
REMARK                            x       y       z     vdW  Elec       q    Type
REMARK                         _______ _______ _______ _____ _____    ______ ____
ROOT
ATOM      1  C   UNL     1       2.927   0.179  -0.284  0.00  0.00    +0.000 C 
ATOM      2  C   UNL     1       4.122   0.251  -0.393  0.00  0.00    +0.000 C 
ENDROOT
BRANCH   2   3
ATOM      3  C   UNL     1       5.542   0.339  -0.525  0.00  0.00    +0.000 A 
ATOM      4  C   UNL     1       6.312  -0.824  -0.594  0.00  0.00    +0.000 A 
ATOM      5  C   UNL     1       7.694  -0.725  -0.725  0.00  0.00    +0.000 A 
ATOM      6  C   UNL     1       8.324   0.511  -0.787  0.00  0.00    +0.000 A 
ATOM      7  C   UNL     1       7.548   1.659  -0.716  0.00  0.00    +0.000 A 
ATOM      8  C   UNL     1       6.164   1.588  -0.585  0.00  0.00    +0.000 A 
ATOM      9  F   UNL     1       8.141   2.859  -0.775  0.00  0.00    +0.000 F 
ATOM     10  F   UNL     1       8.430  -1.842  -0.792  0.00  0.00    +0.000 F 
ENDBRANCH   2   3
BRANCH   1  14
ATOM     11  C   UNL     1      -1.272  -0.074   0.087  0.00  0.00    +0.000 A 
ATOM     12  C   UNL     1      -0.652   1.174   0.026  0.00  0.00    +0.000 A 
ATOM     13  C   UNL     1       0.737   1.258  -0.096  0.00  0.00    +0.000 A 
ATOM     14  C   UNL     1       1.505   0.093  -0.157  0.00  0.00    +0.000 A 
ATOM     15  C   UNL     1       0.882  -1.155  -0.095  0.00  0.00    +0.000 A 
ATOM     16  C   UNL     1      -0.507  -1.238   0.026  0.00  0.00    +0.000 A 
ENDBRANCH   1  14
TORSDOF 2
