REMARK  Name = *****
REMARK  4 active torsions:
REMARK  status: ('A' for Active; 'I' for Inactive)
REMARK    1  A    between atoms: C_1  and  O_2
REMARK    2  A    between atoms: O_2  and  C_3
REMARK    3  A    between atoms: C_8  and  C_9
REMARK    4  A    between atoms: C_10  and  C_11
REMARK                            x       y       z     vdW  Elec       q    Type
REMARK                         _______ _______ _______ _____ _____    ______ ____
ROOT
ATOM      1  C   UNL     1       4.507   1.723   0.635  0.00  0.00    +0.000 C 
ATOM      2  C   UNL     1       3.699   2.458  -0.148  0.00  0.00    +0.000 C 
ENDROOT
BRANCH   2   3
ATOM      3  C   UNL     1       4.103   3.668  -0.887  0.00  0.00    +0.000 A 
ATOM      4  C   UNL     1       5.425   3.907  -1.289  0.00  0.00    +0.000 A 
ATOM      5  C   UNL     1       5.756   5.058  -2.014  0.00  0.00    +0.000 A 
ATOM      6  C   UNL     1       4.770   5.981  -2.357  0.00  0.00    +0.000 A 
ATOM      7  C   UNL     1       3.449   5.751  -1.982  0.00  0.00    +0.000 A 
ATOM      8  C   UNL     1       3.126   4.603  -1.260  0.00  0.00    +0.000 A 
ATOM      9  F   UNL     1       1.840   4.409  -0.923  0.00  0.00    +0.000 F 
ENDBRANCH   2   3
BRANCH   1  15
ATOM     10  C   UNL     1       4.596   0.250   2.667  0.00  0.00    +0.000 A 
ATOM     11  C   UNL     1       4.192  -0.908   3.345  0.00  0.00    +0.000 A 
ATOM     12  C   UNL     1       3.285  -1.794   2.759  0.00  0.00    +0.000 A 
ATOM     13  C   UNL     1       2.779  -1.536   1.489  0.00  0.00    +0.000 A 
ATOM     14  C   UNL     1       3.175  -0.388   0.804  0.00  0.00    +0.000 A 
ATOM     15  C   UNL     1       4.072   0.526   1.385  0.00  0.00    +0.000 A 
BRANCH  10  17
ATOM     16  C   UNL     1       5.980   0.950   4.488  0.00  0.00    +0.000 C 
ATOM     17  O   UNL     1       5.490   1.164   3.171  0.00  0.00    +0.000 OA
ENDBRANCH  10  17
ENDBRANCH   1  15
TORSDOF 3
