REMARK  Name = *****
REMARK  2 active torsions:
REMARK  status: ('A' for Active; 'I' for Inactive)
REMARK    1  A    between atoms: C_5  and  C_7
REMARK    2  A    between atoms: C_9  and  C_10
REMARK                            x       y       z     vdW  Elec       q    Type
REMARK                         _______ _______ _______ _____ _____    ______ ____
ROOT
ATOM      1  C   UNL     1      -1.746  -1.904  -0.918  0.00  0.00    +0.000 C 
ATOM      2  C   UNL     1      -1.932  -2.100  -2.398  0.00  0.00    +0.000 C 
ATOM      3  C   UNL     1      -3.001  -1.388  -1.599  0.00  0.00    +0.000 C 
ENDROOT
BRANCH   1   8
ATOM      4  C   UNL     1       0.519  -3.206   1.014  0.00  0.00    +0.000 C 
ATOM      5  C   UNL     1      -0.028  -3.100   2.438  0.00  0.00    +0.000 C 
ATOM      6  C   UNL     1      -1.464  -2.670   2.490  0.00  0.00    +0.000 C 
ATOM      7  C   UNL     1      -2.266  -2.647   1.415  0.00  0.00    +0.000 C 
ATOM      8  C   UNL     1      -1.831  -3.076   0.033  0.00  0.00    +0.000 C 
ATOM      9  C   UNL     1      -0.496  -3.849   0.069  0.00  0.00    +0.000 C 
ENDBRANCH   1   8
BRANCH   3  10
ATOM     10  C   UNL     1      -3.206   0.099  -1.761  0.00  0.00    +0.000 A 
ATOM     11  C   UNL     1      -3.473   0.668  -3.017  0.00  0.00    +0.000 A 
ATOM     12  C   UNL     1      -3.680   2.042  -3.166  0.00  0.00    +0.000 A 
ATOM     13  C   UNL     1      -3.629   2.878  -2.054  0.00  0.00    +0.000 A 
ATOM     14  C   UNL     1      -3.374   2.339  -0.797  0.00  0.00    +0.000 A 
ATOM     15  C   UNL     1      -3.169   0.964  -0.655  0.00  0.00    +0.000 A 
ENDBRANCH   3  10
TORSDOF 2
