REMARK  Name = *****
REMARK  5 active torsions:
REMARK  status: ('A' for Active; 'I' for Inactive)
REMARK    1  A    between atoms: C_1  and  C_2
REMARK    2  A    between atoms: C_2  and  O_4
REMARK    3  A    between atoms: O_4  and  C_5
REMARK    4  A    between atoms: C_9  and  C_11
REMARK    5  A    between atoms: C_12  and  C_13
REMARK                            x       y       z     vdW  Elec       q    Type
REMARK                         _______ _______ _______ _____ _____    ______ ____
ROOT
ATOM      1  C   UNL     1       4.567   0.341  -1.225  0.00  0.00    +0.000 A 
ATOM      2  C   UNL     1       5.262  -0.788  -0.797  0.00  0.00    +0.000 A 
ATOM      3  C   UNL     1       6.654  -0.777  -0.821  0.00  0.00    +0.000 A 
ATOM      4  C   UNL     1       7.338   0.349  -1.293  0.00  0.00    +0.000 A 
ATOM      5  C   UNL     1       6.637   1.471  -1.761  0.00  0.00    +0.000 A 
ATOM      6  C   UNL     1       5.238   1.461  -1.717  0.00  0.00    +0.000 A 
ENDROOT
BRANCH   5   7
ATOM      7  C   UNL     1       7.325   2.677  -2.243  0.00  0.00    +0.000 C 
ATOM      8  C   UNL     1       8.436   2.649  -2.998  0.00  0.00    +0.000 C 
BRANCH   8   9
ATOM      9  C   UNL     1       9.116   3.854  -3.495  0.00  0.00    +0.000 A 
ATOM     10  C   UNL     1       9.262   5.007  -2.712  0.00  0.00    +0.000 A 
ATOM     11  C   UNL     1       9.943   6.121  -3.209  0.00  0.00    +0.000 A 
ATOM     12  C   UNL     1      10.494   6.091  -4.488  0.00  0.00    +0.000 A 
ATOM     13  C   UNL     1      10.370   4.944  -5.270  0.00  0.00    +0.000 A 
ATOM     14  C   UNL     1       9.689   3.830  -4.773  0.00  0.00    +0.000 A 
ENDBRANCH   8   9
ENDBRANCH   5   7
BRANCH   1  15
ATOM     15  O   UNL     1       3.168   0.354  -1.266  0.00  0.00    +0.000 OA
BRANCH  15  17
ATOM     16  C   UNL     1       1.052   0.284  -0.247  0.00  0.00    +0.000 C 
ATOM     17  C   UNL     1       2.536   0.270  -0.029  0.00  0.00    +0.000 C 
ATOM     18  O   UNL     1       3.069   0.206   1.070  0.00  0.00    +0.000 OA
ENDBRANCH  15  17
ENDBRANCH   1  15
TORSDOF 4
