REMARK  Name = *****
REMARK  5 active torsions:
REMARK  status: ('A' for Active; 'I' for Inactive)
REMARK    1  A    between atoms: C_1  and  C_2
REMARK    2  A    between atoms: C_4  and  C_8
REMARK    3  A    between atoms: C_8  and  C_17
REMARK    4  A    between atoms: N_9  and  C_10
REMARK    5  A    between atoms: C_10  and  C_11
REMARK                            x       y       z     vdW  Elec       q    Type
REMARK                         _______ _______ _______ _____ _____    ______ ____
ROOT
ATOM      1  C   UNL     1      -1.805   2.448  -0.625  0.00  0.00    +0.000 C 
ATOM      2  N   UNL     1      -3.085   2.537  -0.499  0.00  0.00    +0.000 NA
ATOM      3  C   UNL     1      -1.037   3.700  -0.975  0.00  0.00    +0.000 C 
ENDROOT
BRANCH   1   7
ATOM      4  C   UNL     1       1.260  -0.343   2.164  0.00  0.00    +0.000 C 
ATOM      5  C   UNL     1       0.506  -0.110   0.888  0.00  0.00    +0.000 A 
ATOM      6  C   UNL     1      -0.274   1.040   0.726  0.00  0.00    +0.000 A 
ATOM      7  C   UNL     1      -1.001   1.222  -0.453  0.00  0.00    +0.000 A 
ATOM      8  C   UNL     1      -0.966   0.275  -1.476  0.00  0.00    +0.000 A 
ATOM      9  C   UNL     1      -0.202  -0.877  -1.311  0.00  0.00    +0.000 A 
ATOM     10  C   UNL     1       0.525  -1.071  -0.133  0.00  0.00    +0.000 A 
ENDBRANCH   1   7
BRANCH   2  11
ATOM     11  C   UNL     1      -3.850   1.345  -0.117  0.00  0.00    +0.000 C 
BRANCH  11  12
ATOM     12  C   UNL     1      -5.316   1.631   0.137  0.00  0.00    +0.000 A 
ATOM     13  C   UNL     1      -5.787   2.921   0.415  0.00  0.00    +0.000 A 
ATOM     14  C   UNL     1      -7.140   3.146   0.677  0.00  0.00    +0.000 A 
ATOM     15  C   UNL     1      -8.039   2.082   0.676  0.00  0.00    +0.000 A 
ATOM     16  C   UNL     1      -7.584   0.791   0.415  0.00  0.00    +0.000 A 
ATOM     17  C   UNL     1      -6.231   0.566   0.151  0.00  0.00    +0.000 A 
ENDBRANCH  11  12
ENDBRANCH   2  11
TORSDOF 3
