REMARK  Name = *****
REMARK  3 active torsions:
REMARK  status: ('A' for Active; 'I' for Inactive)
REMARK    1  A    between atoms: C_4  and  C_7
REMARK    2  A    between atoms: C_8  and  S_9
REMARK    3  A    between atoms: S_9  and  C_10
REMARK                            x       y       z     vdW  Elec       q    Type
REMARK                         _______ _______ _______ _____ _____    ______ ____
ROOT
ATOM      1  C   UNL     1      -2.607   0.821  -0.700  0.00  0.00    +0.000 C 
ATOM      2  C   UNL     1      -3.524   0.047  -1.297  0.00  0.00    +0.000 C 
ENDROOT
BRANCH   1   6
ATOM      3  C   UNL     1       1.163  -0.522   0.810  0.00  0.00    +0.000 A 
ATOM      4  C   UNL     1       0.673  -1.054  -0.380  0.00  0.00    +0.000 A 
ATOM      5  C   UNL     1      -0.561  -0.630  -0.882  0.00  0.00    +0.000 A 
ATOM      6  C   UNL     1      -1.321   0.324  -0.191  0.00  0.00    +0.000 A 
ATOM      7  C   UNL     1      -0.808   0.864   0.996  0.00  0.00    +0.000 A 
ATOM      8  C   UNL     1       0.424   0.439   1.497  0.00  0.00    +0.000 A 
ENDBRANCH   1   6
BRANCH   2   9
ATOM      9  S   UNL     1      -5.022   0.714  -1.862  0.00  0.00    +0.000 S 
BRANCH   9  10
ATOM     10  C   UNL     1      -5.680  -0.722  -2.690  0.00  0.00    +0.000 A 
ATOM     11  C   UNL     1      -5.448  -0.898  -4.059  0.00  0.00    +0.000 A 
ATOM     12  C   UNL     1      -5.963  -2.013  -4.726  0.00  0.00    +0.000 A 
ATOM     13  C   UNL     1      -6.719  -2.958  -4.031  0.00  0.00    +0.000 A 
ATOM     14  C   UNL     1      -6.961  -2.787  -2.669  0.00  0.00    +0.000 A 
ATOM     15  C   UNL     1      -6.445  -1.674  -2.009  0.00  0.00    +0.000 A 
ATOM     16  F   UNL     1      -6.693  -1.540  -0.697  0.00  0.00    +0.000 F 
ENDBRANCH   9  10
ENDBRANCH   2   9
TORSDOF 3
