REMARK  Name = *****
REMARK  5 active torsions:
REMARK  status: ('A' for Active; 'I' for Inactive)
REMARK    1  A    between atoms: C_4  and  C_7
REMARK    2  A    between atoms: C_7  and  C_8
REMARK    3  A    between atoms: C_8  and  C_9
REMARK    4  A    between atoms: C_8  and  C_12
REMARK    5  A    between atoms: C_9  and  C_10
REMARK                            x       y       z     vdW  Elec       q    Type
REMARK                         _______ _______ _______ _____ _____    ______ ____
ROOT
ATOM      1  C   UNL     1      -3.658  -0.809   0.060  0.00  0.00    +0.000 C 
ENDROOT
BRANCH   1   2
ATOM      2  C   UNL     1      -5.129  -0.606  -0.296  0.00  0.00    +0.000 A 
ATOM      3  C   UNL     1      -5.818  -1.623  -0.982  0.00  0.00    +0.000 A 
ATOM      4  C   UNL     1      -7.167  -1.478  -1.309  0.00  0.00    +0.000 A 
ATOM      5  C   UNL     1      -7.838  -0.318  -0.948  0.00  0.00    +0.000 A 
ATOM      6  C   UNL     1      -7.185   0.698  -0.264  0.00  0.00    +0.000 A 
ATOM      7  C   UNL     1      -5.834   0.555   0.063  0.00  0.00    +0.000 A 
ATOM      8  F   UNL     1      -9.133  -0.180  -1.260  0.00  0.00    +0.000 F 
ENDBRANCH   1   2
BRANCH   1   9
ATOM      9  C   UNL     1      -2.778   0.428  -0.242  0.00  0.00    +0.000 C 
BRANCH   9  13
ATOM     10  C   UNL     1       1.436  -0.314   0.314  0.00  0.00    +0.000 A 
ATOM     11  C   UNL     1       0.779  -0.836  -0.798  0.00  0.00    +0.000 A 
ATOM     12  C   UNL     1      -0.583  -0.593  -0.984  0.00  0.00    +0.000 A 
ATOM     13  C   UNL     1      -1.299   0.176  -0.057  0.00  0.00    +0.000 A 
ATOM     14  C   UNL     1      -0.627   0.699   1.056  0.00  0.00    +0.000 A 
ATOM     15  C   UNL     1       0.734   0.455   1.240  0.00  0.00    +0.000 A 
ENDBRANCH   9  13
ENDBRANCH   1   9
BRANCH   1  16
ATOM     16  C   UNL     1      -3.502  -1.404   1.471  0.00  0.00    +0.000 C 
BRANCH  16  17
ATOM     17  C   UNL     1      -3.804  -0.498   2.641  0.00  0.00    +0.000 C 
ATOM     18  O   UNL     1      -3.859   0.726   2.603  0.00  0.00    +0.000 OA
ENDBRANCH  16  17
ENDBRANCH   1  16
TORSDOF 5
