REMARK  Name = *****
REMARK  5 active torsions:
REMARK  status: ('A' for Active; 'I' for Inactive)
REMARK    1  A    between atoms: C_1  and  C_2
REMARK    2  A    between atoms: C_2  and  C_4
REMARK    3  A    between atoms: C_5  and  S_11
REMARK    4  A    between atoms: S_11  and  C_12
REMARK    5  A    between atoms: C_12  and  C_13
REMARK                            x       y       z     vdW  Elec       q    Type
REMARK                         _______ _______ _______ _____ _____    ______ ____
ROOT
ATOM      1  C   UNL     1       3.103   1.404   0.254  0.00  0.00    +0.000 A 
ATOM      2  C   UNL     1       2.945   2.244   1.371  0.00  0.00    +0.000 A 
ATOM      3  C   UNL     1       3.721   3.413   1.444  0.00  0.00    +0.000 A 
ATOM      4  C   UNL     1       4.620   3.744   0.426  0.00  0.00    +0.000 A 
ATOM      5  C   UNL     1       4.769   2.899  -0.669  0.00  0.00    +0.000 A 
ATOM      6  C   UNL     1       4.023   1.729  -0.757  0.00  0.00    +0.000 A 
ATOM      7 CL   UNL     1       5.883   3.303  -1.914  0.00  0.00    +0.000 Cl
ENDROOT
BRANCH   1   9
ATOM      8  C   UNL     1       0.851   0.160   0.117  0.00  0.00    +0.000 C 
ATOM      9  C   UNL     1       2.356   0.138   0.057  0.00  0.00    +0.000 C 
ATOM     10  O   UNL     1       2.979  -0.881  -0.232  0.00  0.00    +0.000 OA
ENDBRANCH   1   9
BRANCH   2  11
ATOM     11  S   UNL     1       1.893   1.845   2.763  0.00  0.00    +0.000 S 
BRANCH  11  12
ATOM     12  C   UNL     1       0.764   3.279   2.729  0.00  0.00    +0.000 C 
BRANCH  12  13
ATOM     13  C   UNL     1      -0.430   3.058   3.621  0.00  0.00    +0.000 A 
ATOM     14  C   UNL     1      -0.362   3.354   4.991  0.00  0.00    +0.000 A 
ATOM     15  C   UNL     1      -1.466   3.138   5.818  0.00  0.00    +0.000 A 
ATOM     16  C   UNL     1      -2.646   2.621   5.287  0.00  0.00    +0.000 A 
ATOM     17  C   UNL     1      -2.723   2.315   3.930  0.00  0.00    +0.000 A 
ATOM     18  C   UNL     1      -1.621   2.529   3.100  0.00  0.00    +0.000 A 
ENDBRANCH  12  13
ENDBRANCH  11  12
ENDBRANCH   2  11
TORSDOF 4
