REMARK  Name = *****
REMARK  3 active torsions:
REMARK  status: ('A' for Active; 'I' for Inactive)
REMARK    1  A    between atoms: C_4  and  C_7
REMARK    2  A    between atoms: C_7  and  C_16
REMARK    3  A    between atoms: C_8  and  C_9
REMARK                            x       y       z     vdW  Elec       q    Type
REMARK                         _______ _______ _______ _____ _____    ______ ____
ROOT
ATOM      1  C   UNL     1      -2.872   0.373  -0.339  0.00  0.00    +0.000 C 
ATOM      2  C   UNL     1      -3.367   1.621  -0.210  0.00  0.00    +0.000 C 
ENDROOT
BRANCH   2   3
ATOM      3  C   UNL     1      -4.784   1.984  -0.360  0.00  0.00    +0.000 A 
ATOM      4  C   UNL     1      -5.663   1.740   0.705  0.00  0.00    +0.000 A 
ATOM      5  C   UNL     1      -7.016   2.067   0.596  0.00  0.00    +0.000 A 
ATOM      6  C   UNL     1      -7.505   2.642  -0.575  0.00  0.00    +0.000 A 
ATOM      7  C   UNL     1      -6.641   2.892  -1.642  0.00  0.00    +0.000 A 
ATOM      8  C   UNL     1      -5.286   2.566  -1.536  0.00  0.00    +0.000 A 
ATOM      9 CL   UNL     1      -4.263   2.901  -2.891  0.00  0.00    +0.000 Cl
ENDBRANCH   2   3
BRANCH   1  13
ATOM     10  C   UNL     1       1.345  -0.257   0.117  0.00  0.00    +0.000 A 
ATOM     11  C   UNL     1       0.442  -0.974   0.899  0.00  0.00    +0.000 A 
ATOM     12  C   UNL     1      -0.932  -0.768   0.751  0.00  0.00    +0.000 A 
ATOM     13  C   UNL     1      -1.417   0.163  -0.180  0.00  0.00    +0.000 A 
ATOM     14  C   UNL     1      -0.496   0.874  -0.966  0.00  0.00    +0.000 A 
ATOM     15  C   UNL     1       0.877   0.666  -0.816  0.00  0.00    +0.000 A 
ENDBRANCH   1  13
BRANCH   1  16
ATOM     16  C   UNL     1      -3.710  -0.756  -0.608  0.00  0.00    +0.000 C 
ATOM     17  N   UNL     1      -4.387  -1.678  -0.805  0.00  0.00    +0.000 NA
ENDBRANCH   1  16
TORSDOF 3
