REMARK  Name = *****
REMARK  1 active torsions:
REMARK  status: ('A' for Active; 'I' for Inactive)
REMARK    1  A    between atoms: C_8  and  C_10
REMARK                            x       y       z     vdW  Elec       q    Type
REMARK                         _______ _______ _______ _____ _____    ______ ____
ROOT
ATOM      1  C   UNL     1      -0.685  -2.525   0.832  0.00  0.00    +0.000 C 
ATOM      2  C   UNL     1       0.819  -2.400   0.554  0.00  0.00    +0.000 C 
ATOM      3  C   UNL     1       1.112  -1.542  -0.688  0.00  0.00    +0.000 C 
ATOM      4  C   UNL     1       0.240  -0.337  -0.724  0.00  0.00    +0.000 C 
ATOM      5  C   UNL     1      -0.847  -0.162   0.044  0.00  0.00    +0.000 C 
ATOM      6  C   UNL     1      -1.362  -1.158   1.020  0.00  0.00    +0.000 C 
ATOM      7  C   UNL     1      -1.452   1.182  -0.225  0.00  0.00    +0.000 C 
ATOM      8  C   UNL     1      -0.526   1.737  -1.291  0.00  0.00    +0.000 C 
ATOM      9  C   UNL     1       0.438   0.830  -1.546  0.00  0.00    +0.000 C 
ENDROOT
BRANCH   8  10
ATOM     10  C   UNL     1      -0.707   3.065  -1.900  0.00  0.00    +0.000 A 
ATOM     11  C   UNL     1       0.098   3.500  -2.965  0.00  0.00    +0.000 A 
ATOM     12  C   UNL     1      -0.083   4.762  -3.542  0.00  0.00    +0.000 A 
ATOM     13  C   UNL     1      -1.074   5.613  -3.066  0.00  0.00    +0.000 A 
ATOM     14  C   UNL     1      -1.885   5.202  -2.013  0.00  0.00    +0.000 A 
ATOM     15  C   UNL     1      -1.703   3.939  -1.438  0.00  0.00    +0.000 A 
ENDBRANCH   8  10
TORSDOF 1
