REMARK  Name = *****
REMARK  4 active torsions:
REMARK  status: ('A' for Active; 'I' for Inactive)
REMARK    1  A    between atoms: C_1  and  C_2
REMARK    2  A    between atoms: C_4  and  C_8
REMARK    3  A    between atoms: C_8  and  O_10
REMARK    4  A    between atoms: O_10  and  C_11
REMARK                            x       y       z     vdW  Elec       q    Type
REMARK                         _______ _______ _______ _____ _____    ______ ____
ROOT
ATOM      1  C   UNL     1      -1.535   2.284  -1.026  0.00  0.00    +0.000 C 
ATOM      2  O   UNL     1      -2.741   2.475  -0.980  0.00  0.00    +0.000 OA
ENDROOT
BRANCH   1   6
ATOM      3  C   UNL     1       2.597  -0.252   0.409  0.00  0.00    +0.000 C 
ATOM      4  C   UNL     1       1.105  -0.118   0.333  0.00  0.00    +0.000 A 
ATOM      5  C   UNL     1       0.525   0.998  -0.287  0.00  0.00    +0.000 A 
ATOM      6  C   UNL     1      -0.870   1.114  -0.387  0.00  0.00    +0.000 A 
ATOM      7  C   UNL     1      -1.684   0.101   0.136  0.00  0.00    +0.000 A 
ATOM      8  C   UNL     1      -1.112  -1.019   0.739  0.00  0.00    +0.000 A 
ATOM      9  C   UNL     1       0.276  -1.131   0.831  0.00  0.00    +0.000 A 
ENDBRANCH   1   6
BRANCH   1  10
ATOM     10  O   UNL     1      -0.593   3.056  -1.678  0.00  0.00    +0.000 OA
BRANCH  10  11
ATOM     11  C   UNL     1      -1.143   4.215  -2.230  0.00  0.00    +0.000 A 
ATOM     12  C   UNL     1      -1.628   4.164  -3.538  0.00  0.00    +0.000 A 
ATOM     13  C   UNL     1      -2.144   5.321  -4.122  0.00  0.00    +0.000 A 
ATOM     14  C   UNL     1      -2.160   6.520  -3.405  0.00  0.00    +0.000 A 
ATOM     15  C   UNL     1      -1.654   6.568  -2.102  0.00  0.00    +0.000 A 
ATOM     16  C   UNL     1      -1.138   5.414  -1.513  0.00  0.00    +0.000 A 
ATOM     17 CL   UNL     1      -0.491   5.505   0.083  0.00  0.00    +0.000 Cl
ENDBRANCH  10  11
ENDBRANCH   1  10
TORSDOF 3
