REMARK  Name = *****
REMARK  6 active torsions:
REMARK  status: ('A' for Active; 'I' for Inactive)
REMARK    1  A    between atoms: C_1  and  O_2
REMARK    2  A    between atoms: O_2  and  C_3
REMARK    3  A    between atoms: C_3  and  C_5
REMARK    4  A    between atoms: C_5  and  C_6
REMARK    5  A    between atoms: C_5  and  S_12
REMARK    6  A    between atoms: S_12  and  C_13
REMARK                            x       y       z     vdW  Elec       q    Type
REMARK                         _______ _______ _______ _____ _____    ______ ____
ROOT
ATOM      1  C   UNL     1       4.712   0.800  -1.180  0.00  0.00    +0.000 C 
ENDROOT
BRANCH   1   2
ATOM      2  C   UNL     1       3.200   0.801  -1.018  0.00  0.00    +0.000 A 
ATOM      3  C   UNL     1       2.348   0.455  -2.081  0.00  0.00    +0.000 A 
ATOM      4  C   UNL     1       0.962   0.453  -1.912  0.00  0.00    +0.000 A 
ATOM      5  C   UNL     1       0.409   0.795  -0.681  0.00  0.00    +0.000 A 
ATOM      6  C   UNL     1       1.240   1.143   0.382  0.00  0.00    +0.000 A 
ATOM      7  C   UNL     1       2.626   1.148   0.216  0.00  0.00    +0.000 A 
ENDBRANCH   1   2
BRANCH   1   8
ATOM      8  C   UNL     1       5.230  -0.567  -1.634  0.00  0.00    +0.000 C 
ATOM      9  O   UNL     1       5.290  -0.975  -2.788  0.00  0.00    +0.000 OA
BRANCH   8  11
ATOM     10  C   UNL     1       6.046  -2.624  -0.852  0.00  0.00    +0.000 C 
ATOM     11  O   UNL     1       5.581  -1.311  -0.538  0.00  0.00    +0.000 OA
ENDBRANCH   8  11
ENDBRANCH   1   8
BRANCH   1  12
ATOM     12  S   UNL     1       5.253   2.133  -2.334  0.00  0.00    +0.000 S 
BRANCH  12  13
ATOM     13  C   UNL     1       7.021   1.966  -2.187  0.00  0.00    +0.000 A 
ATOM     14  C   UNL     1       7.758   1.486  -3.273  0.00  0.00    +0.000 A 
ATOM     15  C   UNL     1       9.144   1.349  -3.179  0.00  0.00    +0.000 A 
ATOM     16  C   UNL     1       9.800   1.699  -2.000  0.00  0.00    +0.000 A 
ATOM     17  C   UNL     1       9.072   2.189  -0.917  0.00  0.00    +0.000 A 
ATOM     18  C   UNL     1       7.686   2.327  -1.011  0.00  0.00    +0.000 A 
ENDBRANCH  12  13
ENDBRANCH   1  12
TORSDOF 5
