REMARK  Name = *****
REMARK  4 active torsions:
REMARK  status: ('A' for Active; 'I' for Inactive)
REMARK    1  A    between atoms: C_1  and  C_2
REMARK    2  A    between atoms: C_5  and  C_8
REMARK    3  A    between atoms: N_9  and  C_10
REMARK    4  A    between atoms: C_13  and  S_16
REMARK                            x       y       z     vdW  Elec       q    Type
REMARK                         _______ _______ _______ _____ _____    ______ ____
ROOT
ATOM      1  C   UNL     1      -3.340   0.209  -0.267  0.00  0.00    +0.000 C 
ATOM      2  N   UNL     1      -4.031   1.163   0.274  0.00  0.00    +0.000 NA
ENDROOT
BRANCH   1   7
ATOM      3  C   UNL     1       2.418  -0.076   0.105  0.00  0.00    +0.000 C 
ATOM      4  C   UNL     1       0.925   0.018  -0.014  0.00  0.00    +0.000 A 
ATOM      5  C   UNL     1       0.233   1.076   0.590  0.00  0.00    +0.000 A 
ATOM      6  C   UNL     1      -1.159   1.149   0.510  0.00  0.00    +0.000 A 
ATOM      7  C   UNL     1      -1.869   0.156  -0.168  0.00  0.00    +0.000 A 
ATOM      8  C   UNL     1      -1.191  -0.912  -0.762  0.00  0.00    +0.000 A 
ATOM      9  C   UNL     1       0.202  -0.981  -0.679  0.00  0.00    +0.000 A 
ENDBRANCH   1   7
BRANCH   2  10
ATOM     10  C   UNL     1      -5.419   1.087   0.099  0.00  0.00    +0.000 A 
ATOM     11  C   UNL     1      -6.211   0.400   1.022  0.00  0.00    +0.000 A 
ATOM     12  C   UNL     1      -7.598   0.336   0.857  0.00  0.00    +0.000 A 
ATOM     13  C   UNL     1      -8.205   0.966  -0.232  0.00  0.00    +0.000 A 
ATOM     14  C   UNL     1      -7.416   1.674  -1.144  0.00  0.00    +0.000 A 
ATOM     15  C   UNL     1      -6.030   1.735  -0.975  0.00  0.00    +0.000 A 
BRANCH  13  16
ATOM     16  S   UNL     1      -9.969   0.906  -0.454  0.00  0.00    +0.000 S 
ATOM     17  H   UNL     1     -10.526   0.168   0.543  0.00  0.00    +0.000 HD
ENDBRANCH  13  16
ENDBRANCH   2  10
TORSDOF 3
