REMARK  Name = *****
REMARK  4 active torsions:
REMARK  status: ('A' for Active; 'I' for Inactive)
REMARK    1  A    between atoms: C_4  and  C_7
REMARK    2  A    between atoms: C_7  and  N_8
REMARK    3  A    between atoms: N_8  and  C_9
REMARK    4  A    between atoms: C_9  and  C_10
REMARK                            x       y       z     vdW  Elec       q    Type
REMARK                         _______ _______ _______ _____ _____    ______ ____
ROOT
ATOM      1  N   UNL     1      -3.537  -0.691  -0.503  0.00  0.00    +0.000 NA
ENDROOT
BRANCH   1   2
ATOM      2  C   UNL     1      -2.769   0.321  -0.285  0.00  0.00    +0.000 C 
BRANCH   2   6
ATOM      3  C   UNL     1       1.454  -0.064   0.163  0.00  0.00    +0.000 A 
ATOM      4  C   UNL     1       0.676  -1.203  -0.049  0.00  0.00    +0.000 A 
ATOM      5  C   UNL     1      -0.706  -1.087  -0.196  0.00  0.00    +0.000 A 
ATOM      6  C   UNL     1      -1.309   0.172  -0.130  0.00  0.00    +0.000 A 
ATOM      7  C   UNL     1      -0.532   1.315   0.083  0.00  0.00    +0.000 A 
ATOM      8  C   UNL     1       0.851   1.193   0.228  0.00  0.00    +0.000 A 
ENDBRANCH   2   6
ENDBRANCH   1   2
BRANCH   1   9
ATOM      9  C   UNL     1      -4.956  -0.348  -0.643  0.00  0.00    +0.000 C 
BRANCH   9  10
ATOM     10  C   UNL     1      -5.706  -1.420  -1.401  0.00  0.00    +0.000 A 
ATOM     11  C   UNL     1      -5.710  -2.744  -0.932  0.00  0.00    +0.000 A 
ATOM     12  C   UNL     1      -6.407  -3.737  -1.621  0.00  0.00    +0.000 A 
ATOM     13  C   UNL     1      -7.102  -3.408  -2.778  0.00  0.00    +0.000 A 
ATOM     14  C   UNL     1      -7.113  -2.104  -3.259  0.00  0.00    +0.000 A 
ATOM     15  C   UNL     1      -6.417  -1.109  -2.571  0.00  0.00    +0.000 A 
ATOM     16  F   UNL     1      -7.771  -4.361  -3.440  0.00  0.00    +0.000 F 
ENDBRANCH   9  10
ENDBRANCH   1   9
TORSDOF 4
