REMARK  Name = *****
REMARK  4 active torsions:
REMARK  status: ('A' for Active; 'I' for Inactive)
REMARK    1  A    between atoms: C_1  and  C_2
REMARK    2  A    between atoms: C_2  and  N_3
REMARK    3  A    between atoms: N_3  and  C_4
REMARK    4  A    between atoms: C_10  and  C_12
REMARK                            x       y       z     vdW  Elec       q    Type
REMARK                         _______ _______ _______ _____ _____    ______ ____
ROOT
ATOM      1  N   UNL     1       2.982   0.948   0.969  0.00  0.00    +0.000 N 
ATOM      2  C   UNL     1       4.219   0.751   1.596  0.00  0.00    +0.000 C 
ATOM      3  O   UNL     1       4.557   1.289   2.647  0.00  0.00    +0.000 OA
ENDROOT
BRANCH   2   4
ATOM      4  C   UNL     1       5.205  -0.151   0.977  0.00  0.00    +0.000 A 
ATOM      5  C   UNL     1       5.088  -1.532   1.154  0.00  0.00    +0.000 A 
ATOM      6  C   UNL     1       6.050  -2.366   0.592  0.00  0.00    +0.000 A 
ATOM      7  C   UNL     1       7.126  -1.833  -0.121  0.00  0.00    +0.000 A 
ATOM      8  C   UNL     1       7.251  -0.449  -0.267  0.00  0.00    +0.000 A 
ATOM      9  C   UNL     1       6.293   0.397   0.291  0.00  0.00    +0.000 A 
ATOM     10 CL   UNL     1       5.912  -4.071   0.776  0.00  0.00    +0.000 Cl
ENDBRANCH   2   4
BRANCH   1  11
ATOM     11  C   UNL     1       1.992   1.784   1.681  0.00  0.00    +0.000 C 
ATOM     12  C   UNL     1       1.021   0.908   2.492  0.00  0.00    +0.000 C 
ATOM     13  C   UNL     1       0.019   1.752   3.276  0.00  0.00    +0.000 C 
ATOM     14  C   UNL     1      -0.725   2.732   2.373  0.00  0.00    +0.000 C 
ATOM     15  C   UNL     1       0.238   3.608   1.579  0.00  0.00    +0.000 C 
ATOM     16  C   UNL     1       1.231   2.768   0.777  0.00  0.00    +0.000 C 
ENDBRANCH   1  11
BRANCH   1  18
ATOM     17  C   UNL     1       3.052   1.005  -1.522  0.00  0.00    +0.000 C 
ATOM     18  C   UNL     1       2.582   0.271  -0.275  0.00  0.00    +0.000 C 
ENDBRANCH   1  18
TORSDOF 3
