REMARK  Name = *****
REMARK  6 active torsions:
REMARK  status: ('A' for Active; 'I' for Inactive)
REMARK    1  A    between atoms: C_1  and  C_2
REMARK    2  A    between atoms: C_4  and  C_9
REMARK    3  A    between atoms: C_5  and  C_8
REMARK    4  A    between atoms: C_9  and  C_11
REMARK    5  A    between atoms: C_11  and  C_12
REMARK    6  A    between atoms: C_12  and  C_13
REMARK                            x       y       z     vdW  Elec       q    Type
REMARK                         _______ _______ _______ _____ _____    ______ ____
ROOT
ATOM      1  C   UNL     1      -1.533   2.469  -0.338  0.00  0.00    +0.000 C 
ATOM      2  O   UNL     1      -2.749   2.416  -0.500  0.00  0.00    +0.000 OA
ENDROOT
BRANCH   1   6
ATOM      3  C   UNL     1       2.608  -0.210  -1.230  0.00  0.00    +0.000 C 
ATOM      4  C   UNL     1       1.279  -0.069  -0.548  0.00  0.00    +0.000 A 
ATOM      5  C   UNL     1       0.511   1.090  -0.721  0.00  0.00    +0.000 A 
ATOM      6  C   UNL     1      -0.752   1.215  -0.117  0.00  0.00    +0.000 A 
ATOM      7  C   UNL     1      -1.265   0.163   0.666  0.00  0.00    +0.000 A 
ATOM      8  C   UNL     1      -0.498  -1.004   0.811  0.00  0.00    +0.000 A 
ATOM      9  C   UNL     1       0.757  -1.119   0.211  0.00  0.00    +0.000 A 
ATOM     10  C   UNL     1      -2.611   0.231   1.335  0.00  0.00    +0.000 C 
ENDBRANCH   1   6
BRANCH   1  11
ATOM     11  C   UNL     1      -0.768   3.778  -0.379  0.00  0.00    +0.000 C 
BRANCH  11  12
ATOM     12  C   UNL     1      -1.674   4.958  -0.030  0.00  0.00    +0.000 C 
BRANCH  12  13
ATOM     13  C   UNL     1      -0.904   6.256  -0.010  0.00  0.00    +0.000 A 
ATOM     14  C   UNL     1      -0.723   6.990  -1.192  0.00  0.00    +0.000 A 
ATOM     15  C   UNL     1       0.007   8.179  -1.177  0.00  0.00    +0.000 A 
ATOM     16  C   UNL     1       0.557   8.631   0.016  0.00  0.00    +0.000 A 
ATOM     17  C   UNL     1       0.392   7.916   1.196  0.00  0.00    +0.000 A 
ATOM     18  C   UNL     1      -0.337   6.727   1.184  0.00  0.00    +0.000 A 
ATOM     19  F   UNL     1       1.259   9.772   0.028  0.00  0.00    +0.000 F 
ENDBRANCH  12  13
ENDBRANCH  11  12
ENDBRANCH   1  11
TORSDOF 4
