REMARK  Name = *****
REMARK  1 active torsions:
REMARK  status: ('A' for Active; 'I' for Inactive)
REMARK    1  A    between atoms: C_4  and  C_7
REMARK                            x       y       z     vdW  Elec       q    Type
REMARK                         _______ _______ _______ _____ _____    ______ ____
ROOT
ATOM      1  C   UNL     1      -2.703   0.654  -0.230  0.00  0.00    +0.000 C 
ATOM      2  S   UNL     1      -3.691   0.003   1.172  0.00  0.00    +0.000 S 
ATOM      3  C   UNL     1      -4.969  -0.636   0.206  0.00  0.00    +0.000 A 
ATOM      4  C   UNL     1      -4.850  -0.602  -1.125  0.00  0.00    +0.000 A 
ATOM      5  S   UNL     1      -3.426   0.081  -1.816  0.00  0.00    +0.000 S 
ATOM      6  S   UNL     1      -6.141  -1.262  -2.063  0.00  0.00    +0.000 S 
ATOM      7  C   UNL     1      -7.132  -1.729  -0.686  0.00  0.00    +0.000 A 
ATOM      8  O   UNL     1      -8.222  -2.270  -0.797  0.00  0.00    +0.000 OA
ATOM      9  S   UNL     1      -6.402  -1.338   0.866  0.00  0.00    +0.000 S 
ENDROOT
BRANCH   1  13
ATOM     10  C   UNL     1       1.515  -0.254   0.117  0.00  0.00    +0.000 A 
ATOM     11  C   UNL     1       0.594  -1.293   0.016  0.00  0.00    +0.000 A 
ATOM     12  C   UNL     1      -0.769  -1.012  -0.096  0.00  0.00    +0.000 A 
ATOM     13  C   UNL     1      -1.232   0.317  -0.109  0.00  0.00    +0.000 A 
ATOM     14  C   UNL     1      -0.287   1.352  -0.006  0.00  0.00    +0.000 A 
ATOM     15  C   UNL     1       1.076   1.067   0.106  0.00  0.00    +0.000 A 
ENDBRANCH   1  13
TORSDOF 1
