REMARK  Name = *****
REMARK  3 active torsions:
REMARK  status: ('A' for Active; 'I' for Inactive)
REMARK    1  A    between atoms: C_1  and  C_2
REMARK    2  A    between atoms: C_5  and  N_8
REMARK    3  A    between atoms: C_9  and  C_10
REMARK                            x       y       z     vdW  Elec       q    Type
REMARK                         _______ _______ _______ _____ _____    ______ ____
ROOT
ATOM      1  C   UNL     1       2.420   0.006  -0.151  0.00  0.00    +0.000 C 
ATOM      2  C   UNL     1       0.928   0.064  -0.009  0.00  0.00    +0.000 A 
ATOM      3  C   UNL     1       0.323   1.112   0.694  0.00  0.00    +0.000 A 
ATOM      4  C   UNL     1      -1.064   1.145   0.858  0.00  0.00    +0.000 A 
ATOM      5  C   UNL     1      -1.864   0.134   0.323  0.00  0.00    +0.000 A 
ATOM      6  C   UNL     1      -1.260  -0.928  -0.351  0.00  0.00    +0.000 A 
ATOM      7  C   UNL     1       0.127  -0.966  -0.516  0.00  0.00    +0.000 A 
ENDROOT
BRANCH   5   8
ATOM      8  N   UNL     1      -3.255   0.161   0.497  0.00  0.00    +0.000 NA
ATOM      9  C   UNL     1      -3.918   0.820  -0.397  0.00  0.00    +0.000 C 
BRANCH   9  10
ATOM     10  C   UNL     1      -5.377   0.940  -0.353  0.00  0.00    +0.000 C 
ATOM     11  C   UNL     1      -6.125   1.611  -1.242  0.00  0.00    +0.000 C 
ATOM     12  C   UNL     1      -7.512   1.497  -0.859  0.00  0.00    +0.000 C 
ATOM     13  C   UNL     1      -7.608   0.759   0.258  0.00  0.00    +0.000 C 
ATOM     14  C   UNL     1      -6.238   0.321   0.702  0.00  0.00    +0.000 C 
ENDBRANCH   9  10
ENDBRANCH   5   8
TORSDOF 2
