REMARK  Name = *****
REMARK  4 active torsions:
REMARK  status: ('A' for Active; 'I' for Inactive)
REMARK    1  A    between atoms: C_4  and  C_7
REMARK    2  A    between atoms: C_7  and  C_8
REMARK    3  A    between atoms: C_8  and  C_16
REMARK    4  A    between atoms: C_9  and  C_10
REMARK                            x       y       z     vdW  Elec       q    Type
REMARK                         _______ _______ _______ _____ _____    ______ ____
ROOT
ATOM      1  C   UNL     1      -3.510  -1.118  -0.012  0.00  0.00    +0.000 C 
ATOM      2  C   UNL     1      -2.842  -2.253   0.268  0.00  0.00    +0.000 C 
ENDROOT
BRANCH   2   3
ATOM      3  C   UNL     1      -1.391  -2.336   0.446  0.00  0.00    +0.000 A 
ATOM      4  C   UNL     1      -0.852  -2.379   1.736  0.00  0.00    +0.000 A 
ATOM      5  C   UNL     1       0.530  -2.455   1.917  0.00  0.00    +0.000 A 
ATOM      6  C   UNL     1       1.378  -2.495   0.810  0.00  0.00    +0.000 A 
ATOM      7  C   UNL     1       0.845  -2.458  -0.478  0.00  0.00    +0.000 A 
ATOM      8  C   UNL     1      -0.537  -2.381  -0.661  0.00  0.00    +0.000 A 
ENDBRANCH   2   3
BRANCH   1   9
ATOM      9  C   UNL     1      -4.984  -1.257  -0.164  0.00  0.00    +0.000 C 
ATOM     10  O   UNL     1      -5.711  -0.339  -0.525  0.00  0.00    +0.000 OA
ENDBRANCH   1   9
BRANCH   1  11
ATOM     11  C   UNL     1      -2.926   0.255  -0.231  0.00  0.00    +0.000 C 
BRANCH  11  15
ATOM     12  C   UNL     1      -2.698   2.584   3.401  0.00  0.00    +0.000 A 
ATOM     13  C   UNL     1      -1.564   1.936   2.915  0.00  0.00    +0.000 A 
ATOM     14  C   UNL     1      -1.636   1.188   1.739  0.00  0.00    +0.000 A 
ATOM     15  C   UNL     1      -2.845   1.080   1.035  0.00  0.00    +0.000 A 
ATOM     16  C   UNL     1      -3.978   1.739   1.534  0.00  0.00    +0.000 A 
ATOM     17  C   UNL     1      -3.904   2.486   2.710  0.00  0.00    +0.000 A 
ENDBRANCH  11  15
ENDBRANCH   1  11
TORSDOF 4
