REMARK  Name = *****
REMARK  5 active torsions:
REMARK  status: ('A' for Active; 'I' for Inactive)
REMARK    1  A    between atoms: C_2  and  C_3
REMARK    2  A    between atoms: C_3  and  C_4
REMARK    3  A    between atoms: C_4  and  C_5
REMARK    4  A    between atoms: C_4  and  C_12
REMARK    5  A    between atoms: C_5  and  C_6
REMARK                            x       y       z     vdW  Elec       q    Type
REMARK                         _______ _______ _______ _____ _____    ______ ____
ROOT
ATOM      1  C   UNL     1       4.567  -1.083  -0.089  0.00  0.00    +0.000 C 
ENDROOT
BRANCH   1   2
ATOM      2  C   UNL     1       5.387  -2.311  -0.476  0.00  0.00    +0.000 A 
ATOM      3  C   UNL     1       6.658  -2.135  -1.050  0.00  0.00    +0.000 A 
ATOM      4  C   UNL     1       7.443  -3.235  -1.403  0.00  0.00    +0.000 A 
ATOM      5  C   UNL     1       6.973  -4.526  -1.181  0.00  0.00    +0.000 A 
ATOM      6  C   UNL     1       5.720  -4.719  -0.606  0.00  0.00    +0.000 A 
ATOM      7  C   UNL     1       4.933  -3.620  -0.254  0.00  0.00    +0.000 A 
ENDBRANCH   1   2
BRANCH   1   8
ATOM      8  C   UNL     1       3.051  -1.254  -0.360  0.00  0.00    +0.000 C 
BRANCH   8  10
ATOM      9  C   UNL     1       1.710   0.593  -1.415  0.00  0.00    +0.000 C 
ATOM     10  C   UNL     1       2.288   0.046  -0.337  0.00  0.00    +0.000 C 
ENDBRANCH   8  10
ENDBRANCH   1   8
BRANCH   1  11
ATOM     11  C   UNL     1       4.912  -0.580   1.338  0.00  0.00    +0.000 C 
BRANCH  11  12
ATOM     12  C   UNL     1       4.529  -1.482   2.490  0.00  0.00    +0.000 A 
ATOM     13  C   UNL     1       5.410  -2.478   2.935  0.00  0.00    +0.000 A 
ATOM     14  C   UNL     1       5.061  -3.316   3.995  0.00  0.00    +0.000 A 
ATOM     15  C   UNL     1       3.829  -3.164   4.628  0.00  0.00    +0.000 A 
ATOM     16  C   UNL     1       2.948  -2.173   4.202  0.00  0.00    +0.000 A 
ATOM     17  C   UNL     1       3.297  -1.335   3.140  0.00  0.00    +0.000 A 
ENDBRANCH  11  12
ENDBRANCH   1  11
TORSDOF 5
