REMARK  Name = *****
REMARK  2 active torsions:
REMARK  status: ('A' for Active; 'I' for Inactive)
REMARK    1  A    between atoms: C_4  and  C_7
REMARK    2  A    between atoms: C_8  and  C_11
REMARK                            x       y       z     vdW  Elec       q    Type
REMARK                         _______ _______ _______ _____ _____    ______ ____
ROOT
ATOM      1  C   UNL     1      -2.901   0.451  -0.369  0.00  0.00    +0.000 C 
ATOM      2  C   UNL     1      -3.850  -0.147   0.700  0.00  0.00    +0.000 C 
ATOM      3  S   UNL     1      -4.976  -0.490  -0.678  0.00  0.00    +0.000 S 
ATOM      4  O   UNL     1      -3.513  -0.301  -1.466  0.00  0.00    +0.000 OA
ENDROOT
BRANCH   1   8
ATOM      5  C   UNL     1       1.442  -0.225   0.231  0.00  0.00    +0.000 A 
ATOM      6  C   UNL     1       0.776  -0.878  -0.800  0.00  0.00    +0.000 A 
ATOM      7  C   UNL     1      -0.593  -0.665  -0.993  0.00  0.00    +0.000 A 
ATOM      8  C   UNL     1      -1.338   0.200  -0.168  0.00  0.00    +0.000 A 
ATOM      9  C   UNL     1      -0.626   0.845   0.865  0.00  0.00    +0.000 A 
ATOM     10  C   UNL     1       0.742   0.638   1.065  0.00  0.00    +0.000 A 
ENDBRANCH   1   8
BRANCH   2  11
ATOM     11  C   UNL     1      -4.493   0.783   1.811  0.00  0.00    +0.000 A 
ATOM     12  C   UNL     1      -5.025   2.065   1.549  0.00  0.00    +0.000 A 
ATOM     13  C   UNL     1      -5.568   2.869   2.556  0.00  0.00    +0.000 A 
ATOM     14  C   UNL     1      -5.597   2.415   3.869  0.00  0.00    +0.000 A 
ATOM     15  C   UNL     1      -5.085   1.160   4.172  0.00  0.00    +0.000 A 
ATOM     16  C   UNL     1      -4.544   0.362   3.158  0.00  0.00    +0.000 A 
ENDBRANCH   2  11
TORSDOF 2
