REMARK  Name = *****
REMARK  2 active torsions:
REMARK  status: ('A' for Active; 'I' for Inactive)
REMARK    1  A    between atoms: C_5  and  C_7
REMARK    2  A    between atoms: C_8  and  C_9
REMARK                            x       y       z     vdW  Elec       q    Type
REMARK                         _______ _______ _______ _____ _____    ______ ____
ROOT
ATOM      1  C   UNL     1       2.937   0.215  -0.319  0.00  0.00    +0.000 C 
ATOM      2  C   UNL     1       4.130   0.262  -0.454  0.00  0.00    +0.000 C 
ENDROOT
BRANCH   1   7
ATOM      3  C   UNL     1      -0.475  -1.215   0.075  0.00  0.00    +0.000 A 
ATOM      4  C   UNL     1      -1.266  -0.070   0.146  0.00  0.00    +0.000 A 
ATOM      5  C   UNL     1      -0.675   1.192   0.065  0.00  0.00    +0.000 A 
ATOM      6  C   UNL     1       0.712   1.311  -0.088  0.00  0.00    +0.000 A 
ATOM      7  C   UNL     1       1.513   0.162  -0.160  0.00  0.00    +0.000 A 
ATOM      8  C   UNL     1       0.908  -1.099  -0.077  0.00  0.00    +0.000 A 
ATOM      9  I   UNL     1       1.502   3.255  -0.200  0.00  0.00    +0.000 I 
ENDBRANCH   1   7
BRANCH   2  10
ATOM     10  C   UNL     1       5.548   0.339  -0.618  0.00  0.00    +0.000 A 
ATOM     11  C   UNL     1       6.175   1.588  -0.687  0.00  0.00    +0.000 A 
ATOM     12  C   UNL     1       7.559   1.666  -0.849  0.00  0.00    +0.000 A 
ATOM     13  C   UNL     1       8.305   0.495  -0.941  0.00  0.00    +0.000 A 
ATOM     14  C   UNL     1       7.693  -0.752  -0.873  0.00  0.00    +0.000 A 
ATOM     15  C   UNL     1       6.308  -0.831  -0.710  0.00  0.00    +0.000 A 
ATOM     16  F   UNL     1       9.633   0.570  -1.097  0.00  0.00    +0.000 F 
ENDBRANCH   2  10
TORSDOF 2
