REMARK  Name = *****
REMARK  5 active torsions:
REMARK  status: ('A' for Active; 'I' for Inactive)
REMARK    1  A    between atoms: C_1  and  C_2
REMARK    2  A    between atoms: C_2  and  C_7
REMARK    3  A    between atoms: C_8  and  C_9
REMARK    4  A    between atoms: C_12  and  O_15
REMARK    5  A    between atoms: O_15  and  C_16
REMARK                            x       y       z     vdW  Elec       q    Type
REMARK                         _______ _______ _______ _____ _____    ______ ____
ROOT
ATOM      1  C   UNL     1       0.589   0.883   1.977  0.00  0.00    +0.000 C 
ATOM      2  C   UNL     1      -0.029   1.596   2.936  0.00  0.00    +0.000 C 
ENDROOT
BRANCH   1   4
ATOM      3  C   UNL     1      -0.963   1.679   0.070  0.00  0.00    +0.000 C 
ATOM      4  C   UNL     1       0.239   0.835   0.508  0.00  0.00    +0.000 C 
ATOM      5  S   UNL     1      -0.116  -0.919   0.080  0.00  0.00    +0.000 S 
ATOM      6  C   UNL     1       1.339  -1.203  -0.961  0.00  0.00    +0.000 C 
ATOM      7  C   UNL     1       1.663   0.087  -1.682  0.00  0.00    +0.000 C 
ATOM      8  S   UNL     1       1.711   1.394  -0.435  0.00  0.00    +0.000 S 
ENDBRANCH   1   4
BRANCH   2   9
ATOM      9  C   UNL     1       0.384   1.582   4.346  0.00  0.00    +0.000 A 
ATOM     10  C   UNL     1       0.384   2.779   5.067  0.00  0.00    +0.000 A 
ATOM     11  C   UNL     1       0.746   2.792   6.418  0.00  0.00    +0.000 A 
ATOM     12  C   UNL     1       1.100   1.610   7.072  0.00  0.00    +0.000 A 
ATOM     13  C   UNL     1       1.083   0.410   6.363  0.00  0.00    +0.000 A 
ATOM     14  C   UNL     1       0.722   0.396   5.010  0.00  0.00    +0.000 A 
BRANCH  12  15
ATOM     15  O   UNL     1       1.432   1.764   8.390  0.00  0.00    +0.000 OA
ATOM     16  C   UNL     1       1.826   0.592   9.093  0.00  0.00    +0.000 C 
ENDBRANCH  12  15
ENDBRANCH   2   9
TORSDOF 3
