REMARK  Name = *****
REMARK  5 active torsions:
REMARK  status: ('A' for Active; 'I' for Inactive)
REMARK    1  A    between atoms: C_1  and  C_2
REMARK    2  A    between atoms: C_4  and  C_17
REMARK    3  A    between atoms: C_6  and  C_8
REMARK    4  A    between atoms: C_8  and  O_9
REMARK    5  A    between atoms: O_9  and  C_10
REMARK                            x       y       z     vdW  Elec       q    Type
REMARK                         _______ _______ _______ _____ _____    ______ ____
ROOT
ATOM      1  C   UNL     1      -2.607   0.975  -0.104  0.00  0.00    +0.000 C 
ENDROOT
BRANCH   1   7
ATOM      2  C   UNL     1       2.425   1.141   0.015  0.00  0.00    +0.000 C 
ATOM      3  C   UNL     1       1.159   0.336  -0.008  0.00  0.00    +0.000 A 
ATOM      4  C   UNL     1       1.194  -1.063   0.014  0.00  0.00    +0.000 A 
ATOM      5  C   UNL     1       0.010  -1.810  -0.002  0.00  0.00    +0.000 A 
ATOM      6  C   UNL     1      -1.221  -1.142  -0.036  0.00  0.00    +0.000 A 
ATOM      7  C   UNL     1      -1.279   0.258  -0.058  0.00  0.00    +0.000 A 
ATOM      8  C   UNL     1      -0.081   0.988  -0.043  0.00  0.00    +0.000 A 
ATOM      9  C   UNL     1       0.045  -3.310   0.023  0.00  0.00    +0.000 C 
ENDBRANCH   1   7
BRANCH   1  10
ATOM     10  O   UNL     1      -2.745   1.738   1.097  0.00  0.00    +0.000 OA
BRANCH  10  11
ATOM     11  C   UNL     1      -3.937   2.425   1.164  0.00  0.00    +0.000 A 
ATOM     12  N   UNL     1      -4.840   2.349   0.161  0.00  0.00    +0.000 NA
ATOM     13  N   UNL     1      -6.019   3.040   0.258  0.00  0.00    +0.000 NA
ATOM     14  C   UNL     1      -6.258   3.787   1.356  0.00  0.00    +0.000 A 
ATOM     15  C   UNL     1      -5.355   3.887   2.396  0.00  0.00    +0.000 A 
ATOM     16  C   UNL     1      -4.159   3.185   2.297  0.00  0.00    +0.000 A 
ATOM     17  F   UNL     1      -7.417   4.454   1.433  0.00  0.00    +0.000 F 
ENDBRANCH  10  11
ENDBRANCH   1  10
TORSDOF 3
