REMARK  Name = *****
REMARK  6 active torsions:
REMARK  status: ('A' for Active; 'I' for Inactive)
REMARK    1  A    between atoms: C_1  and  C_2
REMARK    2  A    between atoms: C_3  and  C_9
REMARK    3  A    between atoms: C_4  and  C_8
REMARK    4  A    between atoms: C_9  and  C_10
REMARK    5  A    between atoms: C_10  and  C_11
REMARK    6  A    between atoms: C_11  and  C_13
REMARK                            x       y       z     vdW  Elec       q    Type
REMARK                         _______ _______ _______ _____ _____    ______ ____
ROOT
ATOM      1  C   UNL     1       1.475   3.109  -0.046  0.00  0.00    +0.000 C 
ENDROOT
BRANCH   1   2
ATOM      2  C   UNL     1       1.448   4.615   0.127  0.00  0.00    +0.000 C 
ATOM      3  O   UNL     1       0.403   5.242   0.290  0.00  0.00    +0.000 OA
BRANCH   2   4
ATOM      4  C   UNL     1       2.742   5.365   0.099  0.00  0.00    +0.000 A 
ATOM      5  C   UNL     1       3.968   4.732  -0.127  0.00  0.00    +0.000 A 
ATOM      6  C   UNL     1       5.142   5.485  -0.141  0.00  0.00    +0.000 A 
ATOM      7  C   UNL     1       5.115   6.863   0.068  0.00  0.00    +0.000 A 
ATOM      8  C   UNL     1       3.897   7.501   0.293  0.00  0.00    +0.000 A 
ATOM      9  C   UNL     1       2.715   6.754   0.308  0.00  0.00    +0.000 A 
ATOM     10 CL   UNL     1       6.567   7.785   0.051  0.00  0.00    +0.000 Cl
ATOM     11  F   UNL     1       6.303   4.851  -0.361  0.00  0.00    +0.000 F 
ENDBRANCH   2   4
ENDBRANCH   1   2
BRANCH   1  12
ATOM     12  C   UNL     1       0.074   2.501   0.058  0.00  0.00    +0.000 C 
BRANCH  12  15
ATOM     13  C   UNL     1       0.374   0.721   2.443  0.00  0.00    +0.000 C 
ATOM     14  C   UNL     1       0.282   0.161   1.047  0.00  0.00    +0.000 A 
ATOM     15  C   UNL     1       0.109   0.990  -0.090  0.00  0.00    +0.000 A 
ATOM     16  C   UNL     1      -0.001   0.391  -1.371  0.00  0.00    +0.000 A 
ATOM     17  C   UNL     1       0.054  -1.007  -1.491  0.00  0.00    +0.000 A 
ATOM     18  C   UNL     1       0.223  -1.812  -0.370  0.00  0.00    +0.000 A 
ATOM     19  C   UNL     1       0.332  -1.233   0.889  0.00  0.00    +0.000 A 
ATOM     20  C   UNL     1      -0.217   1.203  -2.622  0.00  0.00    +0.000 C 
ENDBRANCH  12  15
ENDBRANCH   1  12
TORSDOF 4
