REMARK  Name = *****
REMARK  4 active torsions:
REMARK  status: ('A' for Active; 'I' for Inactive)
REMARK    1  A    between atoms: C_2  and  C_3
REMARK    2  A    between atoms: C_3  and  C_4
REMARK    3  A    between atoms: C_3  and  S_10
REMARK    4  A    between atoms: S_10  and  C_11
REMARK                            x       y       z     vdW  Elec       q    Type
REMARK                         _______ _______ _______ _____ _____    ______ ____
ROOT
ATOM      1  C   UNL     1       3.931   0.087  -0.004  0.00  0.00    +0.000 C 
ENDROOT
BRANCH   1   2
ATOM      2  C   UNL     1       2.410   0.140   0.079  0.00  0.00    +0.000 A 
ATOM      3  C   UNL     1       1.677   1.196  -0.492  0.00  0.00    +0.000 A 
ATOM      4  C   UNL     1       0.284   1.230  -0.406  0.00  0.00    +0.000 A 
ATOM      5  C   UNL     1      -0.399   0.208   0.250  0.00  0.00    +0.000 A 
ATOM      6  C   UNL     1       0.309  -0.849   0.817  0.00  0.00    +0.000 A 
ATOM      7  C   UNL     1       1.703  -0.885   0.732  0.00  0.00    +0.000 A 
ENDBRANCH   1   2
BRANCH   1   9
ATOM      8  C   UNL     1       5.047   2.297   1.022  0.00  0.00    +0.000 C 
ATOM      9  C   UNL     1       4.546   1.308   0.556  0.00  0.00    +0.000 C 
ENDBRANCH   1   9
BRANCH   1  10
ATOM     10  S   UNL     1       4.455  -0.237  -1.739  0.00  0.00    +0.000 S 
BRANCH  10  11
ATOM     11  C   UNL     1       6.283  -0.256  -1.575  0.00  0.00    +0.000 C 
ATOM     12  C   UNL     1       6.881  -0.350  -2.988  0.00  0.00    +0.000 C 
ATOM     13  C   UNL     1       8.407  -0.410  -2.946  0.00  0.00    +0.000 C 
ATOM     14  C   UNL     1       8.899  -1.555  -2.068  0.00  0.00    +0.000 C 
ATOM     15  C   UNL     1       8.302  -1.480  -0.667  0.00  0.00    +0.000 C 
ATOM     16  C   UNL     1       6.775  -1.416  -0.701  0.00  0.00    +0.000 C 
ENDBRANCH  10  11
ENDBRANCH   1  10
TORSDOF 4
