REMARK  Name = *****
REMARK  3 active torsions:
REMARK  status: ('A' for Active; 'I' for Inactive)
REMARK    1  A    between atoms: C_1  and  C_2
REMARK    2  A    between atoms: C_5  and  C_8
REMARK    3  A    between atoms: C_9  and  C_10
REMARK                            x       y       z     vdW  Elec       q    Type
REMARK                         _______ _______ _______ _____ _____    ______ ____
ROOT
ATOM      1  C   UNL     1       0.668   0.492  -1.388  0.00  0.00    +0.000 C 
ATOM      2  C   UNL     1      -0.493   0.220  -0.772  0.00  0.00    +0.000 C 
ENDROOT
BRANCH   2   3
ATOM      3  C   UNL     1      -1.789   0.110  -1.433  0.00  0.00    +0.000 C 
ATOM      4  C   UNL     1      -2.517   1.298  -2.019  0.00  0.00    +0.000 C 
ATOM      5  C   UNL     1      -3.078   0.580  -0.798  0.00  0.00    +0.000 C 
ATOM      6  C   UNL     1      -3.311   1.722   0.204  0.00  0.00    +0.000 C 
ATOM      7  C   UNL     1      -2.168   2.709  -0.078  0.00  0.00    +0.000 C 
ATOM      8  C   UNL     1      -2.488   2.771  -1.579  0.00  0.00    +0.000 C 
ATOM      9  C   UNL     1      -3.932   3.241  -1.419  0.00  0.00    +0.000 C 
ATOM     10  C   UNL     1      -4.430   2.605  -0.340  0.00  0.00    +0.000 C 
ENDBRANCH   2   3
BRANCH   1  15
ATOM     11  C   UNL     1       5.653   0.750   1.513  0.00  0.00    +0.000 C 
ATOM     12  C   UNL     1       4.372   0.700   0.735  0.00  0.00    +0.000 A 
ATOM     13  C   UNL     1       4.083  -0.394  -0.090  0.00  0.00    +0.000 A 
ATOM     14  C   UNL     1       2.874  -0.455  -0.789  0.00  0.00    +0.000 A 
ATOM     15  C   UNL     1       1.933   0.569  -0.659  0.00  0.00    +0.000 A 
ATOM     16  C   UNL     1       2.211   1.656   0.176  0.00  0.00    +0.000 A 
ATOM     17  C   UNL     1       3.422   1.719   0.871  0.00  0.00    +0.000 A 
ENDBRANCH   1  15
TORSDOF 2
