REMARK  Name = *****
REMARK  3 active torsions:
REMARK  status: ('A' for Active; 'I' for Inactive)
REMARK    1  A    between atoms: C_4  and  O_7
REMARK    2  A    between atoms: O_7  and  C_8
REMARK    3  A    between atoms: C_9  and  C_10
REMARK                            x       y       z     vdW  Elec       q    Type
REMARK                         _______ _______ _______ _____ _____    ______ ____
ROOT
ATOM      1  C   UNL     1      -3.823  -0.546   0.362  0.00  0.00    +0.000 C 
ATOM      2  C   UNL     1      -5.160  -0.526   0.375  0.00  0.00    +0.000 C 
ENDROOT
BRANCH   2   3
ATOM      3  C   UNL     1      -6.009  -1.580  -0.193  0.00  0.00    +0.000 A 
ATOM      4  C   UNL     1      -7.230  -1.875   0.433  0.00  0.00    +0.000 A 
ATOM      5  C   UNL     1      -8.078  -2.854  -0.089  0.00  0.00    +0.000 A 
ATOM      6  C   UNL     1      -7.713  -3.530  -1.246  0.00  0.00    +0.000 A 
ATOM      7  C   UNL     1      -6.518  -3.243  -1.892  0.00  0.00    +0.000 A 
ATOM      8  C   UNL     1      -5.668  -2.265  -1.369  0.00  0.00    +0.000 A 
ATOM      9  F   UNL     1      -8.527  -4.467  -1.748  0.00  0.00    +0.000 F 
ENDBRANCH   2   3
BRANCH   1  10
ATOM     10  O   UNL     1      -3.081   0.476   0.913  0.00  0.00    +0.000 OA
BRANCH  10  14
ATOM     11  C   UNL     1       1.036  -0.016   1.193  0.00  0.00    +0.000 A 
ATOM     12  C   UNL     1       0.195  -0.905   1.863  0.00  0.00    +0.000 A 
ATOM     13  C   UNL     1      -1.190  -0.757   1.774  0.00  0.00    +0.000 A 
ATOM     14  C   UNL     1      -1.725   0.274   1.000  0.00  0.00    +0.000 A 
ATOM     15  C   UNL     1      -0.888   1.178   0.347  0.00  0.00    +0.000 A 
ATOM     16  C   UNL     1       0.496   1.027   0.438  0.00  0.00    +0.000 A 
ENDBRANCH  10  14
ENDBRANCH   1  10
TORSDOF 3
