REMARK  Name = *****
REMARK  5 active torsions:
REMARK  status: ('A' for Active; 'I' for Inactive)
REMARK    1  A    between atoms: C_1  and  C_2
REMARK    2  A    between atoms: C_2  and  C_3
REMARK    3  A    between atoms: C_2  and  O_10
REMARK    4  A    between atoms: C_3  and  C_4
REMARK    5  A    between atoms: O_10  and  C_11
REMARK                            x       y       z     vdW  Elec       q    Type
REMARK                         _______ _______ _______ _____ _____    ______ ____
ROOT
ATOM      1  C   UNL     1       2.719   1.462   0.566  0.00  0.00    +0.000 C 
ATOM      2  C   UNL     1       2.411  -0.009   0.283  0.00  0.00    +0.000 C 
ENDROOT
BRANCH   2   3
ATOM      3  C   UNL     1       0.904  -0.269   0.484  0.00  0.00    +0.000 C 
BRANCH   3   4
ATOM      4  C   UNL     1       0.433  -1.532  -0.204  0.00  0.00    +0.000 A 
ATOM      5  C   UNL     1       0.744  -2.792   0.325  0.00  0.00    +0.000 A 
ATOM      6  C   UNL     1       0.319  -3.956  -0.317  0.00  0.00    +0.000 A 
ATOM      7  C   UNL     1      -0.422  -3.873  -1.494  0.00  0.00    +0.000 A 
ATOM      8  C   UNL     1      -0.737  -2.626  -2.031  0.00  0.00    +0.000 A 
ATOM      9  C   UNL     1      -0.310  -1.461  -1.391  0.00  0.00    +0.000 A 
ENDBRANCH   3   4
ENDBRANCH   2   3
BRANCH   2  10
ATOM     10  O   UNL     1       3.123  -0.814   1.235  0.00  0.00    +0.000 OA
BRANCH  10  11
ATOM     11  C   UNL     1       4.385  -1.245   0.942  0.00  0.00    +0.000 A 
ATOM     12  C   UNL     1       5.153  -0.883  -0.164  0.00  0.00    +0.000 A 
ATOM     13  C   UNL     1       6.441  -1.404  -0.328  0.00  0.00    +0.000 A 
ATOM     14  C   UNL     1       6.968  -2.286   0.614  0.00  0.00    +0.000 A 
ATOM     15  C   UNL     1       6.210  -2.647   1.723  0.00  0.00    +0.000 A 
ATOM     16  C   UNL     1       4.925  -2.126   1.884  0.00  0.00    +0.000 A 
ENDBRANCH  10  11
ENDBRANCH   2  10
TORSDOF 4
