REMARK  Name = *****
REMARK  3 active torsions:
REMARK  status: ('A' for Active; 'I' for Inactive)
REMARK    1  A    between atoms: C_4  and  C_7
REMARK    2  A    between atoms: C_7  and  S_8
REMARK    3  A    between atoms: S_8  and  C_9
REMARK                            x       y       z     vdW  Elec       q    Type
REMARK                         _______ _______ _______ _____ _____    ______ ____
ROOT
ATOM      1  S   UNL     1      -3.717  -1.226  -0.578  0.00  0.00    +0.000 S 
ENDROOT
BRANCH   1   2
ATOM      2  C   UNL     1      -5.443  -0.773  -0.714  0.00  0.00    +0.000 A 
ATOM      3  C   UNL     1      -6.342  -1.816  -0.984  0.00  0.00    +0.000 A 
ATOM      4  C   UNL     1      -7.709  -1.560  -1.109  0.00  0.00    +0.000 A 
ATOM      5  C   UNL     1      -8.202  -0.267  -0.968  0.00  0.00    +0.000 A 
ATOM      6  C   UNL     1      -7.319   0.777  -0.700  0.00  0.00    +0.000 A 
ATOM      7  C   UNL     1      -5.948   0.525  -0.574  0.00  0.00    +0.000 A 
ATOM      8 BR   UNL     1      -8.900  -2.982  -1.473  0.00  0.00    +0.000 Br
ENDBRANCH   1   2
BRANCH   1   9
ATOM      9  C   UNL     1      -2.882   0.353  -0.214  0.00  0.00    +0.000 C 
BRANCH   9  13
ATOM     10  C   UNL     1       1.372  -0.209   0.241  0.00  0.00    +0.000 A 
ATOM     11  C   UNL     1       0.837   0.083  -1.013  0.00  0.00    +0.000 A 
ATOM     12  C   UNL     1      -0.539   0.266  -1.161  0.00  0.00    +0.000 A 
ATOM     13  C   UNL     1      -1.394   0.164  -0.054  0.00  0.00    +0.000 A 
ATOM     14  C   UNL     1      -0.845  -0.142   1.201  0.00  0.00    +0.000 A 
ATOM     15  C   UNL     1       0.531  -0.324   1.346  0.00  0.00    +0.000 A 
ENDBRANCH   9  13
ENDBRANCH   1   9
TORSDOF 3
