REMARK  Name = *****
REMARK  3 active torsions:
REMARK  status: ('A' for Active; 'I' for Inactive)
REMARK    1  A    between atoms: C_3  and  C_9
REMARK    2  A    between atoms: C_9  and  S_10
REMARK    3  A    between atoms: S_10  and  C_11
REMARK                            x       y       z     vdW  Elec       q    Type
REMARK                         _______ _______ _______ _____ _____    ______ ____
ROOT
ATOM      1  C   UNL     1      -2.392  -2.182  -0.303  0.00  0.00    +0.000 C 
ENDROOT
BRANCH   1   4
ATOM      2  C   UNL     1       1.124  -0.788  -0.789  0.00  0.00    +0.000 A 
ATOM      3  C   UNL     1      -0.014  -1.585  -0.936  0.00  0.00    +0.000 A 
ATOM      4  C   UNL     1      -1.161  -1.326  -0.169  0.00  0.00    +0.000 A 
ATOM      5  C   UNL     1      -1.133  -0.263   0.743  0.00  0.00    +0.000 A 
ATOM      6  C   UNL     1      -0.005   0.534   0.894  0.00  0.00    +0.000 A 
ATOM      7  C   UNL     1       1.116   0.263   0.124  0.00  0.00    +0.000 A 
ATOM      8  F   UNL     1       2.210   1.023   0.260  0.00  0.00    +0.000 F 
ATOM      9  F   UNL     1      -2.215   0.004   1.488  0.00  0.00    +0.000 F 
ENDBRANCH   1   4
BRANCH   1  10
ATOM     10  S   UNL     1      -2.224  -3.737   0.639  0.00  0.00    +0.000 S 
BRANCH  10  11
ATOM     11  C   UNL     1      -3.777  -4.508   0.228  0.00  0.00    +0.000 A 
ATOM     12  C   UNL     1      -3.777  -5.719  -0.469  0.00  0.00    +0.000 A 
ATOM     13  C   UNL     1      -4.985  -6.337  -0.782  0.00  0.00    +0.000 A 
ATOM     14  C   UNL     1      -6.198  -5.777  -0.408  0.00  0.00    +0.000 A 
ATOM     15  C   UNL     1      -6.188  -4.582   0.296  0.00  0.00    +0.000 A 
ATOM     16  C   UNL     1      -4.994  -3.944   0.621  0.00  0.00    +0.000 A 
ATOM     17  F   UNL     1      -7.350  -4.031   0.672  0.00  0.00    +0.000 F 
ATOM     18  F   UNL     1      -4.975  -7.493  -1.458  0.00  0.00    +0.000 F 
ENDBRANCH  10  11
ENDBRANCH   1  10
TORSDOF 3
