REMARK  Name = *****
REMARK  1 active torsions:
REMARK  status: ('A' for Active; 'I' for Inactive)
REMARK    1  A    between atoms: C_7  and  C_10
REMARK                            x       y       z     vdW  Elec       q    Type
REMARK                         _______ _______ _______ _____ _____    ______ ____
ROOT
ATOM      1  C   UNL     1       1.535   0.423   0.316  0.00  0.00    +0.000 C 
ATOM      2  C   UNL     1       2.149  -0.032   1.654  0.00  0.00    +0.000 C 
ATOM      3  C   UNL     1       2.855  -1.196   0.892  0.00  0.00    +0.000 C 
ATOM      4  C   UNL     1       2.669  -0.332  -0.402  0.00  0.00    +0.000 C 
ATOM      5  C   UNL     1       4.319  -1.403   1.320  0.00  0.00    +0.000 C 
ATOM      6  C   UNL     1       4.899  -2.606   0.626  0.00  0.00    +0.000 C 
ATOM      7  C   UNL     1       4.133  -3.640   0.225  0.00  0.00    +0.000 C 
ATOM      8  C   UNL     1       2.706  -3.608   0.509  0.00  0.00    +0.000 C 
ATOM      9  C   UNL     1       2.071  -2.478   0.858  0.00  0.00    +0.000 C 
ENDROOT
BRANCH   7  10
ATOM     10  C   UNL     1       4.780  -4.790  -0.435  0.00  0.00    +0.000 A 
ATOM     11  C   UNL     1       5.653  -5.627   0.272  0.00  0.00    +0.000 A 
ATOM     12  C   UNL     1       6.249  -6.720  -0.361  0.00  0.00    +0.000 A 
ATOM     13  C   UNL     1       5.975  -6.985  -1.702  0.00  0.00    +0.000 A 
ATOM     14  C   UNL     1       5.104  -6.159  -2.412  0.00  0.00    +0.000 A 
ATOM     15  C   UNL     1       4.506  -5.067  -1.780  0.00  0.00    +0.000 A 
ENDBRANCH   7  10
TORSDOF 1
