REMARK  Name = *****
REMARK  3 active torsions:
REMARK  status: ('A' for Active; 'I' for Inactive)
REMARK    1  A    between atoms: C_5  and  C_7
REMARK    2  A    between atoms: C_8  and  C_9
REMARK    3  A    between atoms: C_8  and  C_11
REMARK                            x       y       z     vdW  Elec       q    Type
REMARK                         _______ _______ _______ _____ _____    ______ ____
ROOT
ATOM      1  C   UNL     1       0.880  -2.424  -0.187  0.00  0.00    +0.000 C 
ATOM      2  C   UNL     1       2.228  -2.445  -0.110  0.00  0.00    +0.000 C 
ENDROOT
BRANCH   1   7
ATOM      3  C   UNL     1      -0.893   0.659  -1.440  0.00  0.00    +0.000 A 
ATOM      4  C   UNL     1      -1.491   1.127  -0.268  0.00  0.00    +0.000 A 
ATOM      5  C   UNL     1      -1.317   0.431   0.928  0.00  0.00    +0.000 A 
ATOM      6  C   UNL     1      -0.546  -0.728   0.943  0.00  0.00    +0.000 A 
ATOM      7  C   UNL     1       0.062  -1.206  -0.222  0.00  0.00    +0.000 A 
ATOM      8  C   UNL     1      -0.118  -0.504  -1.419  0.00  0.00    +0.000 A 
ATOM      9  F   UNL     1      -0.390  -1.386   2.102  0.00  0.00    +0.000 F 
ENDBRANCH   1   7
BRANCH   2  10
ATOM     10  C   UNL     1       2.888  -3.721  -0.062  0.00  0.00    +0.000 A 
ATOM     11  C   UNL     1       2.511  -4.890   0.589  0.00  0.00    +0.000 A 
ATOM     12  C   UNL     1       3.426  -5.966   0.399  0.00  0.00    +0.000 A 
ATOM     13  C   UNL     1       4.488  -5.601  -0.394  0.00  0.00    +0.000 A 
ATOM     14  S   UNL     1       4.379  -3.977  -0.902  0.00  0.00    +0.000 S 
ENDBRANCH   2  10
BRANCH   2  15
ATOM     15  C   UNL     1       2.987  -1.229  -0.065  0.00  0.00    +0.000 C 
ATOM     16  N   UNL     1       3.596  -0.240  -0.033  0.00  0.00    +0.000 NA
ENDBRANCH   2  15
TORSDOF 3
