REMARK  Name = *****
REMARK  2 active torsions:
REMARK  status: ('A' for Active; 'I' for Inactive)
REMARK    1  A    between atoms: C_4  and  C_9
REMARK    2  A    between atoms: C_10  and  C_11
REMARK                            x       y       z     vdW  Elec       q    Type
REMARK                         _______ _______ _______ _____ _____    ______ ____
ROOT
ATOM      1  C   UNL     1       1.732   0.447   1.021  0.00  0.00    +0.000 C 
ATOM      2  C   UNL     1       1.852  -0.882   0.275  0.00  0.00    +0.000 C 
ATOM      3  C   UNL     1       0.525  -1.576  -0.028  0.00  0.00    +0.000 C 
ATOM      4  C   UNL     1      -0.493  -0.800  -0.871  0.00  0.00    +0.000 C 
ATOM      5  C   UNL     1      -1.069   0.369  -0.078  0.00  0.00    +0.000 C 
ATOM      6  O   UNL     1      -2.178   0.265   0.458  0.00  0.00    +0.000 OA
ATOM      7  C   UNL     1      -0.304   1.671   0.039  0.00  0.00    +0.000 C 
ATOM      8  C   UNL     1       1.212   1.584   0.147  0.00  0.00    +0.000 C 
ENDROOT
BRANCH   4   9
ATOM      9  C   UNL     1      -0.026  -0.398  -2.248  0.00  0.00    +0.000 C 
ATOM     10  C   UNL     1      -0.804  -0.478  -3.341  0.00  0.00    +0.000 C 
BRANCH  10  11
ATOM     11  C   UNL     1      -0.365  -0.080  -4.685  0.00  0.00    +0.000 A 
ATOM     12  C   UNL     1       0.902  -0.411  -5.182  0.00  0.00    +0.000 A 
ATOM     13  C   UNL     1       1.276  -0.040  -6.476  0.00  0.00    +0.000 A 
ATOM     14  C   UNL     1       0.384   0.657  -7.288  0.00  0.00    +0.000 A 
ATOM     15  C   UNL     1      -0.885   0.978  -6.809  0.00  0.00    +0.000 A 
ATOM     16  C   UNL     1      -1.259   0.606  -5.515  0.00  0.00    +0.000 A 
ENDBRANCH  10  11
ENDBRANCH   4   9
TORSDOF 2
