REMARK  Name = *****
REMARK  5 active torsions:
REMARK  status: ('A' for Active; 'I' for Inactive)
REMARK    1  A    between atoms: C_1  and  C_2
REMARK    2  A    between atoms: C_2  and  C_3
REMARK    3  A    between atoms: C_2  and  C_4
REMARK    4  A    between atoms: C_7  and  C_9
REMARK    5  A    between atoms: C_10  and  C_11
REMARK                            x       y       z     vdW  Elec       q    Type
REMARK                         _______ _______ _______ _____ _____    ______ ____
ROOT
ATOM      1  C   UNL     1       0.804  -3.568   2.194  0.00  0.00    +0.000 C 
ATOM      2  C   UNL     1       0.592  -4.808   1.728  0.00  0.00    +0.000 C 
ENDROOT
BRANCH   2   3
ATOM      3  C   UNL     1      -0.420  -5.728   2.267  0.00  0.00    +0.000 A 
ATOM      4  C   UNL     1      -1.667  -5.286   2.731  0.00  0.00    +0.000 A 
ATOM      5  C   UNL     1      -2.613  -6.199   3.208  0.00  0.00    +0.000 A 
ATOM      6  C   UNL     1      -2.322  -7.561   3.212  0.00  0.00    +0.000 A 
ATOM      7  C   UNL     1      -1.095  -8.018   2.739  0.00  0.00    +0.000 A 
ATOM      8  C   UNL     1      -0.150  -7.104   2.263  0.00  0.00    +0.000 A 
ATOM      9 CL   UNL     1      -3.487  -8.684   3.796  0.00  0.00    +0.000 Cl
ENDBRANCH   2   3
BRANCH   1  13
ATOM     10  C   UNL     1       3.087  -0.978   1.115  0.00  0.00    +0.000 C 
ATOM     11  C   UNL     1       3.640  -2.253   0.501  0.00  0.00    +0.000 C 
ATOM     12  O   UNL     1       2.581  -3.188   0.651  0.00  0.00    +0.000 OA
ATOM     13  C   UNL     1       1.824  -2.669   1.646  0.00  0.00    +0.000 C 
ATOM     14  N   UNL     1       2.048  -1.460   2.048  0.00  0.00    +0.000 NA
BRANCH  10  16
ATOM     15  C   UNL     1       3.488   1.130   2.455  0.00  0.00    +0.000 C 
ATOM     16  C   UNL     1       4.131  -0.124   1.852  0.00  0.00    +0.000 C 
ATOM     17  C   UNL     1       5.276   0.290   0.924  0.00  0.00    +0.000 C 
ENDBRANCH  10  16
ENDBRANCH   1  13
TORSDOF 3
