REMARK  Name = *****
REMARK  2 active torsions:
REMARK  status: ('A' for Active; 'I' for Inactive)
REMARK    1  A    between atoms: C_6  and  C_7
REMARK    2  A    between atoms: C_8  and  C_9
REMARK                            x       y       z     vdW  Elec       q    Type
REMARK                         _______ _______ _______ _____ _____    ______ ____
ROOT
ATOM      1  C   UNL     1       1.670   0.967   0.774  0.00  0.00    +0.000 A 
ATOM      2  C   UNL     1       0.274   0.951   0.712  0.00  0.00    +0.000 A 
ATOM      3  C   UNL     1      -0.374   0.020  -0.095  0.00  0.00    +0.000 A 
ATOM      4  C   UNL     1       0.363  -0.901  -0.837  0.00  0.00    +0.000 A 
ATOM      5  C   UNL     1       1.759  -0.885  -0.774  0.00  0.00    +0.000 A 
ATOM      6  C   UNL     1       2.426   0.058   0.020  0.00  0.00    +0.000 A 
ATOM      7 CL   UNL     1      -2.092   0.001  -0.171  0.00  0.00    +0.000 Cl
ENDROOT
BRANCH   6   8
ATOM      8  C   UNL     1       3.894   0.024   0.081  0.00  0.00    +0.000 C 
ATOM      9  C   UNL     1       4.664   1.126   0.071  0.00  0.00    +0.000 C 
BRANCH   9  10
ATOM     10  C   UNL     1       6.090   1.152   0.120  0.00  0.00    +0.000 A 
ATOM     11  C   UNL     1       6.950   0.080   0.217  0.00  0.00    +0.000 A 
ATOM     12  O   UNL     1       8.241   0.505   0.238  0.00  0.00    +0.000 OA
ATOM     13  C   UNL     1       8.211   1.860   0.153  0.00  0.00    +0.000 A 
ATOM     14  C   UNL     1       6.913   2.308   0.079  0.00  0.00    +0.000 A 
ENDBRANCH   9  10
ENDBRANCH   6   8
TORSDOF 2
