REMARK  Name = *****
REMARK  5 active torsions:
REMARK  status: ('A' for Active; 'I' for Inactive)
REMARK    1  A    between atoms: C_1  and  C_2
REMARK    2  A    between atoms: C_2  and  O_4
REMARK    3  A    between atoms: O_4  and  C_5
REMARK    4  A    between atoms: C_5  and  C_13
REMARK    5  A    between atoms: C_6  and  C_7
REMARK                            x       y       z     vdW  Elec       q    Type
REMARK                         _______ _______ _______ _____ _____    ______ ____
ROOT
ATOM      1  C   UNL     1       4.572  -0.379  -1.150  0.00  0.00    +0.000 C 
ATOM      2  C   UNL     1       5.212  -0.136   0.008  0.00  0.00    +0.000 C 
ENDROOT
BRANCH   2   3
ATOM      3  C   UNL     1       4.517   0.050   1.283  0.00  0.00    +0.000 A 
ATOM      4  C   UNL     1       4.184  -1.056   2.072  0.00  0.00    +0.000 A 
ATOM      5  C   UNL     1       3.510  -0.879   3.281  0.00  0.00    +0.000 A 
ATOM      6  C   UNL     1       3.166   0.403   3.706  0.00  0.00    +0.000 A 
ATOM      7  C   UNL     1       3.494   1.510   2.923  0.00  0.00    +0.000 A 
ATOM      8  C   UNL     1       4.168   1.334   1.713  0.00  0.00    +0.000 A 
ENDBRANCH   2   3
BRANCH   1   9
ATOM      9  C   UNL     1       5.285  -0.504  -2.434  0.00  0.00    +0.000 A 
ATOM     10  C   UNL     1       6.386  -1.361  -2.570  0.00  0.00    +0.000 A 
ATOM     11  C   UNL     1       7.048  -1.479  -3.795  0.00  0.00    +0.000 A 
ATOM     12  C   UNL     1       6.612  -0.746  -4.897  0.00  0.00    +0.000 A 
ATOM     13  C   UNL     1       5.514   0.103  -4.778  0.00  0.00    +0.000 A 
ATOM     14  C   UNL     1       4.851   0.221  -3.553  0.00  0.00    +0.000 A 
ENDBRANCH   1   9
BRANCH   1  15
ATOM     15  O   UNL     1       3.171  -0.414  -1.240  0.00  0.00    +0.000 OA
BRANCH  15  17
ATOM     16  C   UNL     1       1.160  -1.600  -1.127  0.00  0.00    +0.000 C 
ATOM     17  C   UNL     1       2.656  -1.673  -1.053  0.00  0.00    +0.000 C 
ATOM     18  O   UNL     1       3.278  -2.711  -0.861  0.00  0.00    +0.000 OA
ENDBRANCH  15  17
ENDBRANCH   1  15
TORSDOF 4
