REMARK  Name = *****
REMARK  6 active torsions:
REMARK  status: ('A' for Active; 'I' for Inactive)
REMARK    1  A    between atoms: C_1  and  C_2
REMARK    2  A    between atoms: C_2  and  C_4
REMARK    3  A    between atoms: C_4  and  C_5
REMARK    4  A    between atoms: C_5  and  C_6
REMARK    5  A    between atoms: C_5  and  C_13
REMARK    6  A    between atoms: C_6  and  C_7
REMARK                            x       y       z     vdW  Elec       q    Type
REMARK                         _______ _______ _______ _____ _____    ______ ____
ROOT
ATOM      1  C   UNL     1       4.641  -0.908   0.640  0.00  0.00    +0.000 C 
ENDROOT
BRANCH   1   2
ATOM      2  C   UNL     1       5.530  -2.015   1.204  0.00  0.00    +0.000 A 
ATOM      3  C   UNL     1       6.693  -2.383   0.506  0.00  0.00    +0.000 A 
ATOM      4  C   UNL     1       7.534  -3.384   0.994  0.00  0.00    +0.000 A 
ATOM      5  C   UNL     1       7.230  -4.030   2.189  0.00  0.00    +0.000 A 
ATOM      6  C   UNL     1       6.087  -3.673   2.898  0.00  0.00    +0.000 A 
ATOM      7  C   UNL     1       5.242  -2.672   2.410  0.00  0.00    +0.000 A 
ENDBRANCH   1   2
BRANCH   1   8
ATOM      8  C   UNL     1       3.142  -1.217   0.815  0.00  0.00    +0.000 C 
BRANCH   8  10
ATOM      9  C   UNL     1       0.754  -0.545   0.158  0.00  0.00    +0.000 C 
ATOM     10  C   UNL     1       2.235  -0.352  -0.042  0.00  0.00    +0.000 C 
ATOM     11  O   UNL     1       2.660   0.446  -0.876  0.00  0.00    +0.000 OA
ENDBRANCH   8  10
ENDBRANCH   1   8
BRANCH   1  12
ATOM     12  C   UNL     1       5.077   0.494   1.145  0.00  0.00    +0.000 C 
BRANCH  12  13
ATOM     13  C   UNL     1       4.751   0.828   2.584  0.00  0.00    +0.000 A 
ATOM     14  C   UNL     1       5.631   0.475   3.616  0.00  0.00    +0.000 A 
ATOM     15  C   UNL     1       5.327   0.778   4.943  0.00  0.00    +0.000 A 
ATOM     16  C   UNL     1       4.143   1.444   5.253  0.00  0.00    +0.000 A 
ATOM     17  C   UNL     1       3.266   1.813   4.235  0.00  0.00    +0.000 A 
ATOM     18  C   UNL     1       3.570   1.510   2.907  0.00  0.00    +0.000 A 
ENDBRANCH  12  13
ENDBRANCH   1  12
TORSDOF 5
