REMARK  Name = *****
REMARK  5 active torsions:
REMARK  status: ('A' for Active; 'I' for Inactive)
REMARK    1  A    between atoms: C_1  and  C_2
REMARK    2  A    between atoms: C_2  and  C_3
REMARK    3  A    between atoms: C_2  and  C_9
REMARK    4  A    between atoms: C_9  and  C_10
REMARK    5  A    between atoms: C_9  and  C_12
REMARK                            x       y       z     vdW  Elec       q    Type
REMARK                         _______ _______ _______ _____ _____    ______ ____
ROOT
ATOM      1  C   UNL     1       2.709   0.522   1.549  0.00  0.00    +0.000 C 
ENDROOT
BRANCH   1   2
ATOM      2  C   UNL     1       2.567  -0.636   2.537  0.00  0.00    +0.000 A 
ATOM      3  C   UNL     1       3.589  -1.599   2.617  0.00  0.00    +0.000 A 
ATOM      4  C   UNL     1       3.484  -2.683   3.490  0.00  0.00    +0.000 A 
ATOM      5  C   UNL     1       2.357  -2.825   4.294  0.00  0.00    +0.000 A 
ATOM      6  C   UNL     1       1.332  -1.885   4.224  0.00  0.00    +0.000 A 
ATOM      7  C   UNL     1       1.433  -0.800   3.351  0.00  0.00    +0.000 A 
ENDBRANCH   1   2
BRANCH   1   9
ATOM      8  C   UNL     1       0.717  -0.089  -0.010  0.00  0.00    +0.000 C 
ATOM      9  C   UNL     1       2.236   0.115   0.121  0.00  0.00    +0.000 C 
BRANCH   9  10
ATOM     10  C   UNL     1       2.792   1.064  -0.938  0.00  0.00    +0.000 A 
ATOM     11  C   UNL     1       2.148   2.262  -1.285  0.00  0.00    +0.000 A 
ATOM     12  C   UNL     1       2.700   3.117  -2.241  0.00  0.00    +0.000 A 
ATOM     13  C   UNL     1       3.903   2.791  -2.861  0.00  0.00    +0.000 A 
ATOM     14  C   UNL     1       4.558   1.610  -2.525  0.00  0.00    +0.000 A 
ATOM     15  C   UNL     1       4.008   0.753  -1.569  0.00  0.00    +0.000 A 
ENDBRANCH   9  10
ENDBRANCH   1   9
BRANCH   1  16
ATOM     16  C   UNL     1       2.073   1.774   2.019  0.00  0.00    +0.000 C 
ATOM     17  N   UNL     1       1.558   2.750   2.383  0.00  0.00    +0.000 NA
ENDBRANCH   1  16
TORSDOF 4
