REMARK  Name = *****
REMARK  4 active torsions:
REMARK  status: ('A' for Active; 'I' for Inactive)
REMARK    1  A    between atoms: C_1  and  C_2
REMARK    2  A    between atoms: C_6  and  O_8
REMARK    3  A    between atoms: O_8  and  C_9
REMARK    4  A    between atoms: C_9  and  C_11
REMARK                            x       y       z     vdW  Elec       q    Type
REMARK                         _______ _______ _______ _____ _____    ______ ____
ROOT
ATOM      1  O   UNL     1      -3.882   0.224   0.073  0.00  0.00    +0.000 OA
ENDROOT
BRANCH   1   7
ATOM      2  C   UNL     1       0.682   2.025   0.684  0.00  0.00    +0.000 C 
ATOM      3  C   UNL     1      -0.242   0.942   0.202  0.00  0.00    +0.000 A 
ATOM      4  C   UNL     1       0.240  -0.235  -0.397  0.00  0.00    +0.000 A 
ATOM      5  C   UNL     1      -0.643  -1.229  -0.835  0.00  0.00    +0.000 A 
ATOM      6  C   UNL     1      -2.019  -1.059  -0.688  0.00  0.00    +0.000 A 
ATOM      7  C   UNL     1      -2.499   0.113  -0.113  0.00  0.00    +0.000 A 
ATOM      8  C   UNL     1      -1.629   1.102   0.350  0.00  0.00    +0.000 A 
ATOM      9 CL   UNL     1       1.932  -0.511  -0.609  0.00  0.00    +0.000 Cl
ENDBRANCH   1   7
BRANCH   1  10
ATOM     10  C   UNL     1      -4.490   1.273  -0.594  0.00  0.00    +0.000 C 
ATOM     11  O   UNL     1      -3.952   2.091  -1.326  0.00  0.00    +0.000 OA
BRANCH  10  12
ATOM     12  C   UNL     1      -5.949   1.283  -0.295  0.00  0.00    +0.000 A 
ATOM     13  C   UNL     1      -6.563   0.322   0.521  0.00  0.00    +0.000 A 
ATOM     14  C   UNL     1      -7.937   0.382   0.765  0.00  0.00    +0.000 A 
ATOM     15  C   UNL     1      -8.705   1.398   0.198  0.00  0.00    +0.000 A 
ATOM     16  C   UNL     1      -8.103   2.358  -0.615  0.00  0.00    +0.000 A 
ATOM     17  C   UNL     1      -6.730   2.301  -0.862  0.00  0.00    +0.000 A 
ENDBRANCH  10  12
ENDBRANCH   1  10
TORSDOF 3
