REMARK  Name = *****
REMARK  2 active torsions:
REMARK  status: ('A' for Active; 'I' for Inactive)
REMARK    1  A    between atoms: C_4  and  N_7
REMARK    2  A    between atoms: C_8  and  C_9
REMARK                            x       y       z     vdW  Elec       q    Type
REMARK                         _______ _______ _______ _____ _____    ______ ____
ROOT
ATOM      1  N   UNL     1       2.727  -0.519  -0.133  0.00  0.00    +0.000 NA
ATOM      2  C   UNL     1       3.532  -1.365   0.407  0.00  0.00    +0.000 C 
ATOM      3 CL   UNL     1       5.096  -1.455  -0.336  0.00  0.00    +0.000 Cl
ENDROOT
BRANCH   1   7
ATOM      4  C   UNL     1      -1.429   0.412  -0.324  0.00  0.00    +0.000 C 
ATOM      5  C   UNL     1      -1.037  -1.048  -0.118  0.00  0.00    +0.000 C 
ATOM      6  C   UNL     1       0.433  -1.289  -0.455  0.00  0.00    +0.000 C 
ATOM      7  C   UNL     1       1.353  -0.355   0.338  0.00  0.00    +0.000 C 
ATOM      8  C   UNL     1       0.958   1.110   0.109  0.00  0.00    +0.000 C 
ATOM      9  C   UNL     1      -0.511   1.356   0.446  0.00  0.00    +0.000 C 
ENDBRANCH   1   7
BRANCH   2  10
ATOM     10  C   UNL     1       3.248  -2.241   1.559  0.00  0.00    +0.000 A 
ATOM     11  C   UNL     1       3.059  -3.610   1.349  0.00  0.00    +0.000 A 
ATOM     12  C   UNL     1       2.813  -4.442   2.441  0.00  0.00    +0.000 A 
ATOM     13  C   UNL     1       2.767  -3.907   3.730  0.00  0.00    +0.000 A 
ATOM     14  C   UNL     1       2.971  -2.541   3.935  0.00  0.00    +0.000 A 
ATOM     15  C   UNL     1       3.217  -1.702   2.849  0.00  0.00    +0.000 A 
ENDBRANCH   2  10
TORSDOF 2
