REMARK  Name = *****
REMARK  5 active torsions:
REMARK  status: ('A' for Active; 'I' for Inactive)
REMARK    1  A    between atoms: C_1  and  O_2
REMARK    2  A    between atoms: O_2  and  C_3
REMARK    3  A    between atoms: C_3  and  C_5
REMARK    4  A    between atoms: C_10  and  C_11
REMARK    5  A    between atoms: C_12  and  C_13
REMARK                            x       y       z     vdW  Elec       q    Type
REMARK                         _______ _______ _______ _____ _____    ______ ____
ROOT
ATOM      1  C   UNL     1       4.529   1.281   0.579  0.00  0.00    +0.000 A 
ATOM      2  C   UNL     1       5.214   0.963  -0.605  0.00  0.00    +0.000 A 
ATOM      3  C   UNL     1       6.608   0.943  -0.632  0.00  0.00    +0.000 A 
ATOM      4  C   UNL     1       7.327   1.231   0.526  0.00  0.00    +0.000 A 
ATOM      5  C   UNL     1       6.654   1.530   1.712  0.00  0.00    +0.000 A 
ATOM      6  C   UNL     1       5.250   1.555   1.755  0.00  0.00    +0.000 A 
ENDROOT
BRANCH   1   7
ATOM      7  C   UNL     1       3.048   1.278   0.507  0.00  0.00    +0.000 C 
ATOM      8  O   UNL     1       2.412   0.464  -0.145  0.00  0.00    +0.000 OA
BRANCH   7  10
ATOM      9  C   UNL     1       1.116   2.434   1.115  0.00  0.00    +0.000 C 
ATOM     10  O   UNL     1       2.540   2.350   1.163  0.00  0.00    +0.000 OA
ENDBRANCH   7  10
ENDBRANCH   1   7
BRANCH   6  11
ATOM     11  C   UNL     1       4.619   1.817   3.053  0.00  0.00    +0.000 C 
ATOM     12  C   UNL     1       4.262   0.815   3.871  0.00  0.00    +0.000 C 
BRANCH  12  13
ATOM     13  C   UNL     1       3.619   1.023   5.175  0.00  0.00    +0.000 A 
ATOM     14  C   UNL     1       2.646   2.011   5.378  0.00  0.00    +0.000 A 
ATOM     15  C   UNL     1       2.034   2.160   6.626  0.00  0.00    +0.000 A 
ATOM     16  C   UNL     1       2.381   1.316   7.679  0.00  0.00    +0.000 A 
ATOM     17  C   UNL     1       3.335   0.319   7.484  0.00  0.00    +0.000 A 
ATOM     18  C   UNL     1       3.946   0.169   6.236  0.00  0.00    +0.000 A 
ENDBRANCH  12  13
ENDBRANCH   6  11
TORSDOF 4
