REMARK  Name = *****
REMARK  2 active torsions:
REMARK  status: ('A' for Active; 'I' for Inactive)
REMARK    1  A    between atoms: C_3  and  C_11
REMARK    2  A    between atoms: C_11  and  C_12
REMARK                            x       y       z     vdW  Elec       q    Type
REMARK                         _______ _______ _______ _____ _____    ______ ____
ROOT
ATOM      1  C   UNL     1       1.128   1.377   0.624  0.00  0.00    +0.000 C 
ATOM      2  C   UNL     1       2.391   0.708   0.066  0.00  0.00    +0.000 C 
ATOM      3  C   UNL     1       2.337  -0.803   0.099  0.00  0.00    +0.000 C 
ATOM      4  C   UNL     1       1.157  -1.451   0.056  0.00  0.00    +0.000 C 
ATOM      5  C   UNL     1      -0.111  -0.715  -0.025  0.00  0.00    +0.000 A 
ATOM      6  C   UNL     1      -1.299  -1.386  -0.332  0.00  0.00    +0.000 A 
ATOM      7  C   UNL     1      -2.506  -0.687  -0.401  0.00  0.00    +0.000 A 
ATOM      8  C   UNL     1      -2.533   0.685  -0.154  0.00  0.00    +0.000 A 
ATOM      9  C   UNL     1      -1.355   1.361   0.162  0.00  0.00    +0.000 A 
ATOM     10  C   UNL     1      -0.138   0.668   0.218  0.00  0.00    +0.000 A 
ENDROOT
BRANCH   3  11
ATOM     11  C   UNL     1       3.654  -1.543   0.113  0.00  0.00    +0.000 C 
BRANCH  11  12
ATOM     12  C   UNL     1       4.415  -1.398   1.412  0.00  0.00    +0.000 A 
ATOM     13  C   UNL     1       3.910  -1.949   2.599  0.00  0.00    +0.000 A 
ATOM     14  C   UNL     1       4.614  -1.817   3.797  0.00  0.00    +0.000 A 
ATOM     15  C   UNL     1       5.829  -1.137   3.822  0.00  0.00    +0.000 A 
ATOM     16  C   UNL     1       6.343  -0.587   2.649  0.00  0.00    +0.000 A 
ATOM     17  C   UNL     1       5.640  -0.717   1.449  0.00  0.00    +0.000 A 
ENDBRANCH  11  12
ENDBRANCH   3  11
TORSDOF 2
