REMARK  Name = *****
REMARK  3 active torsions:
REMARK  status: ('A' for Active; 'I' for Inactive)
REMARK    1  A    between atoms: C_2  and  C_3
REMARK    2  A    between atoms: C_6  and  C_9
REMARK    3  A    between atoms: C_10  and  C_11
REMARK                            x       y       z     vdW  Elec       q    Type
REMARK                         _______ _______ _______ _____ _____    ______ ____
ROOT
ATOM      1  C   UNL     1      -0.512   0.054  -0.049  0.00  0.00    +0.000 A 
ATOM      2  C   UNL     1       0.121  -1.024   0.570  0.00  0.00    +0.000 A 
ATOM      3  C   UNL     1       1.515  -1.050   0.683  0.00  0.00    +0.000 A 
ATOM      4  C   UNL     1       2.291  -0.003   0.168  0.00  0.00    +0.000 A 
ATOM      5  C   UNL     1       1.645   1.082  -0.437  0.00  0.00    +0.000 A 
ATOM      6  C   UNL     1       0.251   1.108  -0.551  0.00  0.00    +0.000 A 
ENDROOT
BRANCH   1   8
ATOM      7  C   UNL     1      -3.135   0.103  -0.259  0.00  0.00    +0.000 C 
ATOM      8  C   UNL     1      -1.938   0.081  -0.163  0.00  0.00    +0.000 C 
ENDBRANCH   1   8
BRANCH   4   9
ATOM      9  C   UNL     1       3.755   0.023   0.296  0.00  0.00    +0.000 C 
ATOM     10  C   UNL     1       4.537  -1.057   0.145  0.00  0.00    +0.000 C 
BRANCH  10  11
ATOM     11  C   UNL     1       5.972  -1.053   0.261  0.00  0.00    +0.000 C 
ATOM     12  C   UNL     1       6.772  -2.124   0.106  0.00  0.00    +0.000 C 
ATOM     13  C   UNL     1       8.148  -1.736   0.298  0.00  0.00    +0.000 C 
ATOM     14  C   UNL     1       8.207  -0.426   0.571  0.00  0.00    +0.000 C 
ATOM     15  C   UNL     1       6.821   0.154   0.577  0.00  0.00    +0.000 C 
ENDBRANCH  10  11
ENDBRANCH   4   9
TORSDOF 3
