REMARK  Name = *****
REMARK  5 active torsions:
REMARK  status: ('A' for Active; 'I' for Inactive)
REMARK    1  A    between atoms: C_1  and  C_2
REMARK    2  A    between atoms: C_5  and  C_8
REMARK    3  A    between atoms: C_8  and  O_10
REMARK    4  A    between atoms: O_10  and  C_11
REMARK    5  A    between atoms: C_16  and  C_17
REMARK                            x       y       z     vdW  Elec       q    Type
REMARK                         _______ _______ _______ _____ _____    ______ ____
ROOT
ATOM      1  C   UNL     1      -2.996   0.539  -1.038  0.00  0.00    +0.000 C 
ATOM      2  O   UNL     1      -3.755  -0.390  -1.267  0.00  0.00    +0.000 OA
ENDROOT
BRANCH   1   7
ATOM      3  C   UNL     1       2.347  -0.385   1.034  0.00  0.00    +0.000 C 
ATOM      4  C   UNL     1       0.979  -0.129   0.474  0.00  0.00    +0.000 A 
ATOM      5  C   UNL     1       0.527   1.180   0.274  0.00  0.00    +0.000 A 
ATOM      6  C   UNL     1      -0.760   1.421  -0.220  0.00  0.00    +0.000 A 
ATOM      7  C   UNL     1      -1.615   0.350  -0.510  0.00  0.00    +0.000 A 
ATOM      8  C   UNL     1      -1.168  -0.961  -0.295  0.00  0.00    +0.000 A 
ATOM      9  C   UNL     1       0.118  -1.197   0.198  0.00  0.00    +0.000 A 
ENDBRANCH   1   7
BRANCH   1  10
ATOM     10  O   UNL     1      -3.244   1.888  -1.211  0.00  0.00    +0.000 OA
BRANCH  10  11
ATOM     11  C   UNL     1      -4.524   2.162  -1.705  0.00  0.00    +0.000 A 
ATOM     12  C   UNL     1      -4.740   2.087  -3.082  0.00  0.00    +0.000 A 
ATOM     13  C   UNL     1      -5.996   2.404  -3.595  0.00  0.00    +0.000 A 
ATOM     14  C   UNL     1      -7.017   2.805  -2.734  0.00  0.00    +0.000 A 
ATOM     15  C   UNL     1      -6.786   2.897  -1.358  0.00  0.00    +0.000 A 
ATOM     16  C   UNL     1      -5.527   2.589  -0.825  0.00  0.00    +0.000 A 
ATOM     17  C   UNL     1      -5.283   2.678   0.651  0.00  0.00    +0.000 C 
ENDBRANCH  10  11
ENDBRANCH   1  10
TORSDOF 3
