REMARK  Name = *****
REMARK  2 active torsions:
REMARK  status: ('A' for Active; 'I' for Inactive)
REMARK    1  A    between atoms: C_4  and  O_7
REMARK    2  A    between atoms: O_7  and  N_8
REMARK                            x       y       z     vdW  Elec       q    Type
REMARK                         _______ _______ _______ _____ _____    ______ ____
ROOT
ATOM      1  N   UNL     1      -4.494  -0.739   0.686  0.00  0.00    +0.000 N 
ATOM      2  C   UNL     1      -5.644  -0.574  -0.037  0.00  0.00    +0.000 A 
ATOM      3  C   UNL     1      -6.062   0.341  -1.009  0.00  0.00    +0.000 A 
ATOM      4  C   UNL     1      -7.346   0.151  -1.531  0.00  0.00    +0.000 A 
ATOM      5  C   UNL     1      -8.161  -0.899  -1.097  0.00  0.00    +0.000 A 
ATOM      6  C   UNL     1      -7.717  -1.799  -0.118  0.00  0.00    +0.000 A 
ATOM      7  C   UNL     1      -6.434  -1.623   0.417  0.00  0.00    +0.000 A 
ATOM      8  N   UNL     1      -5.760  -2.333   1.379  0.00  0.00    +0.000 NA
ATOM      9  N   UNL     1      -4.577  -1.757   1.561  0.00  0.00    +0.000 NA
ENDROOT
BRANCH   1  10
ATOM     10  O   UNL     1      -3.389   0.114   0.713  0.00  0.00    +0.000 OA
BRANCH  10  14
ATOM     11  C   UNL     1      -0.755  -0.486  -2.456  0.00  0.00    +0.000 A 
ATOM     12  C   UNL     1      -1.219  -1.595  -1.749  0.00  0.00    +0.000 A 
ATOM     13  C   UNL     1      -2.104  -1.426  -0.682  0.00  0.00    +0.000 A 
ATOM     14  C   UNL     1      -2.537  -0.143  -0.337  0.00  0.00    +0.000 A 
ATOM     15  C   UNL     1      -2.050   0.968  -1.028  0.00  0.00    +0.000 A 
ATOM     16  C   UNL     1      -1.166   0.796  -2.092  0.00  0.00    +0.000 A 
ENDBRANCH  10  14
ENDBRANCH   1  10
TORSDOF 2
