REMARK  Name = *****
REMARK  6 active torsions:
REMARK  status: ('A' for Active; 'I' for Inactive)
REMARK    1  A    between atoms: C_1  and  O_2
REMARK    2  A    between atoms: O_2  and  C_3
REMARK    3  A    between atoms: C_3  and  C_5
REMARK    4  A    between atoms: C_7  and  N_11
REMARK    5  A    between atoms: N_11  and  C_12
REMARK    6  A    between atoms: C_12  and  C_13
REMARK                            x       y       z     vdW  Elec       q    Type
REMARK                         _______ _______ _______ _____ _____    ______ ____
ROOT
ATOM      1  C   UNL     1       4.455   0.661  -1.250  0.00  0.00    +0.000 A 
ATOM      2  C   UNL     1       5.040  -0.521  -0.783  0.00  0.00    +0.000 A 
ATOM      3  C   UNL     1       6.366  -0.826  -1.102  0.00  0.00    +0.000 A 
ATOM      4  C   UNL     1       7.123   0.098  -1.828  0.00  0.00    +0.000 A 
ATOM      5  C   UNL     1       6.558   1.291  -2.279  0.00  0.00    +0.000 A 
ATOM      6  C   UNL     1       5.220   1.567  -2.000  0.00  0.00    +0.000 A 
ENDROOT
BRANCH   1   7
ATOM      7  C   UNL     1       3.026   0.989  -1.006  0.00  0.00    +0.000 C 
ATOM      8  O   UNL     1       2.453   1.935  -1.528  0.00  0.00    +0.000 OA
BRANCH   7  10
ATOM      9  C   UNL     1       1.083   0.335   0.120  0.00  0.00    +0.000 C 
ATOM     10  O   UNL     1       2.467   0.111  -0.137  0.00  0.00    +0.000 OA
ENDBRANCH   7  10
ENDBRANCH   1   7
BRANCH   3  11
ATOM     11  N   UNL     1       6.989  -2.005  -0.675  0.00  0.00    +0.000 NA
BRANCH  11  12
ATOM     12  C   UNL     1       6.578  -3.188  -1.031  0.00  0.00    +0.000 C 
ATOM     13  O   UNL     1       7.047  -4.298  -0.715  0.00  0.00    +0.000 OA
BRANCH  12  14
ATOM     14  C   UNL     1       5.416  -3.453  -1.949  0.00  0.00    +0.000 A 
ATOM     15  C   UNL     1       5.433  -2.953  -3.258  0.00  0.00    +0.000 A 
ATOM     16  C   UNL     1       4.321  -3.121  -4.087  0.00  0.00    +0.000 A 
ATOM     17  C   UNL     1       3.193  -3.796  -3.617  0.00  0.00    +0.000 A 
ATOM     18  C   UNL     1       3.172  -4.306  -2.318  0.00  0.00    +0.000 A 
ATOM     19  C   UNL     1       4.277  -4.131  -1.484  0.00  0.00    +0.000 A 
ENDBRANCH  12  14
ENDBRANCH  11  12
ENDBRANCH   3  11
TORSDOF 5
