REMARK  Name = *****
REMARK  1 active torsions:
REMARK  status: ('A' for Active; 'I' for Inactive)
REMARK    1  A    between atoms: C_9  and  C_11
REMARK                            x       y       z     vdW  Elec       q    Type
REMARK                         _______ _______ _______ _____ _____    ______ ____
ROOT
ATOM      1  C   UNL     1       2.005   1.032  -0.523  0.00  0.00    +0.000 C 
ATOM      2  C   UNL     1       2.159  -0.485  -0.538  0.00  0.00    +0.000 C 
ATOM      3  C   UNL     1       1.448  -1.132   0.651  0.00  0.00    +0.000 C 
ATOM      4  C   UNL     1      -0.023  -0.719   0.740  0.00  0.00    +0.000 C 
ATOM      5  C   UNL     1      -0.184   0.795   0.727  0.00  0.00    +0.000 C 
ATOM      6  C   UNL     1       0.538   1.448  -0.465  0.00  0.00    +0.000 C 
ATOM      7  C   UNL     1      -1.677   1.083   0.716  0.00  0.00    +0.000 C 
ATOM      8  N   UNL     1      -2.376   0.355  -0.337  0.00  0.00    +0.000 NA
ATOM      9  C   UNL     1      -1.874  -0.741  -0.781  0.00  0.00    +0.000 C 
ATOM     10  O   UNL     1      -0.725  -1.319  -0.362  0.00  0.00    +0.000 OA
ENDROOT
BRANCH   9  11
ATOM     11  C   UNL     1      -2.500  -1.530  -1.874  0.00  0.00    +0.000 A 
ATOM     12  C   UNL     1      -3.718  -1.089  -2.414  0.00  0.00    +0.000 A 
ATOM     13  C   UNL     1      -4.329  -1.795  -3.454  0.00  0.00    +0.000 A 
ATOM     14  C   UNL     1      -3.724  -2.944  -3.959  0.00  0.00    +0.000 A 
ATOM     15  C   UNL     1      -2.515  -3.395  -3.432  0.00  0.00    +0.000 A 
ATOM     16  C   UNL     1      -1.903  -2.690  -2.390  0.00  0.00    +0.000 A 
ATOM     17 CL   UNL     1      -4.472  -3.809  -5.244  0.00  0.00    +0.000 Cl
ENDBRANCH   9  11
TORSDOF 1
