REMARK  Name = *****
REMARK  2 active torsions:
REMARK  status: ('A' for Active; 'I' for Inactive)
REMARK    1  A    between atoms: C_4  and  C_6
REMARK    2  A    between atoms: C_7  and  C_8
REMARK                            x       y       z     vdW  Elec       q    Type
REMARK                         _______ _______ _______ _____ _____    ______ ____
ROOT
ATOM      1  C   UNL     1      -0.897   2.719   0.004  0.00  0.00    +0.000 C 
ATOM      2  C   UNL     1       0.027   3.691  -0.061  0.00  0.00    +0.000 C 
ENDROOT
BRANCH   1   6
ATOM      3  C   UNL     1      -0.765  -1.163   0.049  0.00  0.00    +0.000 A 
ATOM      4  C   UNL     1       0.534  -0.739  -0.016  0.00  0.00    +0.000 A 
ATOM      5  C   UNL     1       0.656   0.662  -0.039  0.00  0.00    +0.000 A 
ATOM      6  C   UNL     1      -0.554   1.330   0.007  0.00  0.00    +0.000 A 
ATOM      7  S   UNL     1      -1.844   0.165   0.082  0.00  0.00    +0.000 S 
ATOM      8  F   UNL     1       1.817   1.259  -0.099  0.00  0.00    +0.000 F 
ATOM      9  F   UNL     1       1.551  -1.557  -0.052  0.00  0.00    +0.000 F 
ENDBRANCH   1   6
BRANCH   2  10
ATOM     10  C   UNL     1      -0.268   5.092  -0.068  0.00  0.00    +0.000 A 
ATOM     11  C   UNL     1       0.642   6.132  -0.143  0.00  0.00    +0.000 A 
ATOM     12  C   UNL     1       0.059   7.409  -0.131  0.00  0.00    +0.000 A 
ATOM     13  C   UNL     1      -1.307   7.368  -0.046  0.00  0.00    +0.000 A 
ATOM     14  S   UNL     1      -1.869   5.753   0.019  0.00  0.00    +0.000 S 
ATOM     15  F   UNL     1       0.739   8.521  -0.194  0.00  0.00    +0.000 F 
ATOM     16  F   UNL     1       1.934   5.943  -0.220  0.00  0.00    +0.000 F 
ENDBRANCH   2  10
TORSDOF 2
