REMARK  Name = *****
REMARK  4 active torsions:
REMARK  status: ('A' for Active; 'I' for Inactive)
REMARK    1  A    between atoms: C_4  and  S_8
REMARK    2  A    between atoms: S_8  and  C_9
REMARK    3  A    between atoms: C_9  and  C_10
REMARK    4  A    between atoms: C_10  and  C_11
REMARK                            x       y       z     vdW  Elec       q    Type
REMARK                         _______ _______ _______ _____ _____    ______ ____
ROOT
ATOM      1  S   UNL     1      -1.569  -2.726  -1.075  0.00  0.00    +0.000 S 
ENDROOT
BRANCH   1   5
ATOM      2  C   UNL     1       0.828   0.924   0.371  0.00  0.00    +0.000 A 
ATOM      3  C   UNL     1      -0.205   0.436   1.173  0.00  0.00    +0.000 A 
ATOM      4  C   UNL     1      -0.950  -0.675   0.761  0.00  0.00    +0.000 A 
ATOM      5  C   UNL     1      -0.664  -1.307  -0.461  0.00  0.00    +0.000 A 
ATOM      6  C   UNL     1       0.372  -0.803  -1.262  0.00  0.00    +0.000 A 
ATOM      7  C   UNL     1       1.111   0.302  -0.842  0.00  0.00    +0.000 A 
ATOM      8 CL   UNL     1       2.386   0.901  -1.830  0.00  0.00    +0.000 Cl
ATOM      9 CL   UNL     1      -2.206  -1.222   1.817  0.00  0.00    +0.000 Cl
ENDBRANCH   1   5
BRANCH   1  10
ATOM     10  C   UNL     1      -0.539  -4.045  -0.348  0.00  0.00    +0.000 C 
BRANCH  10  11
ATOM     11  C   UNL     1      -1.157  -5.413  -0.636  0.00  0.00    +0.000 C 
BRANCH  11  12
ATOM     12  C   UNL     1      -0.289  -6.527  -0.105  0.00  0.00    +0.000 A 
ATOM     13  C   UNL     1      -0.368  -6.921   1.233  0.00  0.00    +0.000 A 
ATOM     14  C   UNL     1       0.468  -7.934   1.677  0.00  0.00    +0.000 A 
ATOM     15  N   UNL     1       1.365  -8.568   0.893  0.00  0.00    +0.000 NA
ATOM     16  C   UNL     1       1.427  -8.172  -0.396  0.00  0.00    +0.000 A 
ATOM     17  C   UNL     1       0.635  -7.169  -0.934  0.00  0.00    +0.000 A 
ENDBRANCH  11  12
ENDBRANCH  10  11
ENDBRANCH   1  10
TORSDOF 4
