REMARK  Name = *****
REMARK  3 active torsions:
REMARK  status: ('A' for Active; 'I' for Inactive)
REMARK    1  A    between atoms: C_4  and  C_7
REMARK    2  A    between atoms: C_7  and  P_8
REMARK    3  A    between atoms: P_8  and  C_10
REMARK                            x       y       z     vdW  Elec       q    Type
REMARK                         _______ _______ _______ _____ _____    ______ ____
ROOT
ATOM      1  P   UNL     1      -3.560  -0.983  -1.184  0.00  0.00    +0.000 P 
ATOM      2  S   UNL     1      -2.725  -1.249  -2.934  0.00  0.00    +0.000 S 
ATOM      3 CL   UNL     1      -5.484  -0.470  -1.575  0.00  0.00    +0.000 Cl
ENDROOT
BRANCH   1   4
ATOM      4  C   UNL     1      -3.766  -2.312  -0.006  0.00  0.00    +0.000 A 
ATOM      5  C   UNL     1      -4.631  -2.193   1.096  0.00  0.00    +0.000 A 
ATOM      6  C   UNL     1      -4.758  -3.229   2.023  0.00  0.00    +0.000 A 
ATOM      7  C   UNL     1      -4.021  -4.399   1.866  0.00  0.00    +0.000 A 
ATOM      8  C   UNL     1      -3.155  -4.534   0.784  0.00  0.00    +0.000 A 
ATOM      9  C   UNL     1      -3.028  -3.498  -0.143  0.00  0.00    +0.000 A 
ENDBRANCH   1   4
BRANCH   1  10
ATOM     10  C   UNL     1      -2.989   0.493  -0.279  0.00  0.00    +0.000 C 
BRANCH  10  14
ATOM     11  C   UNL     1       0.957   0.141   1.422  0.00  0.00    +0.000 A 
ATOM     12  C   UNL     1       0.798   0.600   0.116  0.00  0.00    +0.000 A 
ATOM     13  C   UNL     1      -0.479   0.726  -0.431  0.00  0.00    +0.000 A 
ATOM     14  C   UNL     1      -1.611   0.396   0.327  0.00  0.00    +0.000 A 
ATOM     15  C   UNL     1      -1.440  -0.069   1.638  0.00  0.00    +0.000 A 
ATOM     16  C   UNL     1      -0.161  -0.194   2.182  0.00  0.00    +0.000 A 
ENDBRANCH  10  14
ENDBRANCH   1  10
TORSDOF 3
