REMARK  Name = *****
REMARK  4 active torsions:
REMARK  status: ('A' for Active; 'I' for Inactive)
REMARK    1  A    between atoms: C_4  and  C_7
REMARK    2  A    between atoms: C_7  and  O_8
REMARK    3  A    between atoms: O_8  and  C_9
REMARK    4  A    between atoms: C_9  and  C_11
REMARK                            x       y       z     vdW  Elec       q    Type
REMARK                         _______ _______ _______ _____ _____    ______ ____
ROOT
ATOM      1  C   UNL     1      -4.543  -0.854  -1.247  0.00  0.00    +0.000 C 
ATOM      2  O   UNL     1      -4.309  -0.310  -2.311  0.00  0.00    +0.000 OA
ENDROOT
BRANCH   1   3
ATOM      3  C   UNL     1      -5.316  -2.098  -1.121  0.00  0.00    +0.000 A 
ATOM      4  C   UNL     1      -6.501  -2.170  -0.382  0.00  0.00    +0.000 A 
ATOM      5  C   UNL     1      -7.191  -3.383  -0.300  0.00  0.00    +0.000 A 
ATOM      6  C   UNL     1      -6.696  -4.509  -0.958  0.00  0.00    +0.000 A 
ATOM      7  C   UNL     1      -5.522  -4.437  -1.707  0.00  0.00    +0.000 A 
ATOM      8  C   UNL     1      -4.831  -3.227  -1.795  0.00  0.00    +0.000 A 
ATOM      9 CL   UNL     1      -7.547  -6.001  -0.853  0.00  0.00    +0.000 Cl
ATOM     10 CL   UNL     1      -7.187  -0.797   0.410  0.00  0.00    +0.000 Cl
ENDBRANCH   1   3
BRANCH   1  11
ATOM     11  O   UNL     1      -4.070  -0.521  -0.027  0.00  0.00    +0.000 OA
BRANCH  11  12
ATOM     12  C   UNL     1      -3.242   0.645  -0.015  0.00  0.00    +0.000 C 
BRANCH  12  16
ATOM     13  C   UNL     1      -0.918   0.518   3.614  0.00  0.00    +0.000 A 
ATOM     14  C   UNL     1      -0.344   0.131   2.405  0.00  0.00    +0.000 A 
ATOM     15  C   UNL     1      -1.094   0.176   1.229  0.00  0.00    +0.000 A 
ATOM     16  C   UNL     1      -2.425   0.616   1.251  0.00  0.00    +0.000 A 
ATOM     17  C   UNL     1      -2.996   0.991   2.475  0.00  0.00    +0.000 A 
ATOM     18  C   UNL     1      -2.244   0.946   3.650  0.00  0.00    +0.000 A 
ENDBRANCH  12  16
ENDBRANCH  11  12
ENDBRANCH   1  11
TORSDOF 4
