REMARK  Name = *****
REMARK  4 active torsions:
REMARK  status: ('A' for Active; 'I' for Inactive)
REMARK    1  A    between atoms: C_1  and  C_2
REMARK    2  A    between atoms: C_5  and  S_8
REMARK    3  A    between atoms: S_8  and  C_10
REMARK    4  A    between atoms: C_11  and  C_12
REMARK                            x       y       z     vdW  Elec       q    Type
REMARK                         _______ _______ _______ _____ _____    ______ ____
ROOT
ATOM      1  S   UNL     1      -3.167   0.122  -0.120  0.00  0.00    +0.000 S 
ATOM      2  O   UNL     1      -1.766   0.444   0.315  0.00  0.00    +0.000 OA
ENDROOT
BRANCH   1   7
ATOM      3  C   UNL     1      -5.739  -2.769   4.623  0.00  0.00    +0.000 C 
ATOM      4  C   UNL     1      -5.123  -2.034   3.469  0.00  0.00    +0.000 A 
ATOM      5  C   UNL     1      -5.636  -2.189   2.176  0.00  0.00    +0.000 A 
ATOM      6  C   UNL     1      -5.040  -1.535   1.095  0.00  0.00    +0.000 A 
ATOM      7  C   UNL     1      -3.921  -0.720   1.294  0.00  0.00    +0.000 A 
ATOM      8  C   UNL     1      -3.393  -0.582   2.581  0.00  0.00    +0.000 A 
ATOM      9  C   UNL     1      -3.988  -1.238   3.661  0.00  0.00    +0.000 A 
ENDBRANCH   1   7
BRANCH   1  10
ATOM     10  C   UNL     1      -4.030   1.684  -0.005  0.00  0.00    +0.000 C 
ATOM     11  C   UNL     1      -5.177   1.923  -0.661  0.00  0.00    +0.000 C 
BRANCH  11  12
ATOM     12  C   UNL     1      -5.893   1.010  -1.555  0.00  0.00    +0.000 A 
ATOM     13  C   UNL     1      -7.167   0.555  -1.195  0.00  0.00    +0.000 A 
ATOM     14  C   UNL     1      -7.868  -0.312  -2.036  0.00  0.00    +0.000 A 
ATOM     15  C   UNL     1      -7.304  -0.721  -3.243  0.00  0.00    +0.000 A 
ATOM     16  C   UNL     1      -6.042  -0.261  -3.614  0.00  0.00    +0.000 A 
ATOM     17  C   UNL     1      -5.339   0.606  -2.775  0.00  0.00    +0.000 A 
ENDBRANCH  11  12
ENDBRANCH   1  10
TORSDOF 3
