REMARK  Name = *****
REMARK  6 active torsions:
REMARK  status: ('A' for Active; 'I' for Inactive)
REMARK    1  A    between atoms: C_1  and  C_2
REMARK    2  A    between atoms: C_5  and  S_8
REMARK    3  A    between atoms: S_8  and  C_9
REMARK    4  A    between atoms: C_9  and  C_11
REMARK    5  A    between atoms: C_14  and  O_17
REMARK    6  A    between atoms: O_17  and  C_18
REMARK                            x       y       z     vdW  Elec       q    Type
REMARK                         _______ _______ _______ _____ _____    ______ ____
ROOT
ATOM      1  C   UNL     1      -4.101   1.706   0.070  0.00  0.00    +0.000 C 
ATOM      2  O   UNL     1      -5.276   1.902   0.356  0.00  0.00    +0.000 OA
ENDROOT
BRANCH   1   3
ATOM      3  C   UNL     1      -3.250   2.839  -0.421  0.00  0.00    +0.000 A 
ATOM      4  C   UNL     1      -3.890   4.036  -0.781  0.00  0.00    +0.000 A 
ATOM      5  C   UNL     1      -3.156   5.130  -1.262  0.00  0.00    +0.000 A 
ATOM      6  C   UNL     1      -1.771   5.042  -1.389  0.00  0.00    +0.000 A 
ATOM      7  C   UNL     1      -1.126   3.866  -1.007  0.00  0.00    +0.000 A 
ATOM      8  C   UNL     1      -1.854   2.770  -0.529  0.00  0.00    +0.000 A 
BRANCH   6   9
ATOM      9  O   UNL     1      -0.940   6.023  -1.852  0.00  0.00    +0.000 OA
ATOM     10  C   UNL     1      -1.555   7.134  -2.490  0.00  0.00    +0.000 C 
ENDBRANCH   6   9
ENDBRANCH   1   3
BRANCH   1  11
ATOM     11  S   UNL     1      -3.331   0.137   0.246  0.00  0.00    +0.000 S 
BRANCH  11  16
ATOM     12  C   UNL     1      -7.297  -4.431  -0.587  0.00  0.00    +0.000 C 
ATOM     13  C   UNL     1      -6.362  -3.278  -0.368  0.00  0.00    +0.000 A 
ATOM     14  C   UNL     1      -6.721  -1.981  -0.748  0.00  0.00    +0.000 A 
ATOM     15  C   UNL     1      -5.833  -0.911  -0.572  0.00  0.00    +0.000 A 
ATOM     16  C   UNL     1      -4.573  -1.114  -0.008  0.00  0.00    +0.000 A 
ATOM     17  C   UNL     1      -4.211  -2.422   0.347  0.00  0.00    +0.000 A 
ATOM     18  C   UNL     1      -5.090  -3.494   0.164  0.00  0.00    +0.000 A 
ENDBRANCH  11  16
ENDBRANCH   1  11
TORSDOF 4
