REMARK  Name = *****
REMARK  4 active torsions:
REMARK  status: ('A' for Active; 'I' for Inactive)
REMARK    1  A    between atoms: C_1  and  C_2
REMARK    2  A    between atoms: C_5  and  S_7
REMARK    3  A    between atoms: S_7  and  C_8
REMARK    4  A    between atoms: C_8  and  C_9
REMARK                            x       y       z     vdW  Elec       q    Type
REMARK                         _______ _______ _______ _____ _____    ______ ____
ROOT
ATOM      1  S   UNL     1       2.535   2.194   0.095  0.00  0.00    +0.000 S 
ENDROOT
BRANCH   1   6
ATOM      2  C   UNL     1      -2.210  -0.283   0.012  0.00  0.00    +0.000 C 
ATOM      3  C   UNL     1      -0.753  -0.020   0.003  0.00  0.00    +0.000 A 
ATOM      4  C   UNL     1       0.268  -0.942  -0.081  0.00  0.00    +0.000 A 
ATOM      5  O   UNL     1       1.477  -0.327  -0.060  0.00  0.00    +0.000 OA
ATOM      6  C   UNL     1       1.253   1.016   0.037  0.00  0.00    +0.000 A 
ATOM      7  C   UNL     1      -0.107   1.246   0.078  0.00  0.00    +0.000 A 
ENDBRANCH   1   6
BRANCH   1   8
ATOM      8  C   UNL     1       3.990   1.111   0.003  0.00  0.00    +0.000 C 
BRANCH   8   9
ATOM      9  C   UNL     1       5.273   1.904   0.034  0.00  0.00    +0.000 A 
ATOM     10  C   UNL     1       5.892   2.212   1.255  0.00  0.00    +0.000 A 
ATOM     11  C   UNL     1       7.073   2.955   1.283  0.00  0.00    +0.000 A 
ATOM     12  C   UNL     1       7.644   3.403   0.094  0.00  0.00    +0.000 A 
ATOM     13  C   UNL     1       7.035   3.111  -1.125  0.00  0.00    +0.000 A 
ATOM     14  C   UNL     1       5.854   2.368  -1.156  0.00  0.00    +0.000 A 
ENDBRANCH   8   9
ENDBRANCH   1   8
TORSDOF 3
