REMARK  Name = *****
REMARK  6 active torsions:
REMARK  status: ('A' for Active; 'I' for Inactive)
REMARK    1  A    between atoms: C_1  and  C_2
REMARK    2  A    between atoms: C_2  and  O_3
REMARK    3  A    between atoms: O_3  and  C_4
REMARK    4  A    between atoms: C_7  and  C_17
REMARK    5  A    between atoms: C_8  and  C_9
REMARK    6  A    between atoms: C_10  and  C_11
REMARK                            x       y       z     vdW  Elec       q    Type
REMARK                         _______ _______ _______ _____ _____    ______ ____
ROOT
ATOM      1  C   UNL     1       4.363  -1.436   0.910  0.00  0.00    +0.000 A 
ATOM      2  N   UNL     1       4.945  -2.566   0.500  0.00  0.00    +0.000 NA
ATOM      3  O   UNL     1       6.304  -2.352   0.654  0.00  0.00    +0.000 OA
ATOM      4  C   UNL     1       6.515  -1.101   1.150  0.00  0.00    +0.000 A 
ATOM      5  C   UNL     1       5.304  -0.468   1.333  0.00  0.00    +0.000 A 
ATOM      6  C   UNL     1       7.925  -0.724   1.371  0.00  0.00    +0.000 C 
ENDROOT
BRANCH   5   7
ATOM      7  C   UNL     1       5.143   0.858   1.840  0.00  0.00    +0.000 C 
ATOM      8  C   UNL     1       3.978   1.508   2.006  0.00  0.00    +0.000 C 
BRANCH   8   9
ATOM      9  C   UNL     1       3.876   2.872   2.543  0.00  0.00    +0.000 A 
ATOM     10  C   UNL     1       4.745   3.898   2.147  0.00  0.00    +0.000 A 
ATOM     11  C   UNL     1       4.597   5.190   2.659  0.00  0.00    +0.000 A 
ATOM     12  C   UNL     1       3.574   5.470   3.562  0.00  0.00    +0.000 A 
ATOM     13  C   UNL     1       2.694   4.462   3.950  0.00  0.00    +0.000 A 
ATOM     14  C   UNL     1       2.841   3.171   3.438  0.00  0.00    +0.000 A 
ENDBRANCH   8   9
ENDBRANCH   5   7
BRANCH   1  15
ATOM     15  O   UNL     1       3.015  -1.300   0.897  0.00  0.00    +0.000 OA
BRANCH  15  17
ATOM     16  C   UNL     1       0.822  -2.124   0.475  0.00  0.00    +0.000 C 
ATOM     17  C   UNL     1       2.306  -2.442   0.419  0.00  0.00    +0.000 C 
ENDBRANCH  15  17
ENDBRANCH   1  15
TORSDOF 4
