REMARK  Name = *****
REMARK  3 active torsions:
REMARK  status: ('A' for Active; 'I' for Inactive)
REMARK    1  A    between atoms: C_6  and  C_8
REMARK    2  A    between atoms: C_8  and  C_9
REMARK    3  A    between atoms: C_10  and  C_11
REMARK                            x       y       z     vdW  Elec       q    Type
REMARK                         _______ _______ _______ _____ _____    ______ ____
ROOT
ATOM      1  C   UNL     1       0.142  -1.417  -1.874  0.00  0.00    +0.000 C 
ENDROOT
BRANCH   1   7
ATOM      2  C   UNL     1      -2.006   0.077  -0.037  0.00  0.00    +0.000 C 
ATOM      3  C   UNL     1      -1.234   1.325   0.385  0.00  0.00    +0.000 C 
ATOM      4  C   UNL     1       0.147   1.383  -0.252  0.00  0.00    +0.000 C 
ATOM      5  C   UNL     1       0.897   0.095   0.008  0.00  0.00    +0.000 C 
ATOM      6  O   UNL     1       2.051   0.099   0.437  0.00  0.00    +0.000 OA
ATOM      7  C   UNL     1       0.188  -1.203  -0.353  0.00  0.00    +0.000 C 
ATOM      8  C   UNL     1      -1.214  -1.194   0.274  0.00  0.00    +0.000 C 
ENDBRANCH   1   7
BRANCH   1   9
ATOM      9  C   UNL     1       1.511  -1.523  -2.490  0.00  0.00    +0.000 C 
ATOM     10  C   UNL     1       1.916  -0.767  -3.523  0.00  0.00    +0.000 C 
BRANCH  10  11
ATOM     11  C   UNL     1       3.223  -0.871  -4.084  0.00  0.00    +0.000 A 
ATOM     12  C   UNL     1       4.375  -1.473  -3.602  0.00  0.00    +0.000 A 
ATOM     13  C   UNL     1       5.489  -1.345  -4.482  0.00  0.00    +0.000 A 
ATOM     14  C   UNL     1       5.167  -0.643  -5.618  0.00  0.00    +0.000 A 
ATOM     15  S   UNL     1       3.537  -0.138  -5.616  0.00  0.00    +0.000 S 
ENDBRANCH  10  11
ENDBRANCH   1   9
TORSDOF 3
