REMARK  Name = *****
REMARK  3 active torsions:
REMARK  status: ('A' for Active; 'I' for Inactive)
REMARK    1  A    between atoms: C_3  and  C_8
REMARK    2  A    between atoms: C_8  and  C_10
REMARK    3  A    between atoms: C_10  and  C_11
REMARK                            x       y       z     vdW  Elec       q    Type
REMARK                         _______ _______ _______ _____ _____    ______ ____
ROOT
ATOM      1  C   UNL     1      -1.914   2.408  -0.112  0.00  0.00    +0.000 C 
ATOM      2  O   UNL     1      -2.122   1.869  -1.199  0.00  0.00    +0.000 OA
ENDROOT
BRANCH   1   5
ATOM      3  C   UNL     1      -2.851  -0.444   2.188  0.00  0.00    +0.000 A 
ATOM      4  C   UNL     1      -2.522   0.296   1.050  0.00  0.00    +0.000 A 
ATOM      5  C   UNL     1      -2.267   1.675   1.140  0.00  0.00    +0.000 A 
ATOM      6  C   UNL     1      -2.357   2.306   2.383  0.00  0.00    +0.000 A 
ATOM      7  C   UNL     1      -2.689   1.557   3.509  0.00  0.00    +0.000 A 
ATOM      8  C   UNL     1      -2.934   0.191   3.424  0.00  0.00    +0.000 A 
ATOM      9  F   UNL     1      -2.775   2.167   4.698  0.00  0.00    +0.000 F 
ENDBRANCH   1   5
BRANCH   1  10
ATOM     10  C   UNL     1      -1.296   3.792  -0.029  0.00  0.00    +0.000 C 
BRANCH  10  11
ATOM     11  C   UNL     1      -2.295   4.920   0.082  0.00  0.00    +0.000 A 
ATOM     12  C   UNL     1      -2.041   5.995   0.948  0.00  0.00    +0.000 A 
ATOM     13  C   UNL     1      -2.938   7.062   1.039  0.00  0.00    +0.000 A 
ATOM     14  C   UNL     1      -4.089   7.068   0.256  0.00  0.00    +0.000 A 
ATOM     15  C   UNL     1      -4.347   6.019  -0.623  0.00  0.00    +0.000 A 
ATOM     16  C   UNL     1      -3.449   4.953  -0.715  0.00  0.00    +0.000 A 
ATOM     17 CL   UNL     1      -5.191   8.384   0.366  0.00  0.00    +0.000 Cl
ENDBRANCH  10  11
ENDBRANCH   1  10
TORSDOF 3
