REMARK  Name = *****
REMARK  4 active torsions:
REMARK  status: ('A' for Active; 'I' for Inactive)
REMARK    1  A    between atoms: C_4  and  C_7
REMARK    2  A    between atoms: C_7  and  O_8
REMARK    3  A    between atoms: O_8  and  C_9
REMARK    4  A    between atoms: C_13  and  C_15
REMARK                            x       y       z     vdW  Elec       q    Type
REMARK                         _______ _______ _______ _____ _____    ______ ____
ROOT
ATOM      1  C   UNL     1      -4.879  -0.740  -0.553  0.00  0.00    +0.000 A 
ATOM      2  C   UNL     1      -5.570   0.337  -1.107  0.00  0.00    +0.000 A 
ATOM      3  C   UNL     1      -6.910   0.194  -1.477  0.00  0.00    +0.000 A 
ATOM      4  C   UNL     1      -7.565  -1.024  -1.295  0.00  0.00    +0.000 A 
ATOM      5  C   UNL     1      -6.888  -2.113  -0.733  0.00  0.00    +0.000 A 
ATOM      6  C   UNL     1      -5.541  -1.958  -0.372  0.00  0.00    +0.000 A 
ENDROOT
BRANCH   5   7
ATOM      7  C   UNL     1      -7.572  -3.443  -0.564  0.00  0.00    +0.000 C 
ATOM      8  F   UNL     1      -7.168  -4.114   0.551  0.00  0.00    +0.000 F 
ATOM      9  F   UNL     1      -8.927  -3.340  -0.461  0.00  0.00    +0.000 F 
ENDBRANCH   5   7
BRANCH   1  10
ATOM     10  O   UNL     1      -3.571  -0.741  -0.154  0.00  0.00    +0.000 OA
BRANCH  10  11
ATOM     11  C   UNL     1      -2.849   0.484  -0.286  0.00  0.00    +0.000 C 
BRANCH  11  15
ATOM     12  C   UNL     1       1.237  -0.074   0.996  0.00  0.00    +0.000 A 
ATOM     13  C   UNL     1       0.661  -0.968   0.097  0.00  0.00    +0.000 A 
ATOM     14  C   UNL     1      -0.663  -0.793  -0.311  0.00  0.00    +0.000 A 
ATOM     15  C   UNL     1      -1.427   0.275   0.182  0.00  0.00    +0.000 A 
ATOM     16  C   UNL     1      -0.832   1.172   1.081  0.00  0.00    +0.000 A 
ATOM     17  C   UNL     1       0.492   0.996   1.488  0.00  0.00    +0.000 A 
ENDBRANCH  11  15
ENDBRANCH  10  11
ENDBRANCH   1  10
TORSDOF 4
