REMARK  Name = *****
REMARK  5 active torsions:
REMARK  status: ('A' for Active; 'I' for Inactive)
REMARK    1  A    between atoms: C_4  and  C_7
REMARK    2  A    between atoms: C_7  and  C_8
REMARK    3  A    between atoms: C_8  and  C_9
REMARK    4  A    between atoms: C_8  and  C_12
REMARK    5  A    between atoms: C_9  and  C_10
REMARK                            x       y       z     vdW  Elec       q    Type
REMARK                         _______ _______ _______ _____ _____    ______ ____
ROOT
ATOM      1  C   UNL     1      -3.665  -0.810   0.037  0.00  0.00    +0.000 C 
ENDROOT
BRANCH   1   2
ATOM      2  C   UNL     1      -5.135  -0.597  -0.312  0.00  0.00    +0.000 A 
ATOM      3  C   UNL     1      -5.832  -1.602  -1.004  0.00  0.00    +0.000 A 
ATOM      4  C   UNL     1      -7.183  -1.449  -1.321  0.00  0.00    +0.000 A 
ATOM      5  C   UNL     1      -7.860  -0.291  -0.948  0.00  0.00    +0.000 A 
ATOM      6  C   UNL     1      -7.186   0.711  -0.256  0.00  0.00    +0.000 A 
ATOM      7  C   UNL     1      -5.834   0.559   0.062  0.00  0.00    +0.000 A 
ENDBRANCH   1   2
BRANCH   1   8
ATOM      8  C   UNL     1      -2.780   0.424  -0.259  0.00  0.00    +0.000 C 
BRANCH   8  12
ATOM      9  C   UNL     1       1.432  -0.326   0.310  0.00  0.00    +0.000 A 
ATOM     10  C   UNL     1       0.775  -0.854  -0.800  0.00  0.00    +0.000 A 
ATOM     11  C   UNL     1      -0.585  -0.608  -0.991  0.00  0.00    +0.000 A 
ATOM     12  C   UNL     1      -1.302   0.168  -0.069  0.00  0.00    +0.000 A 
ATOM     13  C   UNL     1      -0.630   0.696   1.042  0.00  0.00    +0.000 A 
ATOM     14  C   UNL     1       0.730   0.449   1.230  0.00  0.00    +0.000 A 
ENDBRANCH   8  12
ENDBRANCH   1   8
BRANCH   1  15
ATOM     15  C   UNL     1      -3.511  -1.414   1.444  0.00  0.00    +0.000 C 
BRANCH  15  16
ATOM     16  C   UNL     1      -3.826  -0.516   2.618  0.00  0.00    +0.000 C 
ATOM     17  O   UNL     1      -3.816   0.710   2.604  0.00  0.00    +0.000 OA
ENDBRANCH  15  16
ENDBRANCH   1  15
TORSDOF 5
