REMARK  Name = *****
REMARK  3 active torsions:
REMARK  status: ('A' for Active; 'I' for Inactive)
REMARK    1  A    between atoms: C_4  and  C_7
REMARK    2  A    between atoms: C_7  and  C_8
REMARK    3  A    between atoms: C_8  and  C_9
REMARK                            x       y       z     vdW  Elec       q    Type
REMARK                         _______ _______ _______ _____ _____    ______ ____
ROOT
ATOM      1  C   UNL     1      -3.598  -0.856  -0.333  0.00  0.00    +0.000 C 
ENDROOT
BRANCH   1   2
ATOM      2  C   UNL     1      -5.078  -0.614  -0.497  0.00  0.00    +0.000 A 
ATOM      3  C   UNL     1      -5.628  -0.415  -1.771  0.00  0.00    +0.000 A 
ATOM      4  C   UNL     1      -6.995  -0.172  -1.913  0.00  0.00    +0.000 A 
ATOM      5  C   UNL     1      -7.826  -0.120  -0.795  0.00  0.00    +0.000 A 
ATOM      6  C   UNL     1      -7.284  -0.312   0.475  0.00  0.00    +0.000 A 
ATOM      7  C   UNL     1      -5.917  -0.555   0.625  0.00  0.00    +0.000 A 
ATOM      8 BR   UNL     1      -7.726   0.092  -3.637  0.00  0.00    +0.000 Br
ENDBRANCH   1   2
BRANCH   1   9
ATOM      9  C   UNL     1      -2.824   0.458  -0.190  0.00  0.00    +0.000 C 
BRANCH   9  13
ATOM     10  C   UNL     1       1.399  -0.282   0.271  0.00  0.00    +0.000 A 
ATOM     11  C   UNL     1       0.858  -0.102  -1.000  0.00  0.00    +0.000 A 
ATOM     12  C   UNL     1      -0.508   0.143  -1.150  0.00  0.00    +0.000 A 
ATOM     13  C   UNL     1      -1.344   0.215  -0.027  0.00  0.00    +0.000 A 
ATOM     14  C   UNL     1      -0.790   0.027   1.246  0.00  0.00    +0.000 A 
ATOM     15  C   UNL     1       0.576  -0.218   1.394  0.00  0.00    +0.000 A 
ENDBRANCH   9  13
ENDBRANCH   1   9
TORSDOF 3
