REMARK  Name = *****
REMARK  3 active torsions:
REMARK  status: ('A' for Active; 'I' for Inactive)
REMARK    1  A    between atoms: C_1  and  C_2
REMARK    2  A    between atoms: C_5  and  S_8
REMARK    3  A    between atoms: S_8  and  C_9
REMARK                            x       y       z     vdW  Elec       q    Type
REMARK                         _______ _______ _______ _____ _____    ______ ____
ROOT
ATOM      1  S   UNL     1      -3.166   0.354  -0.668  0.00  0.00    +0.000 S 
ENDROOT
BRANCH   1   6
ATOM      2  C   UNL     1      -3.821  -4.524   2.925  0.00  0.00    +0.000 C 
ATOM      3  C   UNL     1      -3.657  -3.342   2.016  0.00  0.00    +0.000 A 
ATOM      4  C   UNL     1      -4.734  -2.883   1.249  0.00  0.00    +0.000 A 
ATOM      5  C   UNL     1      -4.590  -1.762   0.426  0.00  0.00    +0.000 A 
ATOM      6  C   UNL     1      -3.374  -1.077   0.373  0.00  0.00    +0.000 A 
ATOM      7  C   UNL     1      -2.298  -1.532   1.138  0.00  0.00    +0.000 A 
ATOM      8  C   UNL     1      -2.441  -2.652   1.963  0.00  0.00    +0.000 A 
ENDBRANCH   1   6
BRANCH   1   9
ATOM      9  C   UNL     1      -4.308   1.513   0.167  0.00  0.00    +0.000 C 
ATOM     10  C   UNL     1      -4.358   2.908  -0.533  0.00  0.00    +0.000 C 
ATOM     11  C   UNL     1      -4.115   3.886   0.639  0.00  0.00    +0.000 C 
ATOM     12  C   UNL     1      -4.794   3.154   1.799  0.00  0.00    +0.000 C 
ATOM     13  C   UNL     1      -3.940   1.889   1.630  0.00  0.00    +0.000 C 
ATOM     14  C   UNL     1      -2.573   2.539   1.681  0.00  0.00    +0.000 C 
ATOM     15  C   UNL     1      -2.678   3.733   1.079  0.00  0.00    +0.000 C 
ENDBRANCH   1   9
TORSDOF 2
