REMARK  Name = *****
REMARK  3 active torsions:
REMARK  status: ('A' for Active; 'I' for Inactive)
REMARK    1  A    between atoms: C_4  and  C_8
REMARK    2  A    between atoms: C_8  and  C_9
REMARK    3  A    between atoms: C_10  and  C_11
REMARK                            x       y       z     vdW  Elec       q    Type
REMARK                         _______ _______ _______ _____ _____    ______ ____
ROOT
ATOM      1  C   UNL     1      -1.098  -1.588   1.556  0.00  0.00    +0.000 C 
ENDROOT
BRANCH   1   5
ATOM      2  C   UNL     1       0.647   1.511   0.036  0.00  0.00    +0.000 C 
ATOM      3  C   UNL     1       1.445   0.404   0.714  0.00  0.00    +0.000 C 
ATOM      4  S   UNL     1       1.202  -1.208  -0.081  0.00  0.00    +0.000 S 
ATOM      5  C   UNL     1      -0.614  -1.388   0.107  0.00  0.00    +0.000 C 
ATOM      6  S   UNL     1      -1.510  -0.045  -0.760  0.00  0.00    +0.000 S 
ATOM      7  O   UNL     1      -2.971  -0.167  -0.442  0.00  0.00    +0.000 OA
ATOM      8  C   UNL     1      -0.857   1.354   0.187  0.00  0.00    +0.000 C 
ENDBRANCH   1   5
BRANCH   1   9
ATOM      9  C   UNL     1      -0.515  -2.808   2.224  0.00  0.00    +0.000 C 
ATOM     10  C   UNL     1       0.163  -2.771   3.382  0.00  0.00    +0.000 C 
BRANCH  10  11
ATOM     11  C   UNL     1       0.732  -3.961   4.025  0.00  0.00    +0.000 A 
ATOM     12  C   UNL     1       1.444  -4.924   3.298  0.00  0.00    +0.000 A 
ATOM     13  C   UNL     1       2.002  -6.031   3.943  0.00  0.00    +0.000 A 
ATOM     14  C   UNL     1       1.861  -6.179   5.321  0.00  0.00    +0.000 A 
ATOM     15  C   UNL     1       1.167  -5.220   6.056  0.00  0.00    +0.000 A 
ATOM     16  C   UNL     1       0.611  -4.112   5.411  0.00  0.00    +0.000 A 
ENDBRANCH  10  11
ENDBRANCH   1   9
TORSDOF 3
