REMARK  Name = *****
REMARK  3 active torsions:
REMARK  status: ('A' for Active; 'I' for Inactive)
REMARK    1  A    between atoms: C_6  and  C_7
REMARK    2  A    between atoms: C_7  and  O_9
REMARK    3  A    between atoms: O_9  and  C_10
REMARK                            x       y       z     vdW  Elec       q    Type
REMARK                         _______ _______ _______ _____ _____    ______ ____
ROOT
ATOM      1  C   UNL     1      -3.227   0.232  -0.517  0.00  0.00    +0.000 C 
ATOM      2  O   UNL     1      -4.020  -0.676  -0.324  0.00  0.00    +0.000 OA
ENDROOT
BRANCH   1   8
ATOM      3  C   UNL     1      -0.882   1.200  -0.384  0.00  0.00    +0.000 A 
ATOM      4  C   UNL     1       0.463   1.061  -0.030  0.00  0.00    +0.000 A 
ATOM      5  C   UNL     1       0.899  -0.115   0.571  0.00  0.00    +0.000 A 
ATOM      6  C   UNL     1       0.016  -1.157   0.828  0.00  0.00    +0.000 A 
ATOM      7  C   UNL     1      -1.329  -1.023   0.476  0.00  0.00    +0.000 A 
ATOM      8  C   UNL     1      -1.788   0.156  -0.135  0.00  0.00    +0.000 A 
ATOM      9  F   UNL     1       2.189  -0.246   0.903  0.00  0.00    +0.000 F 
ENDBRANCH   1   8
BRANCH   1  10
ATOM     10  O   UNL     1      -3.484   1.453  -1.115  0.00  0.00    +0.000 OA
BRANCH  10  11
ATOM     11  C   UNL     1      -4.757   1.628  -1.678  0.00  0.00    +0.000 A 
ATOM     12  C   UNL     1      -5.234   0.768  -2.670  0.00  0.00    +0.000 A 
ATOM     13  C   UNL     1      -6.466   1.034  -3.267  0.00  0.00    +0.000 A 
ATOM     14  C   UNL     1      -7.190   2.158  -2.877  0.00  0.00    +0.000 A 
ATOM     15  C   UNL     1      -6.706   3.024  -1.900  0.00  0.00    +0.000 A 
ATOM     16  C   UNL     1      -5.475   2.763  -1.298  0.00  0.00    +0.000 A 
ATOM     17  F   UNL     1      -8.367   2.417  -3.461  0.00  0.00    +0.000 F 
ENDBRANCH  10  11
ENDBRANCH   1  10
TORSDOF 3
