REMARK  Name = *****
REMARK  3 active torsions:
REMARK  status: ('A' for Active; 'I' for Inactive)
REMARK    1  A    between atoms: C_3  and  N_8
REMARK    2  A    between atoms: N_8  and  N_9
REMARK    3  A    between atoms: N_9  and  C_11
REMARK                            x       y       z     vdW  Elec       q    Type
REMARK                         _______ _______ _______ _____ _____    ______ ____
ROOT
ATOM      1  N   UNL     1       2.159   2.574  -0.073  0.00  0.00    +0.000 N 
ATOM      2  H   UNL     1       3.143   2.563  -0.049  0.00  0.00    +0.000 HD
ENDROOT
BRANCH   1   5
ATOM      3  C   UNL     1       1.849  -1.115   0.172  0.00  0.00    +0.000 A 
ATOM      4  C   UNL     1       2.380   0.177   0.128  0.00  0.00    +0.000 A 
ATOM      5  C   UNL     1       1.554   1.306  -0.020  0.00  0.00    +0.000 A 
ATOM      6  C   UNL     1       0.177   1.096  -0.140  0.00  0.00    +0.000 A 
ATOM      7  C   UNL     1      -0.355  -0.196  -0.095  0.00  0.00    +0.000 A 
ATOM      8  C   UNL     1       0.475  -1.302   0.062  0.00  0.00    +0.000 A 
ATOM      9 CL   UNL     1      -2.055  -0.427  -0.239  0.00  0.00    +0.000 Cl
ENDBRANCH   1   5
BRANCH   1  10
ATOM     10  N   UNL     1       1.580   3.868  -0.156  0.00  0.00    +0.000 N 
ATOM     11  O   UNL     1       0.378   4.041  -0.172  0.00  0.00    +0.000 OA
BRANCH  10  12
ATOM     12  C   UNL     1       2.434   5.039  -0.171  0.00  0.00    +0.000 A 
ATOM     13  C   UNL     1       3.628   5.027  -0.900  0.00  0.00    +0.000 A 
ATOM     14  C   UNL     1       4.437   6.163  -0.893  0.00  0.00    +0.000 A 
ATOM     15  C   UNL     1       4.063   7.300  -0.176  0.00  0.00    +0.000 A 
ATOM     16  C   UNL     1       2.864   7.310   0.539  0.00  0.00    +0.000 A 
ATOM     17  C   UNL     1       2.045   6.180   0.541  0.00  0.00    +0.000 A 
ATOM     18 CL   UNL     1       5.911   6.161  -1.781  0.00  0.00    +0.000 Cl
ENDBRANCH  10  12
ENDBRANCH   1  10
TORSDOF 3
