REMARK  Name = *****
REMARK  3 active torsions:
REMARK  status: ('A' for Active; 'I' for Inactive)
REMARK    1  A    between atoms: C_4  and  S_7
REMARK    2  A    between atoms: S_7  and  C_8
REMARK    3  A    between atoms: C_8  and  C_10
REMARK                            x       y       z     vdW  Elec       q    Type
REMARK                         _______ _______ _______ _____ _____    ______ ____
ROOT
ATOM      1  S   UNL     1      -3.193   0.201  -0.703  0.00  0.00    +0.000 S 
ENDROOT
BRANCH   1   5
ATOM      2  C   UNL     1       1.278  -0.201   0.208  0.00  0.00    +0.000 A 
ATOM      3  C   UNL     1       0.568  -1.300  -0.274  0.00  0.00    +0.000 A 
ATOM      4  C   UNL     1      -0.797  -1.186  -0.545  0.00  0.00    +0.000 A 
ATOM      5  C   UNL     1      -1.462   0.025  -0.325  0.00  0.00    +0.000 A 
ATOM      6  C   UNL     1      -0.742   1.126   0.148  0.00  0.00    +0.000 A 
ATOM      7  C   UNL     1       0.624   1.012   0.418  0.00  0.00    +0.000 A 
ENDBRANCH   1   5
BRANCH   1   8
ATOM      8  C   UNL     1      -3.963  -0.723   0.599  0.00  0.00    +0.000 C 
ATOM      9  O   UNL     1      -3.296  -1.384   1.388  0.00  0.00    +0.000 OA
BRANCH   8  10
ATOM     10  C   UNL     1      -5.420  -0.621   0.615  0.00  0.00    +0.000 A 
ATOM     11  C   UNL     1      -6.305   0.079  -0.192  0.00  0.00    +0.000 A 
ATOM     12  C   UNL     1      -7.669  -0.108   0.183  0.00  0.00    +0.000 A 
ATOM     13  C   UNL     1      -7.794  -0.945   1.265  0.00  0.00    +0.000 A 
ATOM     14  S   UNL     1      -6.280  -1.499   1.824  0.00  0.00    +0.000 S 
ENDBRANCH   8  10
ENDBRANCH   1   8
TORSDOF 3
