REMARK  Name = *****
REMARK  4 active torsions:
REMARK  status: ('A' for Active; 'I' for Inactive)
REMARK    1  A    between atoms: C_1  and  C_2
REMARK    2  A    between atoms: C_6  and  O_7
REMARK    3  A    between atoms: O_7  and  C_8
REMARK    4  A    between atoms: C_8  and  C_10
REMARK                            x       y       z     vdW  Elec       q    Type
REMARK                         _______ _______ _______ _____ _____    ______ ____
ROOT
ATOM      1  C   UNL     1       1.529   2.767   0.049  0.00  0.00    +0.000 C 
ATOM      2  O   UNL     1       0.533   2.071   0.166  0.00  0.00    +0.000 OA
ENDROOT
BRANCH   1   3
ATOM      3  C   UNL     1       1.443   4.237  -0.156  0.00  0.00    +0.000 A 
ATOM      4  C   UNL     1       2.499   5.105   0.153  0.00  0.00    +0.000 A 
ATOM      5  C   UNL     1       2.356   6.479  -0.056  0.00  0.00    +0.000 A 
ATOM      6  C   UNL     1       1.165   6.990  -0.572  0.00  0.00    +0.000 A 
ATOM      7  C   UNL     1       0.109   6.131  -0.876  0.00  0.00    +0.000 A 
ATOM      8  C   UNL     1       0.245   4.759  -0.664  0.00  0.00    +0.000 A 
ENDBRANCH   1   3
BRANCH   1   9
ATOM      9  O   UNL     1       2.836   2.381   0.006  0.00  0.00    +0.000 OA
BRANCH   9  15
ATOM     10  C   UNL     1       5.644   1.639  -0.471  0.00  0.00    +0.000 C 
ATOM     11  C   UNL     1       4.574   0.669  -0.124  0.00  0.00    +0.000 C 
ATOM     12  C   UNL     1       4.690  -0.664   0.022  0.00  0.00    +0.000 C 
ATOM     13  C   UNL     1       3.357  -1.259   0.371  0.00  0.00    +0.000 C 
ATOM     14  C   UNL     1       2.469  -0.052   0.403  0.00  0.00    +0.000 C 
ATOM     15  C   UNL     1       3.193   1.041   0.109  0.00  0.00    +0.000 C 
ENDBRANCH   9  15
ENDBRANCH   1   9
TORSDOF 3
