REMARK  Name = *****
REMARK  3 active torsions:
REMARK  status: ('A' for Active; 'I' for Inactive)
REMARK    1  A    between atoms: C_4  and  S_7
REMARK    2  A    between atoms: S_7  and  S_10
REMARK    3  A    between atoms: S_10  and  C_11
REMARK                            x       y       z     vdW  Elec       q    Type
REMARK                         _______ _______ _______ _____ _____    ______ ____
ROOT
ATOM      1  S   UNL     1      -3.198   0.521  -0.260  0.00  0.00    +0.000 S 
ATOM      2  O   UNL     1      -3.604   1.156   0.979  0.00  0.00    +0.000 OA
ATOM      3  O   UNL     1      -3.399   1.167  -1.542  0.00  0.00    +0.000 OA
ENDROOT
BRANCH   1   7
ATOM      4  C   UNL     1       1.244  -0.462   0.032  0.00  0.00    +0.000 A 
ATOM      5  C   UNL     1       0.576   0.053   1.144  0.00  0.00    +0.000 A 
ATOM      6  C   UNL     1      -0.784   0.355   1.065  0.00  0.00    +0.000 A 
ATOM      7  C   UNL     1      -1.467   0.133  -0.134  0.00  0.00    +0.000 A 
ATOM      8  C   UNL     1      -0.798  -0.367  -1.257  0.00  0.00    +0.000 A 
ATOM      9  C   UNL     1       0.560  -0.670  -1.167  0.00  0.00    +0.000 A 
ENDBRANCH   1   7
BRANCH   1  10
ATOM     10  S   UNL     1      -4.098  -1.371  -0.327  0.00  0.00    +0.000 S 
BRANCH  10  11
ATOM     11  C   UNL     1      -5.802  -0.951  -0.622  0.00  0.00    +0.000 A 
ATOM     12  C   UNL     1      -6.403  -1.307  -1.836  0.00  0.00    +0.000 A 
ATOM     13  C   UNL     1      -7.750  -1.015  -2.070  0.00  0.00    +0.000 A 
ATOM     14  C   UNL     1      -8.500  -0.371  -1.088  0.00  0.00    +0.000 A 
ATOM     15  C   UNL     1      -7.913  -0.016   0.125  0.00  0.00    +0.000 A 
ATOM     16  C   UNL     1      -6.567  -0.310   0.359  0.00  0.00    +0.000 A 
ATOM     17 CL   UNL     1     -10.159  -0.018  -1.371  0.00  0.00    +0.000 Cl
ENDBRANCH  10  11
ENDBRANCH   1  10
TORSDOF 3
