REMARK  Name = *****
REMARK  4 active torsions:
REMARK  status: ('A' for Active; 'I' for Inactive)
REMARK    1  A    between atoms: C_4  and  C_7
REMARK    2  A    between atoms: C_7  and  C_8
REMARK    3  A    between atoms: C_8  and  C_12
REMARK    4  A    between atoms: C_15  and  C_18
REMARK                            x       y       z     vdW  Elec       q    Type
REMARK                         _______ _______ _______ _____ _____    ______ ____
ROOT
ATOM      1  C   UNL     1      -3.504  -0.956  -0.547  0.00  0.00    +0.000 C 
ATOM      2  C   UNL     1      -3.126  -2.199  -0.881  0.00  0.00    +0.000 C 
ATOM      3  F   UNL     1      -4.028  -3.201  -0.964  0.00  0.00    +0.000 F 
ATOM      4  F   UNL     1      -1.827  -2.462  -1.143  0.00  0.00    +0.000 F 
ENDROOT
BRANCH   1   5
ATOM      5  C   UNL     1      -4.923  -0.662  -0.278  0.00  0.00    +0.000 A 
ATOM      6  C   UNL     1      -5.566  -1.227   0.832  0.00  0.00    +0.000 A 
ATOM      7  C   UNL     1      -6.909  -0.941   1.098  0.00  0.00    +0.000 A 
ATOM      8  C   UNL     1      -7.623  -0.085   0.255  0.00  0.00    +0.000 A 
ATOM      9  C   UNL     1      -6.989   0.482  -0.855  0.00  0.00    +0.000 A 
ATOM     10  C   UNL     1      -5.646   0.196  -1.119  0.00  0.00    +0.000 A 
BRANCH   8  11
ATOM     11  C   UNL     1      -9.000   0.210   0.526  0.00  0.00    +0.000 C 
ATOM     12  N   UNL     1     -10.113   0.454   0.744  0.00  0.00    +0.000 NA
ENDBRANCH   8  11
ENDBRANCH   1   5
BRANCH   1  13
ATOM     13  C   UNL     1      -2.525   0.190  -0.479  0.00  0.00    +0.000 C 
BRANCH  13  17
ATOM     14  C   UNL     1      -1.616   1.309   3.590  0.00  0.00    +0.000 A 
ATOM     15  C   UNL     1      -0.904   0.283   2.972  0.00  0.00    +0.000 A 
ATOM     16  C   UNL     1      -1.194  -0.074   1.655  0.00  0.00    +0.000 A 
ATOM     17  C   UNL     1      -2.197   0.597   0.940  0.00  0.00    +0.000 A 
ATOM     18  C   UNL     1      -2.911   1.623   1.574  0.00  0.00    +0.000 A 
ATOM     19  C   UNL     1      -2.620   1.978   2.892  0.00  0.00    +0.000 A 
ENDBRANCH  13  17
ENDBRANCH   1  13
TORSDOF 4
