REMARK  Name = *****
REMARK  2 active torsions:
REMARK  status: ('A' for Active; 'I' for Inactive)
REMARK    1  A    between atoms: C_1  and  C_2
REMARK    2  A    between atoms: N_9  and  C_11
REMARK                            x       y       z     vdW  Elec       q    Type
REMARK                         _______ _______ _______ _____ _____    ______ ____
ROOT
ATOM      1  C   UNL     1       1.968  -0.198   0.534  0.00  0.00    +0.000 C 
ATOM      2  C   UNL     1       3.463  -0.088   0.210  0.00  0.00    +0.000 C 
ATOM      3  C   UNL     1       3.803   1.297  -0.372  0.00  0.00    +0.000 C 
ATOM      4  C   UNL     1       4.177   2.288   0.726  0.00  0.00    +0.000 C 
ATOM      5  C   UNL     1       5.402   1.833   1.521  0.00  0.00    +0.000 C 
ATOM      6  C   UNL     1       5.651   0.326   1.453  0.00  0.00    +0.000 C 
ATOM      7  C   UNL     1       4.335  -0.463   1.429  0.00  0.00    +0.000 C 
ATOM      8  C   UNL     1       4.573  -1.963   1.261  0.00  0.00    +0.000 C 
ATOM      9  N   UNL     1       4.394  -2.140  -0.188  0.00  0.00    +0.000 N 
ATOM     10  N   UNL     1       3.789  -1.116  -0.810  0.00  0.00    +0.000 NA
ENDROOT
BRANCH   9  11
ATOM     11  C   UNL     1       4.794  -3.288  -0.910  0.00  0.00    +0.000 A 
ATOM     12  C   UNL     1       5.386  -4.382  -0.259  0.00  0.00    +0.000 A 
ATOM     13  C   UNL     1       5.776  -5.510  -0.989  0.00  0.00    +0.000 A 
ATOM     14  C   UNL     1       5.577  -5.556  -2.366  0.00  0.00    +0.000 A 
ATOM     15  C   UNL     1       4.988  -4.479  -3.022  0.00  0.00    +0.000 A 
ATOM     16  C   UNL     1       4.595  -3.349  -2.299  0.00  0.00    +0.000 A 
ENDBRANCH   9  11
TORSDOF 1
