REMARK  Name = *****
REMARK  4 active torsions:
REMARK  status: ('A' for Active; 'I' for Inactive)
REMARK    1  A    between atoms: C_1  and  C_2
REMARK    2  A    between atoms: C_5  and  N_8
REMARK    3  A    between atoms: N_8  and  N_10
REMARK    4  A    between atoms: N_10  and  C_11
REMARK                            x       y       z     vdW  Elec       q    Type
REMARK                         _______ _______ _______ _____ _____    ______ ____
ROOT
ATOM      1  N   UNL     1      -3.214  -0.117   0.241  0.00  0.00    +0.000 N 
ATOM      2  O   UNL     1      -3.662  -1.166   0.660  0.00  0.00    +0.000 OA
ENDROOT
BRANCH   1   7
ATOM      3  C   UNL     1       2.493   0.408  -0.177  0.00  0.00    +0.000 C 
ATOM      4  C   UNL     1       0.999   0.281  -0.095  0.00  0.00    +0.000 A 
ATOM      5  C   UNL     1       0.374  -0.936  -0.400  0.00  0.00    +0.000 A 
ATOM      6  C   UNL     1      -1.010  -1.067  -0.288  0.00  0.00    +0.000 A 
ATOM      7  C   UNL     1      -1.776   0.023   0.136  0.00  0.00    +0.000 A 
ATOM      8  C   UNL     1      -1.163   1.235   0.468  0.00  0.00    +0.000 A 
ATOM      9  C   UNL     1       0.223   1.358   0.355  0.00  0.00    +0.000 A 
ENDBRANCH   1   7
BRANCH   1  10
ATOM     10  N   UNL     1      -4.055   0.941  -0.199  0.00  0.00    +0.000 N 
ATOM     11  H   UNL     1      -3.578   1.725  -0.556  0.00  0.00    +0.000 HD
BRANCH  10  12
ATOM     12  C   UNL     1      -5.454   1.052  -0.206  0.00  0.00    +0.000 A 
ATOM     13  C   UNL     1      -6.308   0.113   0.381  0.00  0.00    +0.000 A 
ATOM     14  C   UNL     1      -7.698   0.280   0.355  0.00  0.00    +0.000 A 
ATOM     15  C   UNL     1      -8.250   1.398  -0.260  0.00  0.00    +0.000 A 
ATOM     16  C   UNL     1      -7.424   2.350  -0.846  0.00  0.00    +0.000 A 
ATOM     17  C   UNL     1      -6.036   2.177  -0.815  0.00  0.00    +0.000 A 
ATOM     18 CL   UNL     1      -9.957   1.607  -0.292  0.00  0.00    +0.000 Cl
ENDBRANCH  10  12
ENDBRANCH   1  10
TORSDOF 3
