REMARK  Name = *****
REMARK  7 active torsions:
REMARK  status: ('A' for Active; 'I' for Inactive)
REMARK    1  A    between atoms: C_1  and  C_2
REMARK    2  A    between atoms: C_3  and  C_4
REMARK    3  A    between atoms: C_4  and  C_5
REMARK    4  A    between atoms: C_15  and  C_16
REMARK    5  A    between atoms: C_16  and  C_17
REMARK    6  A    between atoms: C_20  and  S_23
REMARK    7  A    between atoms: S_23  and  C_24
REMARK                            x       y       z     vdW  Elec       q    Type
REMARK                         _______ _______ _______ _____ _____    ______ ____
ROOT
ATOM      1  C   UNL     1       1.091  -0.538   0.023  0.00  0.00    +0.000 C 
ATOM      2  C   UNL     1       2.553  -0.234   0.018  0.00  0.00    +0.000 C 
ATOM      3  C   UNL     1       3.147   0.981   0.007  0.00  0.00    +0.000 C 
ATOM      4  C   UNL     1       4.605   0.772   0.014  0.00  0.00    +0.000 C 
ATOM      5  C   UNL     1       5.625   1.713   0.007  0.00  0.00    +0.000 C 
ATOM      6  C   UNL     1       6.938   1.255   0.005  0.00  0.00    +0.000 C 
ATOM      7  F   UNL     1       7.942   2.142  -0.001  0.00  0.00    +0.000 F 
ATOM      8  C   UNL     1       7.236  -0.110   0.007  0.00  0.00    +0.000 C 
ATOM      9  C   UNL     1       6.206  -1.055   0.014  0.00  0.00    +0.000 C 
ATOM     10  C   UNL     1       4.892  -0.607   0.021  0.00  0.00    +0.000 C 
ATOM     11  C   UNL     1       3.585  -1.287   0.032  0.00  0.00    +0.000 C 
ENDROOT
BRANCH   3  12
ATOM     12  C   UNL     1       2.533   2.344   0.003  0.00  0.00    +0.000 C 
BRANCH  12  13
ATOM     13  C   UNL     1       2.722   3.107  -1.299  0.00  0.00    +0.000 C 
ATOM     14  O   UNL     1       2.650   2.364  -2.425  0.00  0.00    +0.000 OA
ATOM     15  O   UNL     1       2.861   4.323  -1.340  0.00  0.00    +0.000 OA
ENDBRANCH  12  13
ENDBRANCH   3  12
BRANCH  11  16
ATOM     16  C   UNL     1       3.315  -2.605   0.060  0.00  0.00    +0.000 C 
BRANCH  16  17
ATOM     17  C   UNL     1       4.287  -3.697   0.098  0.00  0.00    +0.000 A 
ATOM     18  C   UNL     1       4.788  -4.147   1.326  0.00  0.00    +0.000 A 
ATOM     19  C   UNL     1       5.736  -5.171   1.366  0.00  0.00    +0.000 A 
ATOM     20  C   UNL     1       6.169  -5.752   0.171  0.00  0.00    +0.000 A 
ATOM     21  C   UNL     1       5.679  -5.308  -1.061  0.00  0.00    +0.000 A 
ATOM     22  C   UNL     1       4.732  -4.283  -1.094  0.00  0.00    +0.000 A 
BRANCH  20  23
ATOM     23  S   UNL     1       7.407  -7.027   0.216  0.00  0.00    +0.000 S 
ATOM     24  C   UNL     1       6.456  -8.517   0.358  0.00  0.00    +0.000 C 
ATOM     25  O   UNL     1       8.071  -7.035  -1.074  0.00  0.00    +0.000 OA
ATOM     26  O   UNL     1       8.165  -6.854   1.440  0.00  0.00    +0.000 OA
ENDBRANCH  20  23
ENDBRANCH  16  17
ENDBRANCH  11  16
TORSDOF 5
