REMARK  Name = *****
REMARK  1 active torsions:
REMARK  status: ('A' for Active; 'I' for Inactive)
REMARK    1  A    between atoms: C_1  and  N_2
REMARK                            x       y       z     vdW  Elec       q    Type
REMARK                         _______ _______ _______ _____ _____    ______ ____
ROOT
ATOM      1  C   UNL     1       1.217   0.866   0.501  0.00  0.00    +0.000 C 
ATOM      2  N   UNL     1       2.674   0.827   0.590  0.00  0.00    +0.000 N 
ATOM      3  C   UNL     1       3.214   2.126   0.992  0.00  0.00    +0.000 C 
ATOM      4  C   UNL     1       4.722   2.002   1.240  0.00  0.00    +0.000 C 
ATOM      5  C   UNL     1       5.462   1.330   0.097  0.00  0.00    +0.000 C 
ATOM      6  C   UNL     1       4.776   0.586  -0.808  0.00  0.00    +0.000 C 
ATOM      7  C   UNL     1       3.262   0.409  -0.696  0.00  0.00    +0.000 C 
ATOM      8  C   UNL     1       5.408  -0.074  -1.990  0.00  0.00    +0.000 A 
ATOM      9  C   UNL     1       5.077  -1.399  -2.325  0.00  0.00    +0.000 A 
ATOM     10  C   UNL     1       5.615  -2.018  -3.457  0.00  0.00    +0.000 A 
ATOM     11  C   UNL     1       6.500  -1.326  -4.274  0.00  0.00    +0.000 A 
ATOM     12  C   UNL     1       6.861  -0.020  -3.952  0.00  0.00    +0.000 A 
ATOM     13  C   UNL     1       6.326   0.612  -2.815  0.00  0.00    +0.000 A 
ATOM     14  C   UNL     1       6.796   2.000  -2.448  0.00  0.00    +0.000 C 
ATOM     15  C   UNL     1       7.566   1.971  -1.149  0.00  0.00    +0.000 A 
ATOM     16  C   UNL     1       8.940   2.270  -1.145  0.00  0.00    +0.000 A 
ATOM     17  C   UNL     1       9.676   2.208   0.036  0.00  0.00    +0.000 A 
ATOM     18  C   UNL     1       9.051   1.841   1.222  0.00  0.00    +0.000 A 
ATOM     19  C   UNL     1       7.687   1.541   1.229  0.00  0.00    +0.000 A 
ATOM     20  C   UNL     1       6.924   1.601   0.051  0.00  0.00    +0.000 A 
ATOM     21  H   UNL     1       2.924   0.142   1.304  0.00  0.00    +0.000 HD
ENDROOT
TORSDOF 0
