REMARK  Name = *****
REMARK  11 active torsions:
REMARK  status: ('A' for Active; 'I' for Inactive)
REMARK    1  A    between atoms: C_1  and  O_2
REMARK    2  A    between atoms: O_2  and  C_3
REMARK    3  A    between atoms: C_6  and  C_7
REMARK    4  A    between atoms: C_8  and  C_9
REMARK    5  A    between atoms: C_11  and  O_12
REMARK    6  A    between atoms: O_12  and  C_13
REMARK    7  A    between atoms: C_14  and  O_15
REMARK    8  A    between atoms: O_15  and  C_16
REMARK    9  A    between atoms: C_17  and  O_18
REMARK   10  A    between atoms: O_18  and  C_19
REMARK   11  A    between atoms: C_22  and  O_23
REMARK                            x       y       z     vdW  Elec       q    Type
REMARK                         _______ _______ _______ _____ _____    ______ ____
ROOT
ATOM      1  C   UNL     1       5.212   4.946  -1.062  0.00  0.00    +0.000 C 
ATOM      2  C   UNL     1       4.639   6.034  -0.517  0.00  0.00    +0.000 C 
ENDROOT
BRANCH   1   6
ATOM      3  C   UNL     1       3.338   1.315  -2.376  0.00  0.00    +0.000 A 
ATOM      4  C   UNL     1       4.442   1.287  -1.521  0.00  0.00    +0.000 A 
ATOM      5  C   UNL     1       5.042   2.480  -1.098  0.00  0.00    +0.000 A 
ATOM      6  C   UNL     1       4.544   3.719  -1.516  0.00  0.00    +0.000 A 
ATOM      7  C   UNL     1       3.452   3.751  -2.389  0.00  0.00    +0.000 A 
ATOM      8  C   UNL     1       2.852   2.559  -2.801  0.00  0.00    +0.000 A 
BRANCH   3  10
ATOM      9  C   UNL     1       3.173  -1.062  -2.461  0.00  0.00    +0.000 C 
ATOM     10  O   UNL     1       2.675   0.212  -2.842  0.00  0.00    +0.000 OA
ENDBRANCH   3  10
BRANCH   8  11
ATOM     11  O   UNL     1       1.770   2.601  -3.641  0.00  0.00    +0.000 OA
ATOM     12  H   UNL     1       1.363   1.805  -3.922  0.00  0.00    +0.000 HD
ENDBRANCH   8  11
ENDBRANCH   1   6
BRANCH   2  13
ATOM     13  C   UNL     1       3.214   6.232  -0.217  0.00  0.00    +0.000 A 
ATOM     14  C   UNL     1       2.498   5.309   0.560  0.00  0.00    +0.000 A 
ATOM     15  C   UNL     1       1.143   5.509   0.833  0.00  0.00    +0.000 A 
ATOM     16  C   UNL     1       0.515   6.661   0.330  0.00  0.00    +0.000 A 
ATOM     17  C   UNL     1       1.227   7.617  -0.413  0.00  0.00    +0.000 A 
ATOM     18  C   UNL     1       2.578   7.389  -0.687  0.00  0.00    +0.000 A 
BRANCH  15  19
ATOM     19  O   UNL     1       0.360   4.659   1.570  0.00  0.00    +0.000 OA
ATOM     20  C   UNL     1       0.930   3.415   1.955  0.00  0.00    +0.000 C 
ENDBRANCH  15  19
BRANCH  16  21
ATOM     21  O   UNL     1      -0.808   6.898   0.635  0.00  0.00    +0.000 OA
ATOM     22  C   UNL     1      -1.646   6.295  -0.350  0.00  0.00    +0.000 C 
ENDBRANCH  16  21
BRANCH  17  23
ATOM     23  O   UNL     1       0.515   8.709  -0.840  0.00  0.00    +0.000 OA
ATOM     24  C   UNL     1       1.247   9.781  -1.418  0.00  0.00    +0.000 C 
ENDBRANCH  17  23
ENDBRANCH   2  13
TORSDOF 7
