REMARK  Name = *****
REMARK  7 active torsions:
REMARK  status: ('A' for Active; 'I' for Inactive)
REMARK    1  A    between atoms: C_2  and  C_4
REMARK    2  A    between atoms: C_4  and  C_5
REMARK    3  A    between atoms: C_5  and  C_6
REMARK    4  A    between atoms: C_6  and  C_7
REMARK    5  A    between atoms: N_9  and  C_10
REMARK    6  A    between atoms: C_13  and  C_14
REMARK    7  A    between atoms: C_15  and  C_16
REMARK                            x       y       z     vdW  Elec       q    Type
REMARK                         _______ _______ _______ _____ _____    ______ ____
ROOT
ATOM      1  C   UNL     1       9.381   0.869   2.643  0.00  0.00    +0.000 A 
ATOM      2  C   UNL     1       9.940   0.349   1.476  0.00  0.00    +0.000 A 
ATOM      3  C   UNL     1      11.316   0.460   1.234  0.00  0.00    +0.000 A 
ATOM      4  C   UNL     1      12.155   1.101   2.151  0.00  0.00    +0.000 A 
ATOM      5  C   UNL     1      11.597   1.608   3.328  0.00  0.00    +0.000 A 
ATOM      6  C   UNL     1      10.222   1.500   3.568  0.00  0.00    +0.000 A 
ENDROOT
BRANCH   1   9
ATOM      7  C   UNL     1       7.000   0.211   2.229  0.00  0.00    +0.000 C 
ATOM      8  O   UNL     1       7.116  -0.394   1.166  0.00  0.00    +0.000 OA
ATOM      9  N   UNL     1       8.010   0.802   2.964  0.00  0.00    +0.000 N 
ATOM     10  H   UNL     1       7.740   1.227   3.810  0.00  0.00    +0.000 HD
BRANCH   7  11
ATOM     11  C   UNL     1       5.646   0.346   2.912  0.00  0.00    +0.000 C 
BRANCH  11  12
ATOM     12  C   UNL     1       4.496  -0.184   2.053  0.00  0.00    +0.000 C 
BRANCH  12  13
ATOM     13  C   UNL     1       4.545  -1.702   1.857  0.00  0.00    +0.000 C 
BRANCH  13  15
ATOM     14  O   UNL     1       5.523  -1.779  -0.333  0.00  0.00    +0.000 OA
ATOM     15  C   UNL     1       4.434  -2.089   0.402  0.00  0.00    +0.000 C 
ATOM     16  O   UNL     1       3.453  -2.641  -0.075  0.00  0.00    +0.000 OA
ENDBRANCH  13  15
ENDBRANCH  12  13
ENDBRANCH  11  12
ENDBRANCH   7  11
ENDBRANCH   1   9
BRANCH   4  17
ATOM     17  C   UNL     1      13.605   1.205   1.944  0.00  0.00    +0.000 C 
ATOM     18  C   UNL     1      14.164   1.509   0.762  0.00  0.00    +0.000 C 
BRANCH  18  19
ATOM     19  C   UNL     1      15.614   1.630   0.562  0.00  0.00    +0.000 A 
ATOM     20  C   UNL     1      16.520   0.711   1.107  0.00  0.00    +0.000 A 
ATOM     21  C   UNL     1      17.891   0.839   0.871  0.00  0.00    +0.000 A 
ATOM     22  C   UNL     1      18.369   1.881   0.080  0.00  0.00    +0.000 A 
ATOM     23  C   UNL     1      17.476   2.793  -0.480  0.00  0.00    +0.000 A 
ATOM     24  C   UNL     1      16.105   2.664  -0.246  0.00  0.00    +0.000 A 
ENDBRANCH  18  19
ENDBRANCH   4  17
TORSDOF 7
