REMARK  Name = *****
REMARK  6 active torsions:
REMARK  status: ('A' for Active; 'I' for Inactive)
REMARK    1  A    between atoms: C_1  and  C_2
REMARK    2  A    between atoms: C_2  and  C_3
REMARK    3  A    between atoms: C_5  and  C_16
REMARK    4  A    between atoms: C_6  and  C_9
REMARK    5  A    between atoms: C_19  and  S_22
REMARK    6  A    between atoms: S_22  and  N_23
REMARK                            x       y       z     vdW  Elec       q    Type
REMARK                         _______ _______ _______ _____ _____    ______ ____
ROOT
ATOM      1  C   UNL     1       1.062   0.141   0.315  0.00  0.00    +0.000 C 
ATOM      2  C   UNL     1       2.503  -0.034  -0.145  0.00  0.00    +0.000 C 
ATOM      3  C   UNL     1       3.472  -0.157   1.022  0.00  0.00    +0.000 C 
ATOM      4  O   UNL     1       2.881   1.096  -0.953  0.00  0.00    +0.000 OA
ATOM      5  C   UNL     1       3.160   0.591  -2.222  0.00  0.00    +0.000 C 
ATOM      6  C   UNL     1       3.080  -0.733  -2.415  0.00  0.00    +0.000 C 
ATOM      7  C   UNL     1       2.636  -1.199  -1.093  0.00  0.00    +0.000 C 
ATOM      8  O   UNL     1       2.409  -2.368  -0.814  0.00  0.00    +0.000 OA
ENDROOT
BRANCH   6   9
ATOM      9  C   UNL     1       3.333  -1.566  -3.590  0.00  0.00    +0.000 A 
ATOM     10  C   UNL     1       4.478  -1.373  -4.382  0.00  0.00    +0.000 A 
ATOM     11  C   UNL     1       4.717  -2.170  -5.506  0.00  0.00    +0.000 A 
ATOM     12  C   UNL     1       3.817  -3.175  -5.848  0.00  0.00    +0.000 A 
ATOM     13  C   UNL     1       2.692  -3.378  -5.060  0.00  0.00    +0.000 A 
ATOM     14  F   UNL     1       1.827  -4.347  -5.387  0.00  0.00    +0.000 F 
ATOM     15  C   UNL     1       2.445  -2.590  -3.939  0.00  0.00    +0.000 A 
ENDBRANCH   6   9
BRANCH   5  16
ATOM     16  C   UNL     1       3.515   1.609  -3.218  0.00  0.00    +0.000 A 
ATOM     17  C   UNL     1       2.819   1.709  -4.433  0.00  0.00    +0.000 A 
ATOM     18  C   UNL     1       3.170   2.679  -5.375  0.00  0.00    +0.000 A 
ATOM     19  C   UNL     1       4.214   3.563  -5.096  0.00  0.00    +0.000 A 
ATOM     20  C   UNL     1       4.916   3.479  -3.891  0.00  0.00    +0.000 A 
ATOM     21  C   UNL     1       4.557   2.509  -2.952  0.00  0.00    +0.000 A 
BRANCH  19  22
ATOM     22  S   UNL     1       4.695   4.769  -6.296  0.00  0.00    +0.000 S 
ATOM     23  O   UNL     1       6.126   4.951  -6.228  0.00  0.00    +0.000 OA
ATOM     24  O   UNL     1       4.004   4.513  -7.538  0.00  0.00    +0.000 OA
BRANCH  22  25
ATOM     25  N   UNL     1       4.014   6.172  -5.676  0.00  0.00    +0.000 NA
ATOM     26  H   UNL     1       4.465   6.407  -4.791  0.00  0.00    +0.000 HD
ATOM     27  H   UNL     1       3.017   6.026  -5.521  0.00  0.00    +0.000 HD
ENDBRANCH  22  25
ENDBRANCH  19  22
ENDBRANCH   5  16
TORSDOF 4
