REMARK  Name = *****
REMARK  6 active torsions:
REMARK  status: ('A' for Active; 'I' for Inactive)
REMARK    1  A    between atoms: C_1  and  N_2
REMARK    2  A    between atoms: N_2  and  C_3
REMARK    3  A    between atoms: N_2  and  C_4
REMARK    4  A    between atoms: C_4  and  C_5
REMARK    5  A    between atoms: C_5  and  O_6
REMARK    6  A    between atoms: O_6  and  C_7
REMARK                            x       y       z     vdW  Elec       q    Type
REMARK                         _______ _______ _______ _____ _____    ______ ____
ROOT
ATOM      1  C   UNL     1       6.310  -2.164   1.816  0.00  0.00    +0.000 C 
ATOM      2  C   UNL     1       6.724  -3.396   1.478  0.00  0.00    +0.000 C 
ATOM      3  C   UNL     1       8.106  -3.901   1.437  0.00  0.00    +0.000 A 
ATOM      4  C   UNL     1       8.329  -5.204   1.915  0.00  0.00    +0.000 A 
ATOM      5  C   UNL     1       9.600  -5.778   1.866  0.00  0.00    +0.000 A 
ATOM      6  C   UNL     1      10.664  -5.064   1.326  0.00  0.00    +0.000 A 
ATOM      7  C   UNL     1      10.457  -3.775   0.834  0.00  0.00    +0.000 A 
ATOM      8  C   UNL     1       9.185  -3.185   0.887  0.00  0.00    +0.000 A 
ATOM      9  S   UNL     1       9.014  -1.533   0.217  0.00  0.00    +0.000 S 
ATOM     10  C   UNL     1       8.384  -0.699   1.670  0.00  0.00    +0.000 A 
ATOM     11  C   UNL     1       9.134   0.379   2.166  0.00  0.00    +0.000 A 
ATOM     12  C   UNL     1       8.707   1.082   3.294  0.00  0.00    +0.000 A 
ATOM     13  C   UNL     1       7.527   0.712   3.928  0.00  0.00    +0.000 A 
ATOM     14 CL   UNL     1       6.995   1.578   5.316  0.00  0.00    +0.000 Cl
ATOM     15  C   UNL     1       6.768  -0.351   3.442  0.00  0.00    +0.000 A 
ATOM     16  C   UNL     1       7.183  -1.071   2.306  0.00  0.00    +0.000 A 
ENDROOT
BRANCH   1  17
ATOM     17  O   UNL     1       4.945  -1.907   1.843  0.00  0.00    +0.000 OA
BRANCH  17  18
ATOM     18  C   UNL     1       4.562  -1.026   0.772  0.00  0.00    +0.000 C 
BRANCH  18  19
ATOM     19  C   UNL     1       3.027  -0.970   0.731  0.00  0.00    +0.000 C 
BRANCH  19  21
ATOM     20  C   UNL     1       1.036  -0.386  -0.489  0.00  0.00    +0.000 C 
ATOM     21  N   UNL     1       2.479  -0.157  -0.371  0.00  0.00    +0.000 N 
ATOM     22  C   UNL     1       2.736   1.271  -0.172  0.00  0.00    +0.000 C 
ATOM     23  H   UNL     1       2.947  -0.444  -1.231  0.00  0.00    +0.000 HD
ENDBRANCH  19  21
ENDBRANCH  18  19
ENDBRANCH  17  18
ENDBRANCH   1  17
TORSDOF 4
