REMARK  Name = *****
REMARK  0 active torsions:
REMARK  status: ('A' for Active; 'I' for Inactive)
REMARK                            x       y       z     vdW  Elec       q    Type
REMARK                         _______ _______ _______ _____ _____    ______ ____
ROOT
ATOM      1  C   UNL     1       2.048  -0.901  -0.034  0.00  0.00    +0.000 C 
ATOM      2  C   UNL     1       3.014  -1.778  -0.368  0.00  0.00    +0.000 C 
ATOM      3  C   UNL     1       4.442  -1.492  -0.527  0.00  0.00    +0.000 C 
ATOM      4  C   UNL     1       5.033  -0.307  -0.777  0.00  0.00    +0.000 C 
ATOM      5  C   UNL     1       4.380   0.994  -0.943  0.00  0.00    +0.000 C 
ATOM      6  C   UNL     1       5.219   2.012  -1.197  0.00  0.00    +0.000 C 
ATOM      7  C   UNL     1       6.650   1.598  -1.241  0.00  0.00    +0.000 C 
ATOM      8  S   UNL     1       8.014   2.524  -1.518  0.00  0.00    +0.000 S 
ATOM      9  S   UNL     1       6.752  -0.148  -0.946  0.00  0.00    +0.000 S 
ATOM     10 CL   UNL     1       4.749   3.639  -1.456  0.00  0.00    +0.000 Cl
ATOM     11  C   UNL     1       2.922   1.141  -0.872  0.00  0.00    +0.000 C 
ATOM     12  C   UNL     1       2.336   0.513   0.168  0.00  0.00    +0.000 C 
ENDROOT
TORSDOF 0
