REMARK  Name = *****
REMARK  2 active torsions:
REMARK  status: ('A' for Active; 'I' for Inactive)
REMARK    1  A    between atoms: C_1  and  O_2
REMARK    2  A    between atoms: O_2  and  C_3
REMARK                            x       y       z     vdW  Elec       q    Type
REMARK                         _______ _______ _______ _____ _____    ______ ____
ROOT
ATOM      1  C   UNL     1       3.086  -0.830  -0.993  0.00  0.00    +0.000 A 
ATOM      2  C   UNL     1       2.789  -0.823  -2.357  0.00  0.00    +0.000 A 
ATOM      3  C   UNL     1       3.511  -1.631  -3.258  0.00  0.00    +0.000 A 
ATOM      4  C   UNL     1       4.552  -2.457  -2.773  0.00  0.00    +0.000 A 
ATOM      5  C   UNL     1       4.850  -2.445  -1.402  0.00  0.00    +0.000 A 
ATOM      6  C   UNL     1       4.125  -1.635  -0.525  0.00  0.00    +0.000 A 
ATOM      7  C   UNL     1       5.258  -3.266  -3.679  0.00  0.00    +0.000 A 
ATOM      8  C   UNL     1       4.953  -3.264  -5.035  0.00  0.00    +0.000 A 
ATOM      9  C   UNL     1       3.938  -2.452  -5.512  0.00  0.00    +0.000 A 
ATOM     10  C   UNL     1       3.225  -1.643  -4.634  0.00  0.00    +0.000 A 
ATOM     11  F   UNL     1       2.244  -0.864  -5.118  0.00  0.00    +0.000 F 
ATOM     12  F   UNL     1       3.642  -2.445  -6.820  0.00  0.00    +0.000 F 
ATOM     13  F   UNL     1       5.640  -4.047  -5.879  0.00  0.00    +0.000 F 
ATOM     14  F   UNL     1       6.246  -4.060  -3.235  0.00  0.00    +0.000 F 
ENDROOT
BRANCH   1  16
ATOM     15  C   UNL     1       1.249   0.560  -0.409  0.00  0.00    +0.000 C 
ATOM     16  O   UNL     1       2.452  -0.097  -0.029  0.00  0.00    +0.000 OA
ENDBRANCH   1  16
TORSDOF 1
