REMARK  Name = *****
REMARK  1 active torsions:
REMARK  status: ('A' for Active; 'I' for Inactive)
REMARK    1  A    between atoms: N_15  and  O_16
REMARK                            x       y       z     vdW  Elec       q    Type
REMARK                         _______ _______ _______ _____ _____    ______ ____
ROOT
ATOM      1  C   UNL     1       1.237   1.394   0.000  0.00  0.00    +0.000 A 
ATOM      2  C   UNL     1       0.025   0.701  -0.000  0.00  0.00    +0.000 A 
ATOM      3  C   UNL     1       0.027  -0.698  -0.001  0.00  0.00    +0.000 A 
ATOM      4  C   UNL     1       1.244  -1.405  -0.001  0.00  0.00    +0.000 A 
ATOM      5  C   UNL     1       2.464  -0.708  -0.001  0.00  0.00    +0.000 A 
ATOM      6  C   UNL     1       2.449   0.696  -0.000  0.00  0.00    +0.000 A 
ATOM      7 CL   UNL     1       3.899   1.640  -0.001  0.00  0.00    +0.000 Cl
ATOM      8 CL   UNL     1       3.972  -1.568  -0.001  0.00  0.00    +0.000 Cl
ATOM      9 CL   UNL     1       1.194  -3.143  -0.001  0.00  0.00    +0.000 Cl
ATOM     10  N   UNL     1      -1.202  -1.382  -0.002  0.00  0.00    +0.000 N 
ATOM     11  C   UNL     1      -2.434  -0.768  -0.004  0.00  0.00    +0.000 A 
ATOM     12  O   UNL     1      -3.473  -1.412  -0.005  0.00  0.00    +0.000 OA
ATOM     13  C   UNL     1      -2.447   0.772  -0.002  0.00  0.00    +0.000 A 
ATOM     14  O   UNL     1      -3.494   1.409  -0.003  0.00  0.00    +0.000 OA
ATOM     15  N   UNL     1      -1.206   1.371  -0.001  0.00  0.00    +0.000 N 
ATOM     16  H   UNL     1      -1.179  -2.366  -0.002  0.00  0.00    +0.000 HD
ENDROOT
BRANCH  15  17
ATOM     17  O   UNL     1      -1.177   2.784  -0.000  0.00  0.00    +0.000 OA
ATOM     18  H   UNL     1      -0.356   3.236   0.001  0.00  0.00    +0.000 HD
ENDBRANCH  15  17
TORSDOF 1
