REMARK  Name = *****
REMARK  0 active torsions:
REMARK  status: ('A' for Active; 'I' for Inactive)
REMARK                            x       y       z     vdW  Elec       q    Type
REMARK                         _______ _______ _______ _____ _____    ______ ____
ROOT
ATOM      1  C   UNL     1      -0.822   1.122  -0.072  0.00  0.00    +0.000 A 
ATOM      2  C   UNL     1      -1.359  -0.148  -0.107  0.00  0.00    +0.000 A 
ATOM      3  C   UNL     1      -0.573  -1.297  -0.106  0.00  0.00    +0.000 A 
ATOM      4  C   UNL     1       0.803  -1.220  -0.068  0.00  0.00    +0.000 A 
ATOM      5  C   UNL     1       1.382   0.060  -0.031  0.00  0.00    +0.000 A 
ATOM      6  C   UNL     1       0.574   1.224  -0.033  0.00  0.00    +0.000 A 
ATOM      7 BR   UNL     1       1.301   2.979   0.015  0.00  0.00    +0.000 Br
ATOM      8 BR   UNL     1       3.282   0.132   0.021  0.00  0.00    +0.000 Br
ATOM      9  N   UNL     1      -1.352  -2.449  -0.147  0.00  0.00    +0.000 N 
ATOM     10  C   UNL     1      -2.698  -2.136  -0.178  0.00  0.00    +0.000 C 
ATOM     11  O   UNL     1      -3.641  -2.894  -0.218  0.00  0.00    +0.000 OA
ATOM     12  C   UNL     1      -2.757  -0.583  -0.153  0.00  0.00    +0.000 C 
ATOM     13  O   UNL     1      -3.738   0.123  -0.167  0.00  0.00    +0.000 OA
ATOM     14  H   UNL     1      -0.992  -3.365  -0.153  0.00  0.00    +0.000 HD
ENDROOT
TORSDOF 0
