REMARK  Name = *****
REMARK  1 active torsions:
REMARK  status: ('A' for Active; 'I' for Inactive)
REMARK    1  A    between atoms: C_9  and  C_13
REMARK                            x       y       z     vdW  Elec       q    Type
REMARK                         _______ _______ _______ _____ _____    ______ ____
ROOT
ATOM      1  C   UNL     1      -2.440   0.608  -0.036  0.00  0.00    +0.000 A 
ATOM      2  C   UNL     1      -1.262   1.356  -0.040  0.00  0.00    +0.000 A 
ATOM      3  C   UNL     1      -0.033   0.696  -0.027  0.00  0.00    +0.000 A 
ATOM      4  C   UNL     1       0.037  -0.707  -0.010  0.00  0.00    +0.000 A 
ATOM      5  C   UNL     1      -1.148  -1.443  -0.007  0.00  0.00    +0.000 A 
ATOM      6  C   UNL     1      -2.377  -0.786  -0.019  0.00  0.00    +0.000 A 
ATOM      7 CL   UNL     1      -3.835  -1.701  -0.015  0.00  0.00    +0.000 Cl
ATOM      8  N   UNL     1       1.261  -1.399  -0.002  0.00  0.00    +0.000 NA
ATOM      9  C   UNL     1       2.363  -0.702  -0.009  0.00  0.00    +0.000 A 
ATOM     10  C   UNL     1       2.381   0.824  -0.005  0.00  0.00    +0.000 A 
ATOM     11  O   UNL     1       3.435   1.440   0.035  0.00  0.00    +0.000 OA
ATOM     12  N   UNL     1       1.152   1.435  -0.026  0.00  0.00    +0.000 N 
ATOM     13  H   UNL     1       1.105   2.418  -0.041  0.00  0.00    +0.000 HD
ENDROOT
BRANCH   9  14
ATOM     14  C   UNL     1       3.696  -1.387  -0.035  0.00  0.00    +0.000 C 
ATOM     15 BR   UNL     1       4.199  -1.586  -1.901  0.00  0.00    +0.000 Br
ENDBRANCH   9  14
TORSDOF 1
