REMARK  Name = *****
REMARK  2 active torsions:
REMARK  status: ('A' for Active; 'I' for Inactive)
REMARK    1  A    between atoms: C_6  and  O_11
REMARK    2  A    between atoms: O_11  and  C_12
REMARK                            x       y       z     vdW  Elec       q    Type
REMARK                         _______ _______ _______ _____ _____    ______ ____
ROOT
ATOM      1  C   UNL     1       1.873  -0.017   0.092  0.00  0.00    +0.000 A 
ATOM      2  C   UNL     1       2.582   1.180   0.076  0.00  0.00    +0.000 A 
ATOM      3  C   UNL     1       3.976   1.164   0.010  0.00  0.00    +0.000 A 
ATOM      4  C   UNL     1       4.678  -0.051  -0.042  0.00  0.00    +0.000 A 
ATOM      5  C   UNL     1       6.081  -0.087  -0.110  0.00  0.00    +0.000 A 
ATOM      6  C   UNL     1       6.776  -1.299  -0.162  0.00  0.00    +0.000 A 
ATOM      7  C   UNL     1       6.061  -2.495  -0.146  0.00  0.00    +0.000 A 
ATOM      8  C   UNL     1       4.664  -2.478  -0.078  0.00  0.00    +0.000 A 
ATOM      9  C   UNL     1       3.959  -1.266  -0.026  0.00  0.00    +0.000 A 
ATOM     10  C   UNL     1       2.556  -1.233   0.042  0.00  0.00    +0.000 A 
ENDROOT
BRANCH   6  11
ATOM     11  O   UNL     1       8.137  -1.175  -0.226  0.00  0.00    +0.000 OA
ATOM     12  C   UNL     1       8.890  -2.379  -0.290  0.00  0.00    +0.000 C 
ENDBRANCH   6  11
TORSDOF 1
