REMARK  Name = *****
REMARK  3 active torsions:
REMARK  status: ('A' for Active; 'I' for Inactive)
REMARK    1  A    between atoms: C_1  and  C_2
REMARK    2  A    between atoms: C_3  and  O_13
REMARK    3  A    between atoms: O_13  and  C_14
REMARK                            x       y       z     vdW  Elec       q    Type
REMARK                         _______ _______ _______ _____ _____    ______ ____
ROOT
ATOM      1  C   UNL     1       1.043   0.079  -0.101  0.00  0.00    +0.000 C 
ATOM      2  C   UNL     1       2.555   0.083  -0.078  0.00  0.00    +0.000 A 
ATOM      3  C   UNL     1       3.259   1.307  -0.074  0.00  0.00    +0.000 A 
ATOM      4  C   UNL     1       4.654   1.302  -0.052  0.00  0.00    +0.000 A 
ATOM      5  C   UNL     1       5.357   0.098  -0.035  0.00  0.00    +0.000 A 
ATOM      6  C   UNL     1       4.686  -1.129  -0.041  0.00  0.00    +0.000 A 
ATOM      7  C   UNL     1       3.270  -1.154  -0.062  0.00  0.00    +0.000 A 
ATOM      8  C   UNL     1       2.641  -2.422  -0.068  0.00  0.00    +0.000 A 
ATOM      9  C   UNL     1       3.376  -3.610  -0.052  0.00  0.00    +0.000 A 
ATOM     10  C   UNL     1       4.762  -3.557  -0.031  0.00  0.00    +0.000 A 
ATOM     11  C   UNL     1       5.417  -2.329  -0.025  0.00  0.00    +0.000 A 
ATOM     12 BR   UNL     1       5.765  -5.159  -0.010  0.00  0.00    +0.000 Br
ENDROOT
BRANCH   3  13
ATOM     13  O   UNL     1       2.498   2.447  -0.092  0.00  0.00    +0.000 OA
ATOM     14  C   UNL     1       3.173   3.698  -0.116  0.00  0.00    +0.000 C 
ENDBRANCH   3  13
TORSDOF 1
