REMARK  Name = *****
REMARK  0 active torsions:
REMARK  status: ('A' for Active; 'I' for Inactive)
REMARK                            x       y       z     vdW  Elec       q    Type
REMARK                         _______ _______ _______ _____ _____    ______ ____
ROOT
ATOM      1  C   UNL     1       0.908  -1.430  -0.043  0.00  0.00    +0.000 A 
ATOM      2  C   UNL     1       2.102  -0.705  -0.091  0.00  0.00    +0.000 A 
ATOM      3  C   UNL     1       2.116   0.707  -0.086  0.00  0.00    +0.000 A 
ATOM      4  C   UNL     1       0.916   1.423  -0.033  0.00  0.00    +0.000 A 
ATOM      5  C   UNL     1      -0.256   0.701   0.013  0.00  0.00    +0.000 A 
ATOM      6  C   UNL     1      -0.252  -0.694   0.008  0.00  0.00    +0.000 A 
ATOM      7  N   UNL     1      -1.573  -1.127   0.061  0.00  0.00    +0.000 N 
ATOM      8  C   UNL     1      -2.416  -0.007   0.099  0.00  0.00    +0.000 A 
ATOM      9  O   UNL     1      -3.632  -0.015   0.148  0.00  0.00    +0.000 OA
ATOM     10  N   UNL     1      -1.584   1.120   0.069  0.00  0.00    +0.000 N 
ATOM     11 BR   UNL     1       0.924   3.307  -0.026  0.00  0.00    +0.000 Br
ATOM     12 BR   UNL     1       3.747  -1.640  -0.165  0.00  0.00    +0.000 Br
ATOM     13  H   UNL     1      -1.867  -2.067   0.070  0.00  0.00    +0.000 HD
ATOM     14  H   UNL     1      -1.889   2.056   0.085  0.00  0.00    +0.000 HD
ENDROOT
TORSDOF 0
