REMARK  Name = *****
REMARK  2 active torsions:
REMARK  status: ('A' for Active; 'I' for Inactive)
REMARK    1  A    between atoms: C_1  and  C_2
REMARK    2  A    between atoms: C_3  and  C_13
REMARK                            x       y       z     vdW  Elec       q    Type
REMARK                         _______ _______ _______ _____ _____    ______ ____
ROOT
ATOM      1  C   UNL     1       0.970  -0.142   0.030  0.00  0.00    +0.000 C 
ATOM      2  C   UNL     1       2.461  -0.132   0.029  0.00  0.00    +0.000 A 
ATOM      3  C   UNL     1       3.273   0.994   0.029  0.00  0.00    +0.000 A 
ATOM      4  N   UNL     1       4.576   0.569   0.027  0.00  0.00    +0.000 N 
ATOM      5  C   UNL     1       4.643  -0.803   0.028  0.00  0.00    +0.000 A 
ATOM      6  C   UNL     1       5.764  -1.647   0.029  0.00  0.00    +0.000 A 
ATOM      7  C   UNL     1       5.567  -3.028   0.029  0.00  0.00    +0.000 A 
ATOM      8  C   UNL     1       4.279  -3.554   0.030  0.00  0.00    +0.000 A 
ATOM      9  C   UNL     1       3.176  -2.695   0.029  0.00  0.00    +0.000 A 
ATOM     10  C   UNL     1       3.329  -1.287   0.029  0.00  0.00    +0.000 A 
ATOM     11 CL   UNL     1       1.590  -3.335   0.029  0.00  0.00    +0.000 Cl
ATOM     12 CL   UNL     1       7.357  -0.999   0.028  0.00  0.00    +0.000 Cl
ATOM     13  C   UNL     1       2.963   2.449   0.029  0.00  0.00    +0.000 C 
ATOM     14  H   UNL     1       5.358   1.167   0.026  0.00  0.00    +0.000 HD
ENDROOT
TORSDOF 0
