REMARK  Name = *****
REMARK  4 active torsions:
REMARK  status: ('A' for Active; 'I' for Inactive)
REMARK    1  A    between atoms: C_1  and  C_2
REMARK    2  A    between atoms: C_3  and  C_14
REMARK    3  A    between atoms: C_9  and  O_12
REMARK    4  A    between atoms: O_12  and  C_13
REMARK                            x       y       z     vdW  Elec       q    Type
REMARK                         _______ _______ _______ _____ _____    ______ ____
ROOT
ATOM      1  C   UNL     1       0.865   0.166   0.044  0.00  0.00    +0.000 C 
ATOM      2  C   UNL     1       2.366   0.068  -0.019  0.00  0.00    +0.000 A 
ATOM      3  C   UNL     1       3.043  -1.173  -0.099  0.00  0.00    +0.000 A 
ATOM      4  C   UNL     1       4.472  -1.204  -0.151  0.00  0.00    +0.000 A 
ATOM      5  C   UNL     1       5.191   0.014  -0.126  0.00  0.00    +0.000 A 
ATOM      6  C   UNL     1       4.500   1.227  -0.051  0.00  0.00    +0.000 A 
ATOM      7  C   UNL     1       3.109   1.254   0.003  0.00  0.00    +0.000 A 
ATOM      8  C   UNL     1       6.596   0.008  -0.177  0.00  0.00    +0.000 A 
ATOM      9  C   UNL     1       7.320  -1.183  -0.251  0.00  0.00    +0.000 A 
ATOM     10  C   UNL     1       6.631  -2.388  -0.275  0.00  0.00    +0.000 A 
ATOM     11  C   UNL     1       5.230  -2.396  -0.225  0.00  0.00    +0.000 A 
ATOM     12  C   UNL     1       2.270  -2.472  -0.127  0.00  0.00    +0.000 C 
ENDROOT
BRANCH   9  13
ATOM     13  O   UNL     1       8.678  -1.028  -0.294  0.00  0.00    +0.000 OA
ATOM     14  C   UNL     1       9.458  -2.215  -0.371  0.00  0.00    +0.000 C 
ENDBRANCH   9  13
TORSDOF 1
