REMARK  Name = *****
REMARK  1 active torsions:
REMARK  status: ('A' for Active; 'I' for Inactive)
REMARK    1  A    between atoms: C_8  and  O_13
REMARK                            x       y       z     vdW  Elec       q    Type
REMARK                         _______ _______ _______ _____ _____    ______ ____
ROOT
ATOM      1  C   UNL     1      -2.459   0.651  -0.049  0.00  0.00    +0.000 A 
ATOM      2  C   UNL     1      -1.246   1.338  -0.081  0.00  0.00    +0.000 A 
ATOM      3  C   UNL     1      -0.047   0.626  -0.030  0.00  0.00    +0.000 A 
ATOM      4  C   UNL     1      -0.034  -0.780   0.036  0.00  0.00    +0.000 A 
ATOM      5  C   UNL     1      -1.260  -1.457   0.093  0.00  0.00    +0.000 A 
ATOM      6  C   UNL     1      -2.461  -0.741   0.044  0.00  0.00    +0.000 A 
ATOM      7  I   UNL     1      -4.272  -1.762   0.120  0.00  0.00    +0.000 I 
ATOM      8  C   UNL     1       1.278  -1.453   0.071  0.00  0.00    +0.000 A 
ATOM      9  C   UNL     1       2.410  -0.742   0.104  0.00  0.00    +0.000 A 
ATOM     10  C   UNL     1       2.390   0.735   0.065  0.00  0.00    +0.000 A 
ATOM     11  O   UNL     1       3.430   1.383   0.094  0.00  0.00    +0.000 OA
ATOM     12  N   UNL     1       1.163   1.332  -0.023  0.00  0.00    +0.000 N 
ATOM     13  H   UNL     1       1.128   2.314  -0.085  0.00  0.00    +0.000 HD
ENDROOT
BRANCH   8  14
ATOM     14  O   UNL     1       1.336  -2.831   0.043  0.00  0.00    +0.000 OA
ATOM     15  H   UNL     1       0.545  -3.332   0.020  0.00  0.00    +0.000 HD
ENDBRANCH   8  14
TORSDOF 1
