REMARK  Name = *****
REMARK  0 active torsions:
REMARK  status: ('A' for Active; 'I' for Inactive)
REMARK                            x       y       z     vdW  Elec       q    Type
REMARK                         _______ _______ _______ _____ _____    ______ ____
ROOT
ATOM      1  C   UNL     1      -2.428   0.133   0.225  0.00  0.00    +0.000 C 
ATOM      2  C   UNL     1      -1.566   1.371   0.422  0.00  0.00    +0.000 C 
ATOM      3  C   UNL     1      -0.181   0.814   0.749  0.00  0.00    +0.000 C 
ATOM      4  C   UNL     1      -0.146  -0.625   0.130  0.00  0.00    +0.000 C 
ATOM      5  C   UNL     1      -1.514  -0.828  -0.523  0.00  0.00    +0.000 C 
ATOM      6  C   UNL     1       1.053  -0.546  -0.844  0.00  0.00    +0.000 C 
ATOM      7  C   UNL     1       0.961   0.896  -1.362  0.00  0.00    +0.000 C 
ATOM      8  C   UNL     1       1.005   1.514   0.042  0.00  0.00    +0.000 C 
ATOM      9  C   UNL     1       2.272   0.844   0.531  0.00  0.00    +0.000 C 
ATOM     10  C   UNL     1       2.301  -0.390   0.001  0.00  0.00    +0.000 C 
ENDROOT
TORSDOF 0
