REMARK  Name = *****
REMARK  3 active torsions:
REMARK  status: ('A' for Active; 'I' for Inactive)
REMARK    1  A    between atoms: C_1  and  O_2
REMARK    2  A    between atoms: O_2  and  C_3
REMARK    3  A    between atoms: C_9  and  C_11
REMARK                            x       y       z     vdW  Elec       q    Type
REMARK                         _______ _______ _______ _____ _____    ______ ____
ROOT
ATOM      1  C   UNL     1       2.828  -0.835   1.203  0.00  0.00    +0.000 A 
ATOM      2  C   UNL     1       3.930  -0.395   1.943  0.00  0.00    +0.000 A 
ATOM      3  C   UNL     1       4.620  -1.259   2.810  0.00  0.00    +0.000 A 
ATOM      4  C   UNL     1       4.189  -2.597   2.932  0.00  0.00    +0.000 A 
ATOM      5  C   UNL     1       4.874  -3.461   3.800  0.00  0.00    +0.000 A 
ATOM      6  C   UNL     1       5.972  -3.012   4.537  0.00  0.00    +0.000 A 
ATOM      7  C   UNL     1       6.414  -1.689   4.419  0.00  0.00    +0.000 A 
ATOM      8  C   UNL     1       5.726  -0.821   3.558  0.00  0.00    +0.000 A 
ATOM      9  C   UNL     1       3.084  -3.031   2.185  0.00  0.00    +0.000 A 
ATOM     10  C   UNL     1       2.408  -2.157   1.326  0.00  0.00    +0.000 A 
ENDROOT
BRANCH   1  12
ATOM     11  C   UNL     1       1.115  -0.268  -0.345  0.00  0.00    +0.000 C 
ATOM     12  O   UNL     1       2.259   0.119   0.404  0.00  0.00    +0.000 OA
ENDBRANCH   1  12
BRANCH   7  13
ATOM     13  C   UNL     1       7.585  -1.201   5.217  0.00  0.00    +0.000 C 
ATOM     14 BR   UNL     1       6.966  -0.516   6.927  0.00  0.00    +0.000 Br
ENDBRANCH   7  13
TORSDOF 2
