REMARK  Name = *****
REMARK  3 active torsions:
REMARK  status: ('A' for Active; 'I' for Inactive)
REMARK    1  A    between atoms: C_1  and  C_2
REMARK    2  A    between atoms: C_2  and  O_3
REMARK    3  A    between atoms: O_3  and  C_4
REMARK                            x       y       z     vdW  Elec       q    Type
REMARK                         _______ _______ _______ _____ _____    ______ ____
ROOT
ATOM      1  C   UNL     1       4.334  -1.414  -0.472  0.00  0.00    +0.000 A 
ATOM      2  C   UNL     1       4.856  -2.139  -1.552  0.00  0.00    +0.000 A 
ATOM      3  C   UNL     1       6.221  -2.465  -1.638  0.00  0.00    +0.000 A 
ATOM      4  C   UNL     1       7.085  -2.043  -0.600  0.00  0.00    +0.000 A 
ATOM      5  C   UNL     1       6.560  -1.311   0.475  0.00  0.00    +0.000 A 
ATOM      6  C   UNL     1       5.197  -0.997   0.539  0.00  0.00    +0.000 A 
ATOM      7  C   UNL     1       8.454  -2.363  -0.659  0.00  0.00    +0.000 A 
ATOM      8  C   UNL     1       8.970  -3.091  -1.731  0.00  0.00    +0.000 A 
ATOM      9  C   UNL     1       8.120  -3.500  -2.750  0.00  0.00    +0.000 A 
ATOM     10  C   UNL     1       6.764  -3.194  -2.709  0.00  0.00    +0.000 A 
ATOM     11  F   UNL     1       5.980  -3.611  -3.715  0.00  0.00    +0.000 F 
ATOM     12  F   UNL     1       8.622  -4.199  -3.778  0.00  0.00    +0.000 F 
ATOM     13  F   UNL     1       4.020  -2.534  -2.527  0.00  0.00    +0.000 F 
ENDROOT
BRANCH   1  14
ATOM     14  O   UNL     1       2.986  -1.178  -0.513  0.00  0.00    +0.000 OA
BRANCH  14  16
ATOM     15  C   UNL     1       0.901  -0.434   0.368  0.00  0.00    +0.000 C 
ATOM     16  C   UNL     1       2.401  -0.496   0.594  0.00  0.00    +0.000 C 
ENDBRANCH  14  16
ENDBRANCH   1  14
TORSDOF 2
