REMARK  Name = *****
REMARK  3 active torsions:
REMARK  status: ('A' for Active; 'I' for Inactive)
REMARK    1  A    between atoms: C_1  and  C_2
REMARK    2  A    between atoms: C_8  and  O_11
REMARK    3  A    between atoms: O_11  and  C_12
REMARK                            x       y       z     vdW  Elec       q    Type
REMARK                         _______ _______ _______ _____ _____    ______ ____
ROOT
ATOM      1  C   UNL     1       0.970  -0.158  -0.085  0.00  0.00    +0.000 C 
ATOM      2  C   UNL     1       2.456  -0.004  -0.080  0.00  0.00    +0.000 A 
ATOM      3  C   UNL     1       3.109   1.212  -0.081  0.00  0.00    +0.000 A 
ATOM      4  S   UNL     1       4.804   1.053  -0.074  0.00  0.00    +0.000 S 
ATOM      5  C   UNL     1       4.714  -0.664  -0.070  0.00  0.00    +0.000 A 
ATOM      6  C   UNL     1       5.790  -1.569  -0.063  0.00  0.00    +0.000 A 
ATOM      7  C   UNL     1       5.544  -2.954  -0.061  0.00  0.00    +0.000 A 
ATOM      8  C   UNL     1       4.235  -3.438  -0.066  0.00  0.00    +0.000 A 
ATOM      9  C   UNL     1       3.177  -2.507  -0.073  0.00  0.00    +0.000 A 
ATOM     10  C   UNL     1       3.393  -1.106  -0.075  0.00  0.00    +0.000 A 
ATOM     11 CL   UNL     1       6.972  -3.930  -0.051  0.00  0.00    +0.000 Cl
ENDROOT
BRANCH   8  12
ATOM     12  O   UNL     1       3.752  -4.717  -0.065  0.00  0.00    +0.000 OA
ATOM     13  C   UNL     1       4.629  -5.828  -0.064  0.00  0.00    +0.000 C 
ENDBRANCH   8  12
TORSDOF 1
