REMARK  Name = *****
REMARK  2 active torsions:
REMARK  status: ('A' for Active; 'I' for Inactive)
REMARK    1  A    between atoms: C_1  and  C_2
REMARK    2  A    between atoms: C_9  and  C_11
REMARK                            x       y       z     vdW  Elec       q    Type
REMARK                         _______ _______ _______ _____ _____    ______ ____
ROOT
ATOM      1  C   UNL     1       0.882   0.193  -0.057  0.00  0.00    +0.000 C 
ATOM      2  C   UNL     1       2.375   0.169  -0.057  0.00  0.00    +0.000 A 
ATOM      3  C   UNL     1       3.300   1.190  -0.058  0.00  0.00    +0.000 A 
ATOM      4  C   UNL     1       2.957   2.547  -0.059  0.00  0.00    +0.000 A 
ATOM      5  C   UNL     1       4.091   3.388  -0.059  0.00  0.00    +0.000 A 
ATOM      6  C   UNL     1       5.437   2.910  -0.059  0.00  0.00    +0.000 A 
ATOM      7  C   UNL     1       5.786   1.542  -0.058  0.00  0.00    +0.000 A 
ATOM      8  C   UNL     1       4.664   0.705  -0.057  0.00  0.00    +0.000 A 
ATOM      9  C   UNL     1       4.739  -0.670  -0.056  0.00  0.00    +0.000 A 
ATOM     10  S   UNL     1       3.162  -1.362  -0.056  0.00  0.00    +0.000 S 
ATOM     11  C   UNL     1       5.912  -1.593  -0.056  0.00  0.00    +0.000 C 
ENDROOT
TORSDOF 0
