REMARK  Name = *****
REMARK  1 active torsions:
REMARK  status: ('A' for Active; 'I' for Inactive)
REMARK    1  A    between atoms: N_9  and  O_15
REMARK                            x       y       z     vdW  Elec       q    Type
REMARK                         _______ _______ _______ _____ _____    ______ ____
ROOT
ATOM      1  C   UNL     1      -1.250  -1.432   0.029  0.00  0.00    +0.000 A 
ATOM      2  C   UNL     1      -0.079  -0.674   0.005  0.00  0.00    +0.000 A 
ATOM      3  C   UNL     1      -0.136   0.724  -0.013  0.00  0.00    +0.000 A 
ATOM      4  C   UNL     1      -1.378   1.366  -0.007  0.00  0.00    +0.000 A 
ATOM      5  C   UNL     1      -2.556   0.612   0.017  0.00  0.00    +0.000 A 
ATOM      6  C   UNL     1      -2.492  -0.787   0.035  0.00  0.00    +0.000 A 
ATOM      7 CL   UNL     1      -3.906  -1.778   0.066  0.00  0.00    +0.000 Cl
ATOM      8 CL   UNL     1      -4.057   1.468   0.023  0.00  0.00    +0.000 Cl
ATOM      9  N   UNL     1       1.069   1.438  -0.036  0.00  0.00    +0.000 N 
ATOM     10  C   UNL     1       2.329   0.880  -0.042  0.00  0.00    +0.000 A 
ATOM     11  O   UNL     1       3.355   1.551  -0.060  0.00  0.00    +0.000 OA
ATOM     12  C   UNL     1       2.369  -0.661  -0.025  0.00  0.00    +0.000 A 
ATOM     13  O   UNL     1       3.431  -1.270  -0.031  0.00  0.00    +0.000 OA
ATOM     14  N   UNL     1       1.160  -1.323  -0.002  0.00  0.00    +0.000 N 
ATOM     15  H   UNL     1       1.169  -2.307   0.011  0.00  0.00    +0.000 HD
ENDROOT
BRANCH   9  16
ATOM     16  O   UNL     1       0.990   2.849  -0.050  0.00  0.00    +0.000 OA
ATOM     17  H   UNL     1       0.153   3.272  -0.047  0.00  0.00    +0.000 HD
ENDBRANCH   9  16
TORSDOF 1
