REMARK  Name = *****
REMARK  2 active torsions:
REMARK  status: ('A' for Active; 'I' for Inactive)
REMARK    1  A    between atoms: C_6  and  O_11
REMARK    2  A    between atoms: O_11  and  C_12
REMARK                            x       y       z     vdW  Elec       q    Type
REMARK                         _______ _______ _______ _____ _____    ______ ____
ROOT
ATOM      1  C   UNL     1       2.424  -0.690  -0.194  0.00  0.00    +0.000 A 
ATOM      2  C   UNL     1       2.430   0.699  -0.097  0.00  0.00    +0.000 A 
ATOM      3  C   UNL     1       1.227   1.392   0.047  0.00  0.00    +0.000 A 
ATOM      4  C   UNL     1       0.003   0.705   0.096  0.00  0.00    +0.000 A 
ATOM      5  C   UNL     1      -1.218   1.385   0.240  0.00  0.00    +0.000 A 
ATOM      6  C   UNL     1      -2.435   0.697   0.290  0.00  0.00    +0.000 A 
ATOM      7  C   UNL     1      -2.433  -0.693   0.191  0.00  0.00    +0.000 A 
ATOM      8  C   UNL     1      -1.226  -1.386   0.046  0.00  0.00    +0.000 A 
ATOM      9  C   UNL     1      -0.002  -0.703  -0.003  0.00  0.00    +0.000 A 
ATOM     10  C   UNL     1       1.216  -1.387  -0.147  0.00  0.00    +0.000 A 
ENDROOT
BRANCH   6  11
ATOM     11  O   UNL     1      -3.531   1.499   0.434  0.00  0.00    +0.000 OA
BRANCH  11  12
ATOM     12  C   UNL     1      -4.802   0.877   0.507  0.00  0.00    +0.000 C 
ATOM     13  F   UNL     1      -4.879   0.046   1.569  0.00  0.00    +0.000 F 
ATOM     14  F   UNL     1      -5.745   1.834   0.656  0.00  0.00    +0.000 F 
ATOM     15  F   UNL     1      -5.076   0.192  -0.624  0.00  0.00    +0.000 F 
ENDBRANCH  11  12
ENDBRANCH   6  11
TORSDOF 2
