REMARK  Name = *****
REMARK  0 active torsions:
REMARK  status: ('A' for Active; 'I' for Inactive)
REMARK                            x       y       z     vdW  Elec       q    Type
REMARK                         _______ _______ _______ _____ _____    ______ ____
ROOT
ATOM      1  C   UNL     1       0.916   1.448   0.002  0.00  0.00    +0.000 A 
ATOM      2  C   UNL     1      -0.243   0.711   0.001  0.00  0.00    +0.000 A 
ATOM      3  C   UNL     1      -0.258  -0.671  -0.001  0.00  0.00    +0.000 A 
ATOM      4  C   UNL     1       0.908  -1.403  -0.001  0.00  0.00    +0.000 A 
ATOM      5  C   UNL     1       2.115  -0.689  -0.000  0.00  0.00    +0.000 A 
ATOM      6  C   UNL     1       2.118   0.728   0.002  0.00  0.00    +0.000 A 
ATOM      7 CL   UNL     1       3.587   1.641   0.004  0.00  0.00    +0.000 Cl
ATOM      8 CL   UNL     1       3.580  -1.608  -0.002  0.00  0.00    +0.000 Cl
ATOM      9  O   UNL     1      -1.544  -1.194  -0.001  0.00  0.00    +0.000 OA
ATOM     10  C   UNL     1      -2.313  -0.034   0.000  0.00  0.00    +0.000 A 
ATOM     11  S   UNL     1      -3.960  -0.126   0.001  0.00  0.00    +0.000 S 
ATOM     12  N   UNL     1      -1.551   1.107   0.001  0.00  0.00    +0.000 N 
ATOM     13  H   UNL     1      -1.883   2.034   0.002  0.00  0.00    +0.000 HD
ENDROOT
TORSDOF 0
