REMARK  Name = *****
REMARK  3 active torsions:
REMARK  status: ('A' for Active; 'I' for Inactive)
REMARK    1  A    between atoms: C_1  and  O_2
REMARK    2  A    between atoms: O_2  and  C_3
REMARK    3  A    between atoms: C_10  and  C_12
REMARK                            x       y       z     vdW  Elec       q    Type
REMARK                         _______ _______ _______ _____ _____    ______ ____
ROOT
ATOM      1  C   UNL     1       3.028   0.668   1.085  0.00  0.00    +0.000 A 
ATOM      2  C   UNL     1       4.178   1.412   0.792  0.00  0.00    +0.000 A 
ATOM      3  C   UNL     1       4.807   2.049   1.858  0.00  0.00    +0.000 A 
ATOM      4  C   UNL     1       4.365   1.986   3.172  0.00  0.00    +0.000 A 
ATOM      5  C   UNL     1       3.212   1.236   3.455  0.00  0.00    +0.000 A 
ATOM      6  C   UNL     1       2.554   0.582   2.398  0.00  0.00    +0.000 A 
ATOM      7  C   UNL     1       5.282   2.765   3.923  0.00  0.00    +0.000 A 
ATOM      8  C   UNL     1       6.224   3.256   3.035  0.00  0.00    +0.000 A 
ATOM      9  O   UNL     1       5.929   2.814   1.771  0.00  0.00    +0.000 OA
ENDROOT
BRANCH   8  10
ATOM     10  C   UNL     1       7.379   4.106   3.265  0.00  0.00    +0.000 C 
ATOM     11  O   UNL     1       7.664   4.514   4.389  0.00  0.00    +0.000 OA
ATOM     12 CL   UNL     1       8.314   4.492   1.836  0.00  0.00    +0.000 Cl
ENDBRANCH   8  10
BRANCH   1  14
ATOM     13  C   UNL     1       1.273  -0.684   0.208  0.00  0.00    +0.000 C 
ATOM     14  O   UNL     1       2.459   0.069  -0.009  0.00  0.00    +0.000 OA
ENDBRANCH   1  14
TORSDOF 2
