REMARK  Name = *****
REMARK  0 active torsions:
REMARK  status: ('A' for Active; 'I' for Inactive)
REMARK                            x       y       z     vdW  Elec       q    Type
REMARK                         _______ _______ _______ _____ _____    ______ ____
ROOT
ATOM      1  C   UNL     1       0.916   1.433   0.001  0.00  0.00    +0.000 A 
ATOM      2  C   UNL     1       2.117   0.709   0.001  0.00  0.00    +0.000 A 
ATOM      3  C   UNL     1       2.138  -0.685   0.000  0.00  0.00    +0.000 A 
ATOM      4  C   UNL     1       0.933  -1.386  -0.001  0.00  0.00    +0.000 A 
ATOM      5  C   UNL     1      -0.299  -0.708  -0.001  0.00  0.00    +0.000 A 
ATOM      6  C   UNL     1      -0.270   0.691  -0.000  0.00  0.00    +0.000 A 
ATOM      7  N   UNL     1      -1.593   1.061  -0.000  0.00  0.00    +0.000 N 
ATOM      8  C   UNL     1      -2.328  -0.080  -0.001  0.00  0.00    +0.000 A 
ATOM      9  N   UNL     1      -1.602  -1.165  -0.001  0.00  0.00    +0.000 NA
ATOM     10 CL   UNL     1      -4.018   0.037   0.001  0.00  0.00    +0.000 Cl
ATOM     11 CL   UNL     1       0.870  -3.091  -0.002  0.00  0.00    +0.000 Cl
ATOM     12 CL   UNL     1       3.608   1.573   0.004  0.00  0.00    +0.000 Cl
ATOM     13  H   UNL     1      -1.942   1.982  -0.000  0.00  0.00    +0.000 HD
ENDROOT
TORSDOF 0
