REMARK  Name = *****
REMARK  0 active torsions:
REMARK  status: ('A' for Active; 'I' for Inactive)
REMARK                            x       y       z     vdW  Elec       q    Type
REMARK                         _______ _______ _______ _____ _____    ______ ____
ROOT
ATOM      1  C   UNL     1       0.909  -1.386  -0.001  0.00  0.00    +0.000 A 
ATOM      2  C   UNL     1      -0.260  -0.660  -0.001  0.00  0.00    +0.000 A 
ATOM      3  C   UNL     1      -0.252   0.718  -0.000  0.00  0.00    +0.000 A 
ATOM      4  C   UNL     1       0.915   1.458  -0.000  0.00  0.00    +0.000 A 
ATOM      5  C   UNL     1       2.128   0.749   0.000  0.00  0.00    +0.000 A 
ATOM      6  C   UNL     1       2.115  -0.671  -0.000  0.00  0.00    +0.000 A 
ATOM      7 CL   UNL     1       3.573  -1.604  -0.001  0.00  0.00    +0.000 Cl
ATOM      8 CL   UNL     1       3.637   1.609   0.002  0.00  0.00    +0.000 Cl
ATOM      9 CL   UNL     1       0.817   3.179  -0.000  0.00  0.00    +0.000 Cl
ATOM     10  N   UNL     1      -1.568   1.097  -0.001  0.00  0.00    +0.000 N 
ATOM     11  C   UNL     1      -2.341  -0.038  -0.001  0.00  0.00    +0.000 A 
ATOM     12  O   UNL     1      -3.561  -0.056  -0.001  0.00  0.00    +0.000 OA
ATOM     13  O   UNL     1      -1.541  -1.188  -0.001  0.00  0.00    +0.000 OA
ATOM     14  H   UNL     1      -1.902   2.024  -0.001  0.00  0.00    +0.000 HD
ENDROOT
TORSDOF 0
