REMARK  Name = *****
REMARK  0 active torsions:
REMARK  status: ('A' for Active; 'I' for Inactive)
REMARK                            x       y       z     vdW  Elec       q    Type
REMARK                         _______ _______ _______ _____ _____    ______ ____
ROOT
ATOM      1  C   UNL     1       0.829  -0.064   0.149  0.00  0.00    +0.000 C 
ATOM      2  C   UNL     1       2.157   0.052   0.031  0.00  0.00    +0.000 C 
ATOM      3  C   UNL     1       3.160  -1.064  -0.149  0.00  0.00    +0.000 C 
ATOM      4  C   UNL     1       2.763  -2.485   0.260  0.00  0.00    +0.000 C 
ATOM      5  C   UNL     1       3.938  -3.444   0.045  0.00  0.00    +0.000 C 
ATOM      6  C   UNL     1       5.219  -2.970   0.734  0.00  0.00    +0.000 C 
ATOM      7  C   UNL     1       5.574  -1.521   0.385  0.00  0.00    +0.000 C 
ATOM      8  C   UNL     1       4.382  -0.603   0.664  0.00  0.00    +0.000 C 
ATOM      9  C   UNL     1       4.504   0.867   0.340  0.00  0.00    +0.000 C 
ATOM     10  C   UNL     1       5.631   1.572   0.189  0.00  0.00    +0.000 C 
ATOM     11  S   UNL     1       2.935   1.622   0.121  0.00  0.00    +0.000 S 
ENDROOT
TORSDOF 0
