REMARK  Name = *****
REMARK  0 active torsions:
REMARK  status: ('A' for Active; 'I' for Inactive)
REMARK                            x       y       z     vdW  Elec       q    Type
REMARK                         _______ _______ _______ _____ _____    ______ ____
ROOT
ATOM      1  C   UNL     1       2.540  -0.867   0.000  0.00  0.00    +0.000 A 
ATOM      2  C   UNL     1       1.449  -1.762   0.001  0.00  0.00    +0.000 A 
ATOM      3  C   UNL     1       0.118  -1.278   0.000  0.00  0.00    +0.000 A 
ATOM      4  C   UNL     1      -1.116  -1.976   0.001  0.00  0.00    +0.000 A 
ATOM      5  C   UNL     1      -2.348  -1.279   0.000  0.00  0.00    +0.000 A 
ATOM      6  C   UNL     1      -2.406   0.130  -0.000  0.00  0.00    +0.000 A 
ATOM      7  C   UNL     1      -1.185   0.775  -0.001  0.00  0.00    +0.000 A 
ATOM      8  C   UNL     1       0.003   0.080  -0.000  0.00  0.00    +0.000 A 
ATOM      9  C   UNL     1       1.047   0.990  -0.001  0.00  0.00    +0.000 A 
ATOM     10  C   UNL     1       2.361   0.528  -0.001  0.00  0.00    +0.000 A 
ATOM     11  C   UNL     1       0.517   2.339  -0.002  0.00  0.00    +0.000 C 
ATOM     12  O   UNL     1       1.049   3.440  -0.002  0.00  0.00    +0.000 OA
ATOM     13  N   UNL     1      -0.869   2.122  -0.001  0.00  0.00    +0.000 N 
ATOM     14 CL   UNL     1      -1.158  -3.703   0.002  0.00  0.00    +0.000 Cl
ATOM     15  H   UNL     1      -1.539   2.843  -0.002  0.00  0.00    +0.000 HD
ENDROOT
TORSDOF 0
