REMARK  Name = *****
REMARK  3 active torsions:
REMARK  status: ('A' for Active; 'I' for Inactive)
REMARK    1  A    between atoms: C_1  and  C_2
REMARK    2  A    between atoms: C_9  and  O_12
REMARK    3  A    between atoms: O_12  and  C_13
REMARK                            x       y       z     vdW  Elec       q    Type
REMARK                         _______ _______ _______ _____ _____    ______ ____
ROOT
ATOM      1  C   UNL     1      -3.577  -0.723   0.014  0.00  0.00    +0.000 C 
ATOM      2  C   UNL     1      -2.162  -0.226   0.007  0.00  0.00    +0.000 A 
ATOM      3  C   UNL     1      -1.083  -1.120   0.005  0.00  0.00    +0.000 A 
ATOM      4  C   UNL     1       0.245  -0.657   0.002  0.00  0.00    +0.000 A 
ATOM      5  C   UNL     1       0.493   0.732   0.000  0.00  0.00    +0.000 A 
ATOM      6  C   UNL     1      -0.592   1.623   0.003  0.00  0.00    +0.000 A 
ATOM      7  C   UNL     1      -1.905   1.148   0.007  0.00  0.00    +0.000 A 
ATOM      8  C   UNL     1       1.821   1.192  -0.004  0.00  0.00    +0.000 A 
ATOM      9  C   UNL     1       2.898   0.301  -0.006  0.00  0.00    +0.000 A 
ATOM     10  C   UNL     1       2.649  -1.070  -0.005  0.00  0.00    +0.000 A 
ATOM     11  C   UNL     1       1.332  -1.544  -0.001  0.00  0.00    +0.000 A 
ENDROOT
BRANCH   9  12
ATOM     12  O   UNL     1       4.131   0.894  -0.010  0.00  0.00    +0.000 OA
ATOM     13  C   UNL     1       5.260   0.031  -0.013  0.00  0.00    +0.000 C 
ENDBRANCH   9  12
TORSDOF 1
