REMARK  Name = *****
REMARK  0 active torsions:
REMARK  status: ('A' for Active; 'I' for Inactive)
REMARK                            x       y       z     vdW  Elec       q    Type
REMARK                         _______ _______ _______ _____ _____    ______ ____
ROOT
ATOM      1  C   UNL     1       1.173   1.390  -0.005  0.00  0.00    +0.000 A 
ATOM      2  C   UNL     1       2.282   0.574  -0.007  0.00  0.00    +0.000 A 
ATOM      3  S   UNL     1       1.914  -1.090  -0.004  0.00  0.00    +0.000 S 
ATOM      4  C   UNL     1       0.258  -0.747  -0.002  0.00  0.00    +0.000 A 
ATOM      5  C   UNL     1       0.007   0.597  -0.003  0.00  0.00    +0.000 A 
ATOM      6  S   UNL     1      -1.666   1.084  -0.001  0.00  0.00    +0.000 S 
ATOM      7  C   UNL     1      -2.315  -0.578   0.001  0.00  0.00    +0.000 A 
ATOM      8  S   UNL     1      -3.954  -0.903   0.003  0.00  0.00    +0.000 S 
ATOM      9  S   UNL     1      -1.080  -1.867   0.001  0.00  0.00    +0.000 S 
ATOM     10 CL   UNL     1       3.923   1.078  -0.010  0.00  0.00    +0.000 Cl
ENDROOT
TORSDOF 0
