REMARK  Name = *****
REMARK  0 active torsions:
REMARK  status: ('A' for Active; 'I' for Inactive)
REMARK                            x       y       z     vdW  Elec       q    Type
REMARK                         _______ _______ _______ _____ _____    ______ ____
ROOT
ATOM      1  C   UNL     1       0.899  -1.415  -0.037  0.00  0.00    +0.000 A 
ATOM      2  C   UNL     1       2.096  -0.692  -0.080  0.00  0.00    +0.000 A 
ATOM      3  C   UNL     1       2.112   0.718  -0.077  0.00  0.00    +0.000 A 
ATOM      4  C   UNL     1       0.914   1.436  -0.030  0.00  0.00    +0.000 A 
ATOM      5  C   UNL     1      -0.260   0.717   0.012  0.00  0.00    +0.000 A 
ATOM      6  C   UNL     1      -0.260  -0.677   0.008  0.00  0.00    +0.000 A 
ATOM      7  N   UNL     1      -1.582  -1.107   0.056  0.00  0.00    +0.000 N 
ATOM      8  C   UNL     1      -2.422   0.015   0.089  0.00  0.00    +0.000 A 
ATOM      9  O   UNL     1      -3.639   0.010   0.132  0.00  0.00    +0.000 OA
ATOM     10  N   UNL     1      -1.588   1.140   0.062  0.00  0.00    +0.000 N 
ATOM     11 CL   UNL     1       0.922   3.152  -0.026  0.00  0.00    +0.000 Cl
ATOM     12 CL   UNL     1       3.591  -1.547  -0.140  0.00  0.00    +0.000 Cl
ATOM     13  H   UNL     1      -1.879  -2.046   0.065  0.00  0.00    +0.000 HD
ATOM     14  H   UNL     1      -1.889   2.077   0.075  0.00  0.00    +0.000 HD
ENDROOT
TORSDOF 0
