REMARK  Name = *****
REMARK  1 active torsions:
REMARK  status: ('A' for Active; 'I' for Inactive)
REMARK    1  A    between atoms: C_7  and  O_12
REMARK                            x       y       z     vdW  Elec       q    Type
REMARK                         _______ _______ _______ _____ _____    ______ ____
ROOT
ATOM      1  C   UNL     1       1.272  -1.394   0.002  0.00  0.00    +0.000 A 
ATOM      2  C   UNL     1       2.461  -0.655   0.001  0.00  0.00    +0.000 A 
ATOM      3  C   UNL     1       2.442   0.735   0.003  0.00  0.00    +0.000 A 
ATOM      4  C   UNL     1       1.218   1.396   0.005  0.00  0.00    +0.000 A 
ATOM      5  C   UNL     1       0.018   0.666   0.005  0.00  0.00    +0.000 A 
ATOM      6  C   UNL     1       0.029  -0.744   0.004  0.00  0.00    +0.000 A 
ATOM      7  C   UNL     1      -1.276  -1.441   0.004  0.00  0.00    +0.000 A 
ATOM      8  C   UNL     1      -2.419  -0.748   0.004  0.00  0.00    +0.000 A 
ATOM      9  C   UNL     1      -2.430   0.727   0.005  0.00  0.00    +0.000 A 
ATOM     10  O   UNL     1      -3.484   1.352   0.004  0.00  0.00    +0.000 OA
ATOM     11  N   UNL     1      -1.214   1.344   0.006  0.00  0.00    +0.000 N 
ATOM     12 CL   UNL     1       1.215   3.124   0.007  0.00  0.00    +0.000 Cl
ATOM     13 CL   UNL     1       3.971  -1.482  -0.001  0.00  0.00    +0.000 Cl
ATOM     14  H   UNL     1      -1.198   2.328   0.007  0.00  0.00    +0.000 HD
ENDROOT
BRANCH   7  15
ATOM     15  O   UNL     1      -1.339  -2.821   0.003  0.00  0.00    +0.000 OA
ATOM     16  H   UNL     1      -0.549  -3.326   0.003  0.00  0.00    +0.000 HD
ENDBRANCH   7  15
TORSDOF 1
