REMARK  Name = *****
REMARK  0 active torsions:
REMARK  status: ('A' for Active; 'I' for Inactive)
REMARK                            x       y       z     vdW  Elec       q    Type
REMARK                         _______ _______ _______ _____ _____    ______ ____
ROOT
ATOM      1  C   UNL     1      -2.223   0.734  -0.224  0.00  0.00    +0.000 C 
ATOM      2  C   UNL     1      -2.224  -0.734   0.224  0.00  0.00    +0.000 C 
ATOM      3  C   UNL     1      -0.948  -1.483  -0.182  0.00  0.00    +0.000 C 
ATOM      4  C   UNL     1       0.270  -0.706   0.292  0.00  0.00    +0.000 C 
ATOM      5  C   UNL     1       1.635  -1.229  -0.130  0.00  0.00    +0.000 C 
ATOM      6  C   UNL     1       2.555  -0.005  -0.001  0.00  0.00    +0.000 C 
ATOM      7  C   UNL     1       1.638   1.222   0.122  0.00  0.00    +0.000 C 
ATOM      8  C   UNL     1       0.271   0.702  -0.297  0.00  0.00    +0.000 C 
ATOM      9  C   UNL     1      -0.944   1.481   0.179  0.00  0.00    +0.000 C 
ENDROOT
TORSDOF 0
