REMARK  Name = *****
REMARK  2 active torsions:
REMARK  status: ('A' for Active; 'I' for Inactive)
REMARK    1  A    between atoms: C_1  and  O_2
REMARK    2  A    between atoms: O_2  and  C_3
REMARK                            x       y       z     vdW  Elec       q    Type
REMARK                         _______ _______ _______ _____ _____    ______ ____
ROOT
ATOM      1  C   UNL     1       3.245   0.811  -0.809  0.00  0.00    +0.000 A 
ATOM      2  C   UNL     1       2.970   2.163  -1.030  0.00  0.00    +0.000 A 
ATOM      3  C   UNL     1       3.793   2.974  -1.861  0.00  0.00    +0.000 A 
ATOM      4  C   UNL     1       4.917   2.356  -2.468  0.00  0.00    +0.000 A 
ATOM      5  C   UNL     1       5.772   3.099  -3.298  0.00  0.00    +0.000 A 
ATOM      6  C   UNL     1       5.540   4.449  -3.545  0.00  0.00    +0.000 A 
ATOM      7  C   UNL     1       4.445   5.077  -2.965  0.00  0.00    +0.000 A 
ATOM      8  C   UNL     1       3.580   4.354  -2.133  0.00  0.00    +0.000 A 
ATOM      9  I   UNL     1       1.963   5.453  -1.329  0.00  0.00    +0.000 I 
ATOM     10  C   UNL     1       5.181   0.998  -2.241  0.00  0.00    +0.000 A 
ATOM     11  C   UNL     1       4.352   0.235  -1.421  0.00  0.00    +0.000 A 
ENDROOT
BRANCH   1  13
ATOM     12  C   UNL     1       1.401   0.503   0.665  0.00  0.00    +0.000 C 
ATOM     13  O   UNL     1       2.516  -0.044  -0.028  0.00  0.00    +0.000 OA
ENDBRANCH   1  13
TORSDOF 1
