REMARK  Name = *****
REMARK  4 active torsions:
REMARK  status: ('A' for Active; 'I' for Inactive)
REMARK    1  A    between atoms: C_1  and  C_2
REMARK    2  A    between atoms: C_4  and  C_13
REMARK    3  A    between atoms: C_8  and  C_12
REMARK    4  A    between atoms: C_9  and  C_11
REMARK                            x       y       z     vdW  Elec       q    Type
REMARK                         _______ _______ _______ _____ _____    ______ ____
ROOT
ATOM      1  C   UNL     1       0.952  -0.083  -0.061  0.00  0.00    +0.000 C 
ATOM      2  C   UNL     1       2.453  -0.069  -0.066  0.00  0.00    +0.000 A 
ATOM      3  C   UNL     1       3.182  -1.262  -0.071  0.00  0.00    +0.000 A 
ATOM      4  C   UNL     1       4.590  -1.279  -0.077  0.00  0.00    +0.000 A 
ATOM      5  C   UNL     1       5.230  -0.026  -0.078  0.00  0.00    +0.000 A 
ATOM      6  C   UNL     1       4.542   1.187  -0.073  0.00  0.00    +0.000 A 
ATOM      7  C   UNL     1       3.132   1.159  -0.067  0.00  0.00    +0.000 A 
ATOM      8  C   UNL     1       5.516   2.240  -0.076  0.00  0.00    +0.000 A 
ATOM      9  C   UNL     1       6.764   1.639  -0.082  0.00  0.00    +0.000 A 
ATOM     10  N   UNL     1       6.571   0.281  -0.083  0.00  0.00    +0.000 N 
ATOM     11  C   UNL     1       8.132   2.217  -0.088  0.00  0.00    +0.000 C 
ATOM     12  C   UNL     1       5.244   3.703  -0.073  0.00  0.00    +0.000 C 
ATOM     13  C   UNL     1       5.337  -2.579  -0.082  0.00  0.00    +0.000 C 
ATOM     14  H   UNL     1       7.296  -0.385  -0.087  0.00  0.00    +0.000 HD
ENDROOT
TORSDOF 0
