REMARK  Name = *****
REMARK  5 active torsions:
REMARK  status: ('A' for Active; 'I' for Inactive)
REMARK    1  A    between atoms: C_1  and  C_2
REMARK    2  A    between atoms: C_6  and  C_7
REMARK    3  A    between atoms: C_6  and  C_8
REMARK    4  A    between atoms: C_11  and  O_13
REMARK    5  A    between atoms: O_13  and  C_14
REMARK                            x       y       z     vdW  Elec       q    Type
REMARK                         _______ _______ _______ _____ _____    ______ ____
ROOT
ATOM      1  C   UNL     1       0.628   0.053   0.294  0.00  0.00    +0.000 C 
ATOM      2  C   UNL     1       2.129   0.038   0.009  0.00  0.00    +0.000 C 
ATOM      3  C   UNL     1       2.744  -1.228   0.551  0.00  0.00    +0.000 A 
ATOM      4  C   UNL     1       3.475  -0.982   1.715  0.00  0.00    +0.000 A 
ATOM      5  C   UNL     1       3.431   0.468   2.085  0.00  0.00    +0.000 C 
ATOM      6  C   UNL     1       2.971   1.134   0.756  0.00  0.00    +0.000 C 
ATOM      7  C   UNL     1       4.211   1.498  -0.096  0.00  0.00    +0.000 C 
ATOM      8  C   UNL     1       2.202   2.429   1.045  0.00  0.00    +0.000 C 
ATOM      9  C   UNL     1       4.096  -2.014   2.396  0.00  0.00    +0.000 A 
ATOM     10  C   UNL     1       3.993  -3.313   1.886  0.00  0.00    +0.000 A 
ATOM     11  C   UNL     1       3.266  -3.567   0.711  0.00  0.00    +0.000 A 
ATOM     12  C   UNL     1       2.635  -2.513   0.041  0.00  0.00    +0.000 A 
ENDROOT
BRANCH  11  13
ATOM     13  O   UNL     1       3.096  -4.793   0.124  0.00  0.00    +0.000 OA
ATOM     14  C   UNL     1       3.704  -5.904   0.770  0.00  0.00    +0.000 C 
ENDBRANCH  11  13
TORSDOF 1
