REMARK  Name = *****
REMARK  0 active torsions:
REMARK  status: ('A' for Active; 'I' for Inactive)
REMARK                            x       y       z     vdW  Elec       q    Type
REMARK                         _______ _______ _______ _____ _____    ______ ____
ROOT
ATOM      1  C   UNL     1      -1.150  -1.385   0.176  0.00  0.00    +0.000 C 
ATOM      2  C   UNL     1      -2.242  -0.350  -0.016  0.00  0.00    +0.000 C 
ATOM      3  C   UNL     1      -1.967   0.959  -0.157  0.00  0.00    +0.000 C 
ATOM      4  C   UNL     1      -0.608   1.452  -0.059  0.00  0.00    +0.000 C 
ATOM      5  C   UNL     1       0.413   0.586  -0.140  0.00  0.00    +0.000 C 
ATOM      6  C   UNL     1       0.200  -0.890  -0.355  0.00  0.00    +0.000 C 
ATOM      7  C   UNL     1       1.440  -1.501   0.288  0.00  0.00    +0.000 C 
ATOM      8  C   UNL     1       2.523  -0.550  -0.187  0.00  0.00    +0.000 C 
ATOM      9  C   UNL     1       1.871   0.800   0.120  0.00  0.00    +0.000 C 
ATOM     10  F   UNL     1       2.405   1.814  -0.595  0.00  0.00    +0.000 F 
ATOM     11  F   UNL     1       2.036   1.120   1.432  0.00  0.00    +0.000 F 
ATOM     12  F   UNL     1       2.744  -0.693  -1.521  0.00  0.00    +0.000 F 
ATOM     13  F   UNL     1       3.711  -0.732   0.426  0.00  0.00    +0.000 F 
ATOM     14  F   UNL     1       1.641  -2.785  -0.072  0.00  0.00    +0.000 F 
ATOM     15  F   UNL     1       1.330  -1.487   1.642  0.00  0.00    +0.000 F 
ATOM     16  F   UNL     1       0.227  -1.124  -1.701  0.00  0.00    +0.000 F 
ATOM     17 CL   UNL     1      -3.234   2.111  -0.343  0.00  0.00    +0.000 Cl
ENDROOT
TORSDOF 0
