REMARK  Name = *****
REMARK  0 active torsions:
REMARK  status: ('A' for Active; 'I' for Inactive)
REMARK                            x       y       z     vdW  Elec       q    Type
REMARK                         _______ _______ _______ _____ _____    ______ ____
ROOT
ATOM      1  C   UNL     1      -1.355  -1.540   0.301  0.00  0.00    +0.000 C 
ATOM      2  C   UNL     1      -2.400  -0.506  -0.152  0.00  0.00    +0.000 C 
ATOM      3  C   UNL     1      -1.845   0.882   0.249  0.00  0.00    +0.000 C 
ATOM      4  C   UNL     1      -0.369   0.628   0.073  0.00  0.00    +0.000 A 
ATOM      5  C   UNL     1      -0.094  -0.749   0.105  0.00  0.00    +0.000 A 
ATOM      6  C   UNL     1       1.204  -1.223   0.008  0.00  0.00    +0.000 A 
ATOM      7  C   UNL     1       2.232  -0.290  -0.141  0.00  0.00    +0.000 A 
ATOM      8  C   UNL     1       1.963   1.087  -0.179  0.00  0.00    +0.000 A 
ATOM      9  C   UNL     1       0.651   1.557  -0.066  0.00  0.00    +0.000 A 
ATOM     10 CL   UNL     1       3.859  -0.838  -0.274  0.00  0.00    +0.000 Cl
ATOM     11 CL   UNL     1      -2.143   1.342   1.944  0.00  0.00    +0.000 Cl
ATOM     12 CL   UNL     1      -4.032  -0.883   0.437  0.00  0.00    +0.000 Cl
ENDROOT
TORSDOF 0
