REMARK  Name = *****
REMARK  0 active torsions:
REMARK  status: ('A' for Active; 'I' for Inactive)
REMARK                            x       y       z     vdW  Elec       q    Type
REMARK                         _______ _______ _______ _____ _____    ______ ____
ROOT
ATOM      1  C   UNL     1      -2.442   0.689   0.002  0.00  0.00    +0.000 A 
ATOM      2  C   UNL     1      -2.390  -0.704   0.002  0.00  0.00    +0.000 A 
ATOM      3  C   UNL     1      -1.154  -1.360   0.001  0.00  0.00    +0.000 A 
ATOM      4  C   UNL     1       0.046  -0.638  -0.001  0.00  0.00    +0.000 A 
ATOM      5  C   UNL     1      -0.033   0.750  -0.001  0.00  0.00    +0.000 A 
ATOM      6  C   UNL     1      -1.260   1.424   0.000  0.00  0.00    +0.000 A 
ATOM      7  C   UNL     1       1.230   1.474  -0.002  0.00  0.00    +0.000 C 
ATOM      8  O   UNL     1       1.279   2.694  -0.004  0.00  0.00    +0.000 OA
ATOM      9  C   UNL     1       2.469   0.593  -0.000  0.00  0.00    +0.000 C 
ATOM     10  O   UNL     1       3.555   1.164   0.003  0.00  0.00    +0.000 OA
ATOM     11  N   UNL     1       2.362  -0.784  -0.002  0.00  0.00    +0.000 NA
ATOM     12  N   UNL     1       1.251  -1.361  -0.002  0.00  0.00    +0.000 NA
ENDROOT
TORSDOF 0
