REMARK  Name = *****
REMARK  3 active torsions:
REMARK  status: ('A' for Active; 'I' for Inactive)
REMARK    1  A    between atoms: C_1  and  C_2
REMARK    2  A    between atoms: C_3  and  N_4
REMARK    3  A    between atoms: N_4  and  C_5
REMARK                            x       y       z     vdW  Elec       q    Type
REMARK                         _______ _______ _______ _____ _____    ______ ____
ROOT
ATOM      1  C   UNL     1       5.268   0.578   2.423  0.00  0.00    +0.000 A 
ATOM      2  C   UNL     1       6.025   1.721   2.280  0.00  0.00    +0.000 A 
ATOM      3  C   UNL     1       6.575   2.208   3.511  0.00  0.00    +0.000 A 
ATOM      4  C   UNL     1       7.381   3.341   3.777  0.00  0.00    +0.000 A 
ATOM      5  C   UNL     1       7.805   3.618   5.080  0.00  0.00    +0.000 A 
ATOM      6  C   UNL     1       7.440   2.782   6.127  0.00  0.00    +0.000 A 
ATOM      7  C   UNL     1       6.649   1.655   5.894  0.00  0.00    +0.000 A 
ATOM      8  C   UNL     1       6.224   1.381   4.579  0.00  0.00    +0.000 A 
ATOM      9  S   UNL     1       5.259   0.057   4.055  0.00  0.00    +0.000 S 
ENDROOT
BRANCH   1  10
ATOM     10  N   UNL     1       4.627  -0.138   1.462  0.00  0.00    +0.000 NA
BRANCH  10  13
ATOM     11  C   UNL     1       1.252  -0.202   0.173  0.00  0.00    +0.000 C 
ATOM     12  C   UNL     1       2.542  -0.524   0.311  0.00  0.00    +0.000 C 
ATOM     13  C   UNL     1       3.379   0.167   1.313  0.00  0.00    +0.000 C 
ENDBRANCH  10  13
ENDBRANCH   1  10
TORSDOF 2
