REMARK  Name = *****
REMARK  5 active torsions:
REMARK  status: ('A' for Active; 'I' for Inactive)
REMARK    1  A    between atoms: C_1  and  C_2
REMARK    2  A    between atoms: C_3  and  C_14
REMARK    3  A    between atoms: C_4  and  C_13
REMARK    4  A    between atoms: C_8  and  O_11
REMARK    5  A    between atoms: O_11  and  C_12
REMARK                            x       y       z     vdW  Elec       q    Type
REMARK                         _______ _______ _______ _____ _____    ______ ____
ROOT
ATOM      1  C   UNL     1       0.911  -0.077   0.008  0.00  0.00    +0.000 C 
ATOM      2  C   UNL     1       2.436  -0.085   0.020  0.00  0.00    +0.000 C 
ATOM      3  C   UNL     1       3.050   1.079  -0.753  0.00  0.00    +0.000 C 
ATOM      4  C   UNL     1       3.832   0.664  -1.772  0.00  0.00    +0.000 C 
ATOM      5  C   UNL     1       3.819  -0.799  -1.773  0.00  0.00    +0.000 A 
ATOM      6  C   UNL     1       3.007  -1.256  -0.730  0.00  0.00    +0.000 A 
ATOM      7  C   UNL     1       2.832  -2.612  -0.497  0.00  0.00    +0.000 A 
ATOM      8  C   UNL     1       3.475  -3.532  -1.332  0.00  0.00    +0.000 A 
ATOM      9  C   UNL     1       4.285  -3.073  -2.383  0.00  0.00    +0.000 A 
ATOM     10  C   UNL     1       4.461  -1.700  -2.607  0.00  0.00    +0.000 A 
ATOM     11  C   UNL     1       4.615   1.445  -2.765  0.00  0.00    +0.000 C 
ATOM     12  C   UNL     1       2.778   2.478  -0.315  0.00  0.00    +0.000 C 
ENDROOT
BRANCH   8  13
ATOM     13  O   UNL     1       3.235  -4.843  -1.020  0.00  0.00    +0.000 OA
ATOM     14  C   UNL     1       3.860  -5.824  -1.838  0.00  0.00    +0.000 C 
ENDBRANCH   8  13
TORSDOF 1
