REMARK  Name = *****
REMARK  0 active torsions:
REMARK  status: ('A' for Active; 'I' for Inactive)
REMARK                            x       y       z     vdW  Elec       q    Type
REMARK                         _______ _______ _______ _____ _____    ______ ____
ROOT
ATOM      1  C   UNL     1       2.149  -0.714  -0.116  0.00  0.00    +0.000 A 
ATOM      2  C   UNL     1       0.938  -1.403  -0.017  0.00  0.00    +0.000 A 
ATOM      3  C   UNL     1      -0.239  -0.657   0.077  0.00  0.00    +0.000 A 
ATOM      4  C   UNL     1      -0.246   0.737   0.077  0.00  0.00    +0.000 A 
ATOM      5  C   UNL     1      -1.616   1.073   0.188  0.00  0.00    +0.000 A 
ATOM      6  N   UNL     1      -2.409   0.001   0.253  0.00  0.00    +0.000 NA
ATOM      7  N   UNL     1      -1.552  -1.031   0.184  0.00  0.00    +0.000 N 
ATOM      8  C   UNL     1       0.983   1.412  -0.022  0.00  0.00    +0.000 A 
ATOM      9  C   UNL     1       2.175   0.683  -0.119  0.00  0.00    +0.000 A 
ATOM     10 CL   UNL     1       3.711   1.463  -0.244  0.00  0.00    +0.000 Cl
ATOM     11 CL   UNL     1       0.881   3.121  -0.014  0.00  0.00    +0.000 Cl
ATOM     12 CL   UNL     1       0.903  -3.119  -0.013  0.00  0.00    +0.000 Cl
ATOM     13  H   UNL     1      -1.842  -1.972   0.207  0.00  0.00    +0.000 HD
ENDROOT
TORSDOF 0
