REMARK  Name = *****
REMARK  2 active torsions:
REMARK  status: ('A' for Active; 'I' for Inactive)
REMARK    1  A    between atoms: C_1  and  C_2
REMARK    2  A    between atoms: C_2  and  C_3
REMARK                            x       y       z     vdW  Elec       q    Type
REMARK                         _______ _______ _______ _____ _____    ______ ____
ROOT
ATOM      1  C   UNL     1       3.091  -1.280   0.167  0.00  0.00    +0.000 C 
ATOM      2  C   UNL     1       2.143  -2.460  -0.044  0.00  0.00    +0.000 C 
ATOM      3  O   UNL     1       1.095  -2.369  -0.686  0.00  0.00    +0.000 OA
ATOM      4  N   UNL     1       2.549  -3.706   0.358  0.00  0.00    +0.000 N 
ATOM      5  C   UNL     1       3.652  -4.007   1.166  0.00  0.00    +0.000 A 
ATOM      6  C   UNL     1       4.368  -3.017   1.854  0.00  0.00    +0.000 A 
ATOM      7  S   UNL     1       3.886  -1.305   1.804  0.00  0.00    +0.000 S 
ATOM      8  C   UNL     1       5.443  -3.383   2.672  0.00  0.00    +0.000 A 
ATOM      9  C   UNL     1       5.801  -4.724   2.795  0.00  0.00    +0.000 A 
ATOM     10  C   UNL     1       5.086  -5.711   2.121  0.00  0.00    +0.000 A 
ATOM     11  C   UNL     1       4.005  -5.353   1.313  0.00  0.00    +0.000 A 
ATOM     12 CL   UNL     1       7.128  -5.168   3.796  0.00  0.00    +0.000 Cl
ATOM     13  H   UNL     1       2.009  -4.468   0.046  0.00  0.00    +0.000 HD
ENDROOT
BRANCH   1  15
ATOM     14  C   UNL     1       1.311   0.479   0.849  0.00  0.00    +0.000 C 
ATOM     15  C   UNL     1       2.422   0.075  -0.117  0.00  0.00    +0.000 C 
ENDBRANCH   1  15
TORSDOF 1
