REMARK  Name = *****
REMARK  3 active torsions:
REMARK  status: ('A' for Active; 'I' for Inactive)
REMARK    1  A    between atoms: C_6  and  C_8
REMARK    2  A    between atoms: C_8  and  C_9
REMARK    3  A    between atoms: C_9  and  C_10
REMARK                            x       y       z     vdW  Elec       q    Type
REMARK                         _______ _______ _______ _____ _____    ______ ____
ROOT
ATOM      1  C   UNL     1       2.122  -0.766   0.027  0.00  0.00    +0.000 A 
ATOM      2  C   UNL     1       0.884  -1.381  -0.200  0.00  0.00    +0.000 A 
ATOM      3  C   UNL     1      -0.261  -0.572  -0.204  0.00  0.00    +0.000 A 
ATOM      4  C   UNL     1      -0.211   0.808   0.008  0.00  0.00    +0.000 A 
ATOM      5  C   UNL     1      -1.553   1.284  -0.068  0.00  0.00    +0.000 A 
ATOM      6  C   UNL     1      -2.378   0.208  -0.328  0.00  0.00    +0.000 A 
ATOM      7  N   UNL     1      -1.582  -0.910  -0.396  0.00  0.00    +0.000 N 
ATOM      8  C   UNL     1       1.055   1.384   0.232  0.00  0.00    +0.000 A 
ATOM      9  C   UNL     1       2.213   0.607   0.242  0.00  0.00    +0.000 A 
ATOM     10 CL   UNL     1       1.099   3.074   0.486  0.00  0.00    +0.000 Cl
ATOM     11  H   UNL     1      -1.910  -1.823  -0.560  0.00  0.00    +0.000 HD
ENDROOT
BRANCH   6  12
ATOM     12  C   UNL     1      -3.856   0.134  -0.515  0.00  0.00    +0.000 C 
BRANCH  12  13
ATOM     13  C   UNL     1      -4.304   0.630  -1.893  0.00  0.00    +0.000 C 
BRANCH  13  14
ATOM     14  C   UNL     1      -3.718  -0.126  -3.082  0.00  0.00    +0.000 C 
ATOM     15 CL   UNL     1      -4.128  -1.857  -3.048  0.00  0.00    +0.000 Cl
ENDBRANCH  13  14
ENDBRANCH  12  13
ENDBRANCH   6  12
TORSDOF 3
