REMARK  Name = *****
REMARK  2 active torsions:
REMARK  status: ('A' for Active; 'I' for Inactive)
REMARK    1  A    between atoms: C_2  and  O_3
REMARK    2  A    between atoms: O_3  and  C_4
REMARK                            x       y       z     vdW  Elec       q    Type
REMARK                         _______ _______ _______ _____ _____    ______ ____
ROOT
ATOM      1  C   UNL     1       4.540   1.305  -0.262  0.00  0.00    +0.000 A 
ATOM      2  C   UNL     1       5.152   2.153   0.660  0.00  0.00    +0.000 A 
ATOM      3  C   UNL     1       6.548   2.155   0.802  0.00  0.00    +0.000 A 
ATOM      4  C   UNL     1       7.330   1.299  -0.012  0.00  0.00    +0.000 A 
ATOM      5  C   UNL     1       6.694   0.469  -0.950  0.00  0.00    +0.000 A 
ATOM      6  C   UNL     1       5.304   0.477  -1.081  0.00  0.00    +0.000 A 
ATOM      7  C   UNL     1       8.727   1.302   0.130  0.00  0.00    +0.000 A 
ATOM      8  C   UNL     1       9.338   2.140   1.063  0.00  0.00    +0.000 A 
ATOM      9  C   UNL     1       8.575   2.984   1.865  0.00  0.00    +0.000 A 
ATOM     10  C   UNL     1       7.185   2.991   1.734  0.00  0.00    +0.000 A 
ATOM     11 BR   UNL     1      11.220   2.130   1.240  0.00  0.00    +0.000 Br
ENDROOT
BRANCH   1  12
ATOM     12  O   UNL     1       3.173   1.370  -0.384  0.00  0.00    +0.000 OA
BRANCH  12  14
ATOM     13  C   UNL     1       1.163   0.119  -0.358  0.00  0.00    +0.000 C 
ATOM     14  C   UNL     1       2.476   0.211  -0.138  0.00  0.00    +0.000 C 
ENDBRANCH  12  14
ENDBRANCH   1  12
TORSDOF 2
