REMARK  Name = *****
REMARK  2 active torsions:
REMARK  status: ('A' for Active; 'I' for Inactive)
REMARK    1  A    between atoms: C_1  and  O_2
REMARK    2  A    between atoms: O_2  and  C_3
REMARK                            x       y       z     vdW  Elec       q    Type
REMARK                         _______ _______ _______ _____ _____    ______ ____
ROOT
ATOM      1  C   UNL     1       2.943   0.935  -1.117  0.00  0.00    +0.000 A 
ATOM      2  C   UNL     1       4.036   0.579  -1.911  0.00  0.00    +0.000 A 
ATOM      3  C   UNL     1       4.718   1.527  -2.692  0.00  0.00    +0.000 A 
ATOM      4  C   UNL     1       5.812   1.137  -3.483  0.00  0.00    +0.000 A 
ATOM      5  C   UNL     1       6.499   2.064  -4.265  0.00  0.00    +0.000 A 
ATOM      6  C   UNL     1       6.102   3.395  -4.267  0.00  0.00    +0.000 A 
ATOM      7  C   UNL     1       5.017   3.798  -3.485  0.00  0.00    +0.000 A 
ATOM      8  C   UNL     1       4.300   2.878  -2.681  0.00  0.00    +0.000 A 
ATOM      9  C   UNL     1       3.192   3.220  -1.866  0.00  0.00    +0.000 A 
ATOM     10  C   UNL     1       2.523   2.260  -1.095  0.00  0.00    +0.000 A 
ATOM     11 CL   UNL     1       2.595   4.847  -1.773  0.00  0.00    +0.000 Cl
ENDROOT
BRANCH   1  13
ATOM     12  C   UNL     1       1.237   0.198   0.368  0.00  0.00    +0.000 C 
ATOM     13  O   UNL     1       2.384  -0.099  -0.419  0.00  0.00    +0.000 OA
ENDBRANCH   1  13
TORSDOF 1
