REMARK  Name = *****
REMARK  0 active torsions:
REMARK  status: ('A' for Active; 'I' for Inactive)
REMARK                            x       y       z     vdW  Elec       q    Type
REMARK                         _______ _______ _______ _____ _____    ______ ____
ROOT
ATOM      1  C   UNL     1       0.683   1.574   0.002  0.00  0.00    +0.000 A 
ATOM      2  C   UNL     1       1.982   1.061   0.001  0.00  0.00    +0.000 A 
ATOM      3  C   UNL     1       2.218  -0.335   0.000  0.00  0.00    +0.000 A 
ATOM      4  C   UNL     1       1.146  -1.247   0.001  0.00  0.00    +0.000 A 
ATOM      5  C   UNL     1      -0.139  -0.720   0.003  0.00  0.00    +0.000 A 
ATOM      6  C   UNL     1      -0.349   0.660   0.003  0.00  0.00    +0.000 A 
ATOM      7  C   UNL     1      -1.796   0.886   0.004  0.00  0.00    +0.000 C 
ATOM      8  O   UNL     1      -2.365   1.952   0.004  0.00  0.00    +0.000 OA
ATOM      9  C   UNL     1      -2.429  -0.530   0.004  0.00  0.00    +0.000 C 
ATOM     10  O   UNL     1      -3.611  -0.791   0.005  0.00  0.00    +0.000 OA
ATOM     11  N   UNL     1      -1.360  -1.403   0.004  0.00  0.00    +0.000 N 
ATOM     12  I   UNL     1       1.401  -3.325   0.001  0.00  0.00    +0.000 I 
ATOM     13 CL   UNL     1       3.875  -0.833  -0.002  0.00  0.00    +0.000 Cl
ATOM     14  H   UNL     1      -1.446  -2.383   0.004  0.00  0.00    +0.000 HD
ENDROOT
TORSDOF 0
