REMARK  Name = *****
REMARK  2 active torsions:
REMARK  status: ('A' for Active; 'I' for Inactive)
REMARK    1  A    between atoms: C_6  and  O_11
REMARK    2  A    between atoms: O_11  and  C_12
REMARK                            x       y       z     vdW  Elec       q    Type
REMARK                         _______ _______ _______ _____ _____    ______ ____
ROOT
ATOM      1  C   UNL     1       2.430  -0.680  -0.081  0.00  0.00    +0.000 A 
ATOM      2  C   UNL     1       2.422   0.712  -0.102  0.00  0.00    +0.000 A 
ATOM      3  C   UNL     1       1.211   1.404  -0.044  0.00  0.00    +0.000 A 
ATOM      4  C   UNL     1      -0.008   0.711   0.037  0.00  0.00    +0.000 A 
ATOM      5  C   UNL     1      -1.236   1.390   0.100  0.00  0.00    +0.000 A 
ATOM      6  C   UNL     1      -2.446   0.696   0.187  0.00  0.00    +0.000 A 
ATOM      7  C   UNL     1      -2.435  -0.697   0.201  0.00  0.00    +0.000 A 
ATOM      8  C   UNL     1      -1.220  -1.389   0.137  0.00  0.00    +0.000 A 
ATOM      9  C   UNL     1       0.000  -0.701   0.057  0.00  0.00    +0.000 A 
ATOM     10  C   UNL     1       1.226  -1.383  -0.003  0.00  0.00    +0.000 A 
ENDROOT
BRANCH   6  11
ATOM     11  O   UNL     1      -3.555   1.494   0.247  0.00  0.00    +0.000 OA
BRANCH  11  12
ATOM     12  C   UNL     1      -4.802   0.844   0.446  0.00  0.00    +0.000 C 
ATOM     13 CL   UNL     1      -6.069   2.085   0.571  0.00  0.00    +0.000 Cl
ENDBRANCH  11  12
ENDBRANCH   6  11
TORSDOF 2
