REMARK  Name = *****
REMARK  4 active torsions:
REMARK  status: ('A' for Active; 'I' for Inactive)
REMARK    1  A    between atoms: C_1  and  C_2
REMARK    2  A    between atoms: C_3  and  C_13
REMARK    3  A    between atoms: C_8  and  O_11
REMARK    4  A    between atoms: O_11  and  C_12
REMARK                            x       y       z     vdW  Elec       q    Type
REMARK                         _______ _______ _______ _____ _____    ______ ____
ROOT
ATOM      1  C   UNL     1       0.948   0.095   0.072  0.00  0.00    +0.000 C 
ATOM      2  C   UNL     1       2.435  -0.081   0.072  0.00  0.00    +0.000 A 
ATOM      3  C   UNL     1       3.111  -1.291   0.071  0.00  0.00    +0.000 A 
ATOM      4  S   UNL     1       4.807  -1.080   0.070  0.00  0.00    +0.000 S 
ATOM      5  C   UNL     1       4.685   0.630   0.071  0.00  0.00    +0.000 A 
ATOM      6  C   UNL     1       3.354   1.044   0.072  0.00  0.00    +0.000 A 
ATOM      7  C   UNL     1       3.103   2.441   0.073  0.00  0.00    +0.000 A 
ATOM      8  C   UNL     1       4.149   3.373   0.073  0.00  0.00    +0.000 A 
ATOM      9  C   UNL     1       5.462   2.925   0.072  0.00  0.00    +0.000 A 
ATOM     10  C   UNL     1       5.747   1.555   0.071  0.00  0.00    +0.000 A 
ATOM     11  C   UNL     1       2.582  -2.689   0.072  0.00  0.00    +0.000 C 
ENDROOT
BRANCH   8  12
ATOM     12  O   UNL     1       3.744   4.680   0.074  0.00  0.00    +0.000 OA
ATOM     13  C   UNL     1       4.765   5.670   0.075  0.00  0.00    +0.000 C 
ENDBRANCH   8  12
TORSDOF 1
