REMARK  Name = *****
REMARK  2 active torsions:
REMARK  status: ('A' for Active; 'I' for Inactive)
REMARK    1  A    between atoms: C_1  and  O_2
REMARK    2  A    between atoms: O_2  and  C_3
REMARK                            x       y       z     vdW  Elec       q    Type
REMARK                         _______ _______ _______ _____ _____    ______ ____
ROOT
ATOM      1  C   UNL     1       2.972  -1.083   0.613  0.00  0.00    +0.000 A 
ATOM      2  C   UNL     1       4.158  -0.788   1.290  0.00  0.00    +0.000 A 
ATOM      3  C   UNL     1       4.995  -1.799   1.804  0.00  0.00    +0.000 A 
ATOM      4  C   UNL     1       4.614  -3.143   1.640  0.00  0.00    +0.000 A 
ATOM      5  C   UNL     1       5.353  -4.303   2.166  0.00  0.00    +0.000 C 
ATOM      6  C   UNL     1       6.681  -4.392   2.325  0.00  0.00    +0.000 C 
ATOM      7  C   UNL     1       7.700  -3.332   2.049  0.00  0.00    +0.000 C 
ATOM      8  C   UNL     1       7.362  -1.991   2.619  0.00  0.00    +0.000 C 
ATOM      9  C   UNL     1       6.193  -1.341   2.528  0.00  0.00    +0.000 C 
ATOM     10  C   UNL     1       3.410  -3.428   0.969  0.00  0.00    +0.000 A 
ATOM     11  C   UNL     1       2.598  -2.411   0.455  0.00  0.00    +0.000 A 
ENDROOT
BRANCH   1  13
ATOM     12  C   UNL     1       1.093  -0.244  -0.577  0.00  0.00    +0.000 C 
ATOM     13  O   UNL     1       2.278   0.008   0.167  0.00  0.00    +0.000 OA
ENDBRANCH   1  13
TORSDOF 1
