REMARK  Name = *****
REMARK  0 active torsions:
REMARK  status: ('A' for Active; 'I' for Inactive)
REMARK                            x       y       z     vdW  Elec       q    Type
REMARK                         _______ _______ _______ _____ _____    ______ ____
ROOT
ATOM      1  C   UNL     1       2.125  -0.733  -0.040  0.00  0.00    +0.000 A 
ATOM      2  C   UNL     1       2.158   0.660  -0.025  0.00  0.00    +0.000 A 
ATOM      3  C   UNL     1       0.960   1.379  -0.020  0.00  0.00    +0.000 A 
ATOM      4  C   UNL     1      -0.290   0.726  -0.030  0.00  0.00    +0.000 A 
ATOM      5  C   UNL     1      -1.660   1.127  -0.030  0.00  0.00    +0.000 A 
ATOM      6  C   UNL     1      -2.421  -0.016  -0.045  0.00  0.00    +0.000 A 
ATOM      7  N   UNL     1      -1.590  -1.097  -0.053  0.00  0.00    +0.000 N 
ATOM      8  C   UNL     1      -0.281  -0.674  -0.045  0.00  0.00    +0.000 A 
ATOM      9  C   UNL     1       0.906  -1.410  -0.050  0.00  0.00    +0.000 A 
ATOM     10  F   UNL     1       0.881  -2.749  -0.064  0.00  0.00    +0.000 F 
ATOM     11  I   UNL     1      -4.451  -0.110  -0.054  0.00  0.00    +0.000 I 
ATOM     12 CL   UNL     1       0.933   3.087  -0.002  0.00  0.00    +0.000 Cl
ATOM     13  H   UNL     1      -1.882  -2.037  -0.063  0.00  0.00    +0.000 HD
ENDROOT
TORSDOF 0
