REMARK  Name = *****
REMARK  2 active torsions:
REMARK  status: ('A' for Active; 'I' for Inactive)
REMARK    1  A    between atoms: C_1  and  C_2
REMARK    2  A    between atoms: C_3  and  C_12
REMARK                            x       y       z     vdW  Elec       q    Type
REMARK                         _______ _______ _______ _____ _____    ______ ____
ROOT
ATOM      1  C   UNL     1       0.964   0.120  -0.020  0.00  0.00    +0.000 C 
ATOM      2  C   UNL     1       2.484  -0.057  -0.079  0.00  0.00    +0.000 C 
ATOM      3  C   UNL     1       3.081   0.120  -1.482  0.00  0.00    +0.000 C 
ATOM      4  S   UNL     1       2.444  -1.080  -2.689  0.00  0.00    +0.000 S 
ATOM      5  C   UNL     1       2.541  -2.598  -1.854  0.00  0.00    +0.000 A 
ATOM      6  C   UNL     1       2.723  -2.808  -0.535  0.00  0.00    +0.000 A 
ATOM      7  S   UNL     1       2.956  -1.623   0.713  0.00  0.00    +0.000 S 
ATOM      8  S   UNL     1       2.764  -4.481  -0.008  0.00  0.00    +0.000 S 
ATOM      9  C   UNL     1       2.511  -5.212  -1.576  0.00  0.00    +0.000 A 
ATOM     10  S   UNL     1       2.436  -6.857  -1.828  0.00  0.00    +0.000 S 
ATOM     11  S   UNL     1       2.347  -4.027  -2.852  0.00  0.00    +0.000 S 
ATOM     12  C   UNL     1       4.613   0.129  -1.513  0.00  0.00    +0.000 C 
ENDROOT
TORSDOF 0
