REMARK  Name = *****
REMARK  2 active torsions:
REMARK  status: ('A' for Active; 'I' for Inactive)
REMARK    1  A    between atoms: C_1  and  C_2
REMARK    2  A    between atoms: C_2  and  N_3
REMARK                            x       y       z     vdW  Elec       q    Type
REMARK                         _______ _______ _______ _____ _____    ______ ____
ROOT
ATOM      1  N   UNL     1       2.902   1.289   1.002  0.00  0.00    +0.000 N 
ATOM      2  C   UNL     1       2.627   2.674   0.878  0.00  0.00    +0.000 A 
ATOM      3  C   UNL     1       3.107   3.350   2.008  0.00  0.00    +0.000 A 
ATOM      4  C   UNL     1       3.004   4.716   2.207  0.00  0.00    +0.000 A 
ATOM      5  C   UNL     1       2.379   5.447   1.206  0.00  0.00    +0.000 A 
ATOM      6  C   UNL     1       1.880   4.813   0.058  0.00  0.00    +0.000 A 
ATOM      7  C   UNL     1       2.000   3.422  -0.114  0.00  0.00    +0.000 A 
ATOM      8 CL   UNL     1       1.345   2.766  -1.563  0.00  0.00    +0.000 Cl
ATOM      9 CL   UNL     1       2.210   7.150   1.375  0.00  0.00    +0.000 Cl
ATOM     10  C   UNL     1       3.705   2.369   2.908  0.00  0.00    +0.000 C 
ATOM     11  O   UNL     1       4.223   2.590   3.978  0.00  0.00    +0.000 OA
ATOM     12  C   UNL     1       3.532   1.008   2.210  0.00  0.00    +0.000 C 
ATOM     13  O   UNL     1       3.881  -0.058   2.671  0.00  0.00    +0.000 OA
ENDROOT
BRANCH   1  15
ATOM     14  C   UNL     1       1.112  -0.264   0.334  0.00  0.00    +0.000 C 
ATOM     15  C   UNL     1       2.527   0.236   0.087  0.00  0.00    +0.000 C 
ENDBRANCH   1  15
TORSDOF 1
