REMARK  Name = *****
REMARK  4 active torsions:
REMARK  status: ('A' for Active; 'I' for Inactive)
REMARK    1  A    between atoms: C_1  and  C_2
REMARK    2  A    between atoms: C_4  and  C_13
REMARK    3  A    between atoms: C_6  and  C_12
REMARK    4  A    between atoms: C_9  and  C_11
REMARK                            x       y       z     vdW  Elec       q    Type
REMARK                         _______ _______ _______ _____ _____    ______ ____
ROOT
ATOM      1  C   UNL     1       1.028   0.035   0.055  0.00  0.00    +0.000 C 
ATOM      2  C   UNL     1       2.548  -0.086   0.060  0.00  0.00    +0.000 C 
ATOM      3  C   UNL     1       3.173   1.058  -0.697  0.00  0.00    +0.000 C 
ATOM      4  C   UNL     1       3.901   0.658  -1.754  0.00  0.00    +0.000 C 
ATOM      5  C   UNL     1       3.855  -0.811  -1.807  0.00  0.00    +0.000 A 
ATOM      6  C   UNL     1       4.433  -1.724  -2.690  0.00  0.00    +0.000 A 
ATOM      7  C   UNL     1       4.218  -3.092  -2.450  0.00  0.00    +0.000 A 
ATOM      8  C   UNL     1       3.459  -3.535  -1.356  0.00  0.00    +0.000 A 
ATOM      9  C   UNL     1       2.888  -2.626  -0.460  0.00  0.00    +0.000 A 
ATOM     10  C   UNL     1       3.071  -1.267  -0.719  0.00  0.00    +0.000 A 
ATOM     11  C   UNL     1       2.082  -3.129   0.698  0.00  0.00    +0.000 C 
ATOM     12  C   UNL     1       5.266  -1.319  -3.868  0.00  0.00    +0.000 C 
ATOM     13  C   UNL     1       4.635   1.546  -2.688  0.00  0.00    +0.000 C 
ENDROOT
TORSDOF 0
