REMARK  Name = *****
REMARK  2 active torsions:
REMARK  status: ('A' for Active; 'I' for Inactive)
REMARK    1  A    between atoms: C_1  and  O_2
REMARK    2  A    between atoms: O_2  and  C_3
REMARK                            x       y       z     vdW  Elec       q    Type
REMARK                         _______ _______ _______ _____ _____    ______ ____
ROOT
ATOM      1  C   UNL     1       2.927   0.546   1.112  0.00  0.00    +0.000 A 
ATOM      2  C   UNL     1       2.558   0.153   2.400  0.00  0.00    +0.000 A 
ATOM      3  C   UNL     1       3.277   0.584   3.546  0.00  0.00    +0.000 A 
ATOM      4  C   UNL     1       4.393   1.435   3.350  0.00  0.00    +0.000 A 
ATOM      5  C   UNL     1       5.135   1.889   4.454  0.00  0.00    +0.000 A 
ATOM      6  C   UNL     1       4.793   1.515   5.752  0.00  0.00    +0.000 A 
ATOM      7  C   UNL     1       3.702   0.681   5.964  0.00  0.00    +0.000 A 
ATOM      8  C   UNL     1       2.951   0.219   4.878  0.00  0.00    +0.000 A 
ATOM      9 CL   UNL     1       1.609  -0.816   5.244  0.00  0.00    +0.000 Cl
ATOM     10  C   UNL     1       4.755   1.823   2.052  0.00  0.00    +0.000 A 
ATOM     11  C   UNL     1       4.028   1.381   0.947  0.00  0.00    +0.000 A 
ENDROOT
BRANCH   1  13
ATOM     12  C   UNL     1       1.161  -0.651   0.060  0.00  0.00    +0.000 C 
ATOM     13  O   UNL     1       2.303   0.188  -0.051  0.00  0.00    +0.000 OA
ENDBRANCH   1  13
TORSDOF 1
