REMARK  Name = *****
REMARK  2 active torsions:
REMARK  status: ('A' for Active; 'I' for Inactive)
REMARK    1  A    between atoms: C_8  and  O_11
REMARK    2  A    between atoms: O_11  and  C_12
REMARK                            x       y       z     vdW  Elec       q    Type
REMARK                         _______ _______ _______ _____ _____    ______ ____
ROOT
ATOM      1  C   UNL     1       2.121   0.095   0.082  0.00  0.00    +0.000 A 
ATOM      2  C   UNL     1       2.771  -1.140   0.046  0.00  0.00    +0.000 A 
ATOM      3  C   UNL     1       4.159  -1.186  -0.046  0.00  0.00    +0.000 A 
ATOM      4  C   UNL     1       4.904  -0.007  -0.103  0.00  0.00    +0.000 A 
ATOM      5  C   UNL     1       4.260   1.241  -0.067  0.00  0.00    +0.000 A 
ATOM      6  C   UNL     1       2.852   1.293   0.027  0.00  0.00    +0.000 A 
ATOM      7  C   UNL     1       2.213   2.543   0.063  0.00  0.00    +0.000 A 
ATOM      8  C   UNL     1       2.944   3.734   0.009  0.00  0.00    +0.000 A 
ATOM      9  C   UNL     1       4.332   3.678  -0.084  0.00  0.00    +0.000 A 
ATOM     10  C   UNL     1       4.985   2.441  -0.122  0.00  0.00    +0.000 A 
ATOM     11  I   UNL     1       5.129  -3.024  -0.099  0.00  0.00    +0.000 I 
ENDROOT
BRANCH   8  12
ATOM     12  O   UNL     1       2.185   4.872   0.054  0.00  0.00    +0.000 OA
ATOM     13  C   UNL     1       2.881   6.111   0.020  0.00  0.00    +0.000 C 
ENDBRANCH   8  12
TORSDOF 1
