REMARK  Name = *****
REMARK  4 active torsions:
REMARK  status: ('A' for Active; 'I' for Inactive)
REMARK    1  A    between atoms: C_1  and  C_2
REMARK    2  A    between atoms: C_3  and  C_14
REMARK    3  A    between atoms: C_10  and  O_12
REMARK    4  A    between atoms: O_12  and  C_13
REMARK                            x       y       z     vdW  Elec       q    Type
REMARK                         _______ _______ _______ _____ _____    ______ ____
ROOT
ATOM      1  C   UNL     1       0.808  -0.037   0.153  0.00  0.00    +0.000 C 
ATOM      2  C   UNL     1       2.310   0.003   0.057  0.00  0.00    +0.000 A 
ATOM      3  C   UNL     1       3.038   1.217   0.060  0.00  0.00    +0.000 A 
ATOM      4  C   UNL     1       4.465   1.195  -0.039  0.00  0.00    +0.000 A 
ATOM      5  C   UNL     1       5.130  -0.050  -0.132  0.00  0.00    +0.000 A 
ATOM      6  C   UNL     1       4.390  -1.236  -0.129  0.00  0.00    +0.000 A 
ATOM      7  C   UNL     1       3.001  -1.211  -0.036  0.00  0.00    +0.000 A 
ATOM      8  C   UNL     1       6.531  -0.097  -0.229  0.00  0.00    +0.000 A 
ATOM      9  C   UNL     1       7.295   1.072  -0.237  0.00  0.00    +0.000 A 
ATOM     10  C   UNL     1       6.667   2.307  -0.149  0.00  0.00    +0.000 A 
ATOM     11  C   UNL     1       5.272   2.359  -0.051  0.00  0.00    +0.000 A 
ATOM     12  C   UNL     1       2.322   2.546   0.161  0.00  0.00    +0.000 C 
ENDROOT
BRANCH  10  13
ATOM     13  O   UNL     1       7.287   3.527  -0.146  0.00  0.00    +0.000 OA
ATOM     14  C   UNL     1       8.705   3.528  -0.249  0.00  0.00    +0.000 C 
ENDBRANCH  10  13
TORSDOF 1
