REMARK  Name = *****
REMARK  1 active torsions:
REMARK  status: ('A' for Active; 'I' for Inactive)
REMARK    1  A    between atoms: CA_9  and  C_11
REMARK                            x       y       z     vdW  Elec       q    Type
REMARK                         _______ _______ _______ _____ _____    ______ ____
ROOT
ATOM      1  C   UNL     1       2.092   0.733  -0.002  0.00  0.00    +0.000 A 
ATOM      2  C   UNL     1       0.865   1.403  -0.001  0.00  0.00    +0.000 A 
ATOM      3  C   UNL     1      -0.298   0.623  -0.001  0.00  0.00    +0.000 A 
ATOM      4  C   UNL     1      -0.275  -0.773  -0.003  0.00  0.00    +0.000 A 
ATOM      5  C   UNL     1       0.976  -1.427  -0.004  0.00  0.00    +0.000 A 
ATOM      6  C   UNL     1       2.144  -0.659  -0.004  0.00  0.00    +0.000 A 
ATOM      7 CL   UNL     1       3.674  -1.450  -0.005  0.00  0.00    +0.000 Cl
ATOM      8  C   UNL     1      -1.632  -1.209  -0.002  0.00  0.00    +0.000 A 
ATOM      9  CA  UNL     1      -2.444  -0.095  -0.001  0.00  0.00    +0.000 A 
ATOM     10  N   UNL     1      -1.619   1.005  -0.000  0.00  0.00    +0.000 N 
ATOM     11 CL   UNL     1      -2.125  -2.840  -0.003  0.00  0.00    +0.000 Cl
ATOM     12  H   UNL     1      -1.931   1.939   0.001  0.00  0.00    +0.000 HD
ENDROOT
BRANCH   9  13
ATOM     13  C   UNL     1      -3.878   0.013   0.000  0.00  0.00    +0.000 C 
ATOM     14  O   UNL     1      -4.470   1.088   0.002  0.00  0.00    +0.000 OA
ENDBRANCH   9  13
TORSDOF 1
