REMARK  Name = *****
REMARK  0 active torsions:
REMARK  status: ('A' for Active; 'I' for Inactive)
REMARK                            x       y       z     vdW  Elec       q    Type
REMARK                         _______ _______ _______ _____ _____    ______ ____
ROOT
ATOM      1  C   UNL     1      -1.384   1.216  -0.142  0.00  0.00    +0.000 C 
ATOM      2  C   UNL     1      -1.565  -0.092   0.641  0.00  0.00    +0.000 C 
ATOM      3  C   UNL     1      -0.198  -0.780   0.483  0.00  0.00    +0.000 C 
ATOM      4  C   UNL     1       0.148  -0.399  -0.963  0.00  0.00    +0.000 C 
ATOM      5  C   UNL     1       0.054   1.108  -0.682  0.00  0.00    +0.000 C 
ATOM      6  C   UNL     1       1.119   1.252   0.431  0.00  0.00    +0.000 C 
ATOM      7  C   UNL     1       0.916  -0.040   1.261  0.00  0.00    +0.000 C 
ATOM      8  C   UNL     1       0.607   0.459   2.632  0.00  0.00    +0.000 C 
ATOM      9  C   UNL     1       0.658   1.794   2.703  0.00  0.00    +0.000 C 
ATOM     10  C   UNL     1       1.012   2.432   1.398  0.00  0.00    +0.000 C 
ENDROOT
TORSDOF 0
