REMARK  Name = *****
REMARK  0 active torsions:
REMARK  status: ('A' for Active; 'I' for Inactive)
REMARK                            x       y       z     vdW  Elec       q    Type
REMARK                         _______ _______ _______ _____ _____    ______ ____
ROOT
ATOM      1  C   UNL     1       2.542  -0.861   0.000  0.00  0.00    +0.000 A 
ATOM      2  C   UNL     1       1.452  -1.757   0.000  0.00  0.00    +0.000 A 
ATOM      3  C   UNL     1       0.119  -1.277   0.000  0.00  0.00    +0.000 A 
ATOM      4  C   UNL     1      -1.118  -1.974   0.001  0.00  0.00    +0.000 A 
ATOM      5  C   UNL     1      -2.350  -1.276   0.000  0.00  0.00    +0.000 A 
ATOM      6  C   UNL     1      -2.406   0.133  -0.000  0.00  0.00    +0.000 A 
ATOM      7  C   UNL     1      -1.185   0.777  -0.001  0.00  0.00    +0.000 A 
ATOM      8  C   UNL     1       0.003   0.082  -0.000  0.00  0.00    +0.000 A 
ATOM      9  C   UNL     1       1.047   0.993  -0.000  0.00  0.00    +0.000 A 
ATOM     10  C   UNL     1       2.361   0.534  -0.000  0.00  0.00    +0.000 A 
ATOM     11  C   UNL     1       0.515   2.342  -0.001  0.00  0.00    +0.000 C 
ATOM     12  O   UNL     1       1.047   3.443  -0.001  0.00  0.00    +0.000 OA
ATOM     13  N   UNL     1      -0.870   2.124  -0.001  0.00  0.00    +0.000 N 
ATOM     14 BR   UNL     1      -1.176  -3.872   0.002  0.00  0.00    +0.000 Br
ATOM     15  H   UNL     1      -1.541   2.845  -0.001  0.00  0.00    +0.000 HD
ENDROOT
TORSDOF 0
