REMARK  Name = *****
REMARK  1 active torsions:
REMARK  status: ('A' for Active; 'I' for Inactive)
REMARK    1  A    between atoms: C_10  and  C_11
REMARK                            x       y       z     vdW  Elec       q    Type
REMARK                         _______ _______ _______ _____ _____    ______ ____
ROOT
ATOM      1  C   UNL     1      -1.663  -1.226   0.002  0.00  0.00    +0.000 C 
ATOM      2  C   UNL     1      -0.257  -0.698   0.002  0.00  0.00    +0.000 A 
ATOM      3  C   UNL     1      -0.276   0.707   0.001  0.00  0.00    +0.000 A 
ATOM      4  C   UNL     1       0.909   1.427   0.000  0.00  0.00    +0.000 A 
ATOM      5  C   UNL     1       2.118   0.722   0.001  0.00  0.00    +0.000 A 
ATOM      6  C   UNL     1       2.124  -0.682   0.002  0.00  0.00    +0.000 A 
ATOM      7  C   UNL     1       0.933  -1.409   0.003  0.00  0.00    +0.000 A 
ATOM      8 CL   UNL     1       3.628  -1.521   0.002  0.00  0.00    +0.000 Cl
ATOM      9  C   UNL     1      -1.666   1.149  -0.002  0.00  0.00    +0.000 C 
ATOM     10  C   UNL     1      -2.445   0.060  -0.002  0.00  0.00    +0.000 C 
ATOM     11 CL   UNL     1      -2.129   2.778  -0.005  0.00  0.00    +0.000 Cl
ENDROOT
BRANCH  10  12
ATOM     12  C   UNL     1      -3.911   0.044  -0.006  0.00  0.00    +0.000 C 
ATOM     13  O   UNL     1      -4.541  -1.007  -0.006  0.00  0.00    +0.000 OA
ENDBRANCH  10  12
TORSDOF 1
