REMARK  Name = *****
REMARK  0 active torsions:
REMARK  status: ('A' for Active; 'I' for Inactive)
REMARK                            x       y       z     vdW  Elec       q    Type
REMARK                         _______ _______ _______ _____ _____    ______ ____
ROOT
ATOM      1  C   UNL     1      -0.142  -0.708  -0.002  0.00  0.00    +0.000 A 
ATOM      2  C   UNL     1       0.210   0.582  -0.001  0.00  0.00    +0.000 A 
ATOM      3  S   UNL     1      -1.049   1.759   0.001  0.00  0.00    +0.000 S 
ATOM      4  C   UNL     1      -2.371   0.593   0.003  0.00  0.00    +0.000 A 
ATOM      5  O   UNL     1      -3.548   0.915   0.008  0.00  0.00    +0.000 OA
ATOM      6  S   UNL     1      -1.825  -1.082  -0.001  0.00  0.00    +0.000 S 
ATOM      7  S   UNL     1       1.894   0.954  -0.000  0.00  0.00    +0.000 S 
ATOM      8  C   UNL     1       2.450  -0.723   0.000  0.00  0.00    +0.000 A 
ATOM      9  S   UNL     1       4.057  -1.161   0.003  0.00  0.00    +0.000 S 
ATOM     10  S   UNL     1       1.119  -1.885  -0.002  0.00  0.00    +0.000 S 
ENDROOT
TORSDOF 0
