REMARK  Name = *****
REMARK  0 active torsions:
REMARK  status: ('A' for Active; 'I' for Inactive)
REMARK                            x       y       z     vdW  Elec       q    Type
REMARK                         _______ _______ _______ _____ _____    ______ ____
ROOT
ATOM      1  C   UNL     1       1.245  -1.397  -0.000  0.00  0.00    +0.000 A 
ATOM      2  C   UNL     1       2.436  -0.674  -0.000  0.00  0.00    +0.000 A 
ATOM      3  C   UNL     1       2.423   0.721   0.002  0.00  0.00    +0.000 A 
ATOM      4  C   UNL     1       1.203   1.400   0.003  0.00  0.00    +0.000 A 
ATOM      5  C   UNL     1      -0.002   0.688   0.003  0.00  0.00    +0.000 A 
ATOM      6  C   UNL     1       0.030  -0.707   0.001  0.00  0.00    +0.000 A 
ATOM      7  C   UNL     1      -1.252  -1.438   0.001  0.00  0.00    +0.000 A 
ATOM      8  O   UNL     1      -1.287  -2.662   0.000  0.00  0.00    +0.000 OA
ATOM      9  N   UNL     1      -2.388  -0.668   0.001  0.00  0.00    +0.000 N 
ATOM     10  C   UNL     1      -2.438   0.696   0.002  0.00  0.00    +0.000 A 
ATOM     11  O   UNL     1      -3.501   1.307   0.002  0.00  0.00    +0.000 OA
ATOM     12  N   UNL     1      -1.240   1.346   0.003  0.00  0.00    +0.000 N 
ATOM     13 CL   UNL     1       1.217   3.127   0.006  0.00  0.00    +0.000 Cl
ATOM     14 CL   UNL     1       3.939  -1.510  -0.002  0.00  0.00    +0.000 Cl
ATOM     15  H   UNL     1      -3.249  -1.145   0.001  0.00  0.00    +0.000 HD
ATOM     16  H   UNL     1      -1.243   2.330   0.004  0.00  0.00    +0.000 HD
ENDROOT
TORSDOF 0
