REMARK  Name = *****
REMARK  2 active torsions:
REMARK  status: ('A' for Active; 'I' for Inactive)
REMARK    1  A    between atoms: C_7  and  N_12
REMARK    2  A    between atoms: C_8  and  N_10
REMARK                            x       y       z     vdW  Elec       q    Type
REMARK                         _______ _______ _______ _____ _____    ______ ____
ROOT
ATOM      1  C   UNL     1       2.190  -0.655  -0.001  0.00  0.00    +0.000 A 
ATOM      2  C   UNL     1       2.126   0.735  -0.014  0.00  0.00    +0.000 A 
ATOM      3  C   UNL     1       0.897   1.398  -0.030  0.00  0.00    +0.000 A 
ATOM      4  C   UNL     1      -0.264   0.616  -0.031  0.00  0.00    +0.000 A 
ATOM      5  C   UNL     1      -0.241  -0.785  -0.017  0.00  0.00    +0.000 A 
ATOM      6  C   UNL     1       1.020  -1.423  -0.001  0.00  0.00    +0.000 A 
ATOM      7  C   UNL     1      -1.607  -1.219  -0.023  0.00  0.00    +0.000 A 
ATOM      8  C   UNL     1      -2.405  -0.096  -0.041  0.00  0.00    +0.000 A 
ATOM      9  N   UNL     1      -1.586   1.001  -0.045  0.00  0.00    +0.000 N 
ATOM     10  H   UNL     1      -1.898   1.934  -0.056  0.00  0.00    +0.000 HD
ENDROOT
BRANCH   8  11
ATOM     11  N   UNL     1      -3.807  -0.060  -0.054  0.00  0.00    +0.000 NA
ATOM     12  O   UNL     1      -4.287   1.080  -0.072  0.00  0.00    +0.000 OA
ENDBRANCH   8  11
BRANCH   7  13
ATOM     13  N   UNL     1      -2.105  -2.531  -0.014  0.00  0.00    +0.000 NA
ATOM     14  O   UNL     1      -1.262  -3.433   0.004  0.00  0.00    +0.000 OA
ENDBRANCH   7  13
TORSDOF 2
