REMARK  Name = *****
REMARK  0 active torsions:
REMARK  status: ('A' for Active; 'I' for Inactive)
REMARK                            x       y       z     vdW  Elec       q    Type
REMARK                         _______ _______ _______ _____ _____    ______ ____
ROOT
ATOM      1  C   UNL     1      -1.440  -1.097  -0.003  0.00  0.00    +0.000 A 
ATOM      2  C   UNL     1      -2.263  -0.004  -0.002  0.00  0.00    +0.000 A 
ATOM      3  S   UNL     1      -1.487   1.502   0.000  0.00  0.00    +0.000 S 
ATOM      4  C   UNL     1       0.060   0.692  -0.001  0.00  0.00    +0.000 A 
ATOM      5  C   UNL     1      -0.075  -0.675  -0.002  0.00  0.00    +0.000 A 
ATOM      6  S   UNL     1       1.472  -1.485  -0.003  0.00  0.00    +0.000 S 
ATOM      7  C   UNL     1       2.248   0.021  -0.001  0.00  0.00    +0.000 A 
ATOM      8  C   UNL     1       1.425   1.115   0.000  0.00  0.00    +0.000 A 
ATOM      9 CL   UNL     1       3.970   0.066  -0.001  0.00  0.00    +0.000 Cl
ATOM     10 CL   UNL     1      -3.985  -0.048  -0.003  0.00  0.00    +0.000 Cl
ENDROOT
TORSDOF 0
