REMARK  Name = *****
REMARK  2 active torsions:
REMARK  status: ('A' for Active; 'I' for Inactive)
REMARK    1  A    between atoms: C_9  and  O_11
REMARK    2  A    between atoms: O_11  and  C_12
REMARK                            x       y       z     vdW  Elec       q    Type
REMARK                         _______ _______ _______ _____ _____    ______ ____
ROOT
ATOM      1  C   UNL     1       1.936   0.127  -0.071  0.00  0.00    +0.000 A 
ATOM      2  C   UNL     1       2.615   1.347  -0.047  0.00  0.00    +0.000 A 
ATOM      3  C   UNL     1       4.007   1.360  -0.009  0.00  0.00    +0.000 A 
ATOM      4  C   UNL     1       4.726   0.164   0.005  0.00  0.00    +0.000 A 
ATOM      5  C   UNL     1       4.053  -1.069  -0.020  0.00  0.00    +0.000 A 
ATOM      6  C   UNL     1       2.641  -1.088  -0.059  0.00  0.00    +0.000 A 
ATOM      7  C   UNL     1       1.975  -2.322  -0.084  0.00  0.00    +0.000 A 
ATOM      8  C   UNL     1       2.689  -3.526  -0.072  0.00  0.00    +0.000 A 
ATOM      9  C   UNL     1       4.081  -3.512  -0.034  0.00  0.00    +0.000 A 
ATOM     10  C   UNL     1       4.753  -2.287  -0.008  0.00  0.00    +0.000 A 
ATOM     11  I   UNL     1       5.020   3.175   0.028  0.00  0.00    +0.000 I 
ENDROOT
BRANCH   9  12
ATOM     12  O   UNL     1       4.896  -4.611  -0.019  0.00  0.00    +0.000 OA
ATOM     13  C   UNL     1       4.263  -5.883  -0.063  0.00  0.00    +0.000 C 
ENDBRANCH   9  12
TORSDOF 1
