REMARK  Name = *****
REMARK  0 active torsions:
REMARK  status: ('A' for Active; 'I' for Inactive)
REMARK                            x       y       z     vdW  Elec       q    Type
REMARK                         _______ _______ _______ _____ _____    ______ ____
ROOT
ATOM      1  C   UNL     1       1.978   1.057  -0.000  0.00  0.00    +0.000 A 
ATOM      2  C   UNL     1       0.648   1.474  -0.029  0.00  0.00    +0.000 A 
ATOM      3  C   UNL     1      -0.386   0.533  -0.046  0.00  0.00    +0.000 A 
ATOM      4  C   UNL     1      -0.070  -0.838  -0.054  0.00  0.00    +0.000 A 
ATOM      5  C   UNL     1       1.262  -1.271  -0.026  0.00  0.00    +0.000 A 
ATOM      6  C   UNL     1       2.284  -0.309  -0.001  0.00  0.00    +0.000 A 
ATOM      7 CL   UNL     1       3.960  -0.738   0.031  0.00  0.00    +0.000 Cl
ATOM      8 CL   UNL     1       1.634  -2.963  -0.026  0.00  0.00    +0.000 Cl
ATOM      9  S   UNL     1      -1.517  -1.881  -0.030  0.00  0.00    +0.000 S 
ATOM     10  S   UNL     1      -2.845  -0.365  -0.092  0.00  0.00    +0.000 S 
ATOM     11  O   UNL     1      -3.422  -0.442   1.286  0.00  0.00    +0.000 OA
ATOM     12  N   UNL     1      -1.750   0.897  -0.153  0.00  0.00    +0.000 N 
ATOM     13 CL   UNL     1       0.307   3.165  -0.035  0.00  0.00    +0.000 Cl
ATOM     14  H   UNL     1      -2.035   1.834  -0.258  0.00  0.00    +0.000 HD
ENDROOT
TORSDOF 0
