REMARK  Name = *****
REMARK  1 active torsions:
REMARK  status: ('A' for Active; 'I' for Inactive)
REMARK    1  A    between atoms: C_10  and  C_12
REMARK                            x       y       z     vdW  Elec       q    Type
REMARK                         _______ _______ _______ _____ _____    ______ ____
ROOT
ATOM      1  C   UNL     1       2.159  -0.658   0.004  0.00  0.00    +0.000 A 
ATOM      2  C   UNL     1       0.960  -1.371   0.003  0.00  0.00    +0.000 A 
ATOM      3  C   UNL     1      -0.277  -0.703   0.001  0.00  0.00    +0.000 A 
ATOM      4  C   UNL     1      -0.267   0.689   0.000  0.00  0.00    +0.000 A 
ATOM      5  C   UNL     1       0.914   1.443   0.002  0.00  0.00    +0.000 A 
ATOM      6  C   UNL     1       2.132   0.738   0.004  0.00  0.00    +0.000 A 
ATOM      7 CL   UNL     1       3.653   1.562   0.005  0.00  0.00    +0.000 Cl
ATOM      8 CL   UNL     1       0.811   3.162   0.001  0.00  0.00    +0.000 Cl
ATOM      9  N   UNL     1      -1.594   1.044  -0.002  0.00  0.00    +0.000 N 
ATOM     10  C   UNL     1      -2.355  -0.101  -0.005  0.00  0.00    +0.000 A 
ATOM     11  N   UNL     1      -1.573  -1.169  -0.002  0.00  0.00    +0.000 NA
ATOM     12 CL   UNL     1       0.912  -3.076   0.003  0.00  0.00    +0.000 Cl
ATOM     13  H   UNL     1      -1.941   1.965  -0.002  0.00  0.00    +0.000 HD
ENDROOT
BRANCH  10  14
ATOM     14  C   UNL     1      -3.848  -0.024  -0.011  0.00  0.00    +0.000 C 
ATOM     15  F   UNL     1      -4.265   1.273   0.007  0.00  0.00    +0.000 F 
ATOM     16  F   UNL     1      -4.392  -0.588  -1.117  0.00  0.00    +0.000 F 
ATOM     17  F   UNL     1      -4.404  -0.623   1.071  0.00  0.00    +0.000 F 
ENDBRANCH  10  14
TORSDOF 1
