REMARK  Name = *****
REMARK  0 active torsions:
REMARK  status: ('A' for Active; 'I' for Inactive)
REMARK                            x       y       z     vdW  Elec       q    Type
REMARK                         _______ _______ _______ _____ _____    ______ ____
ROOT
ATOM      1  C   UNL     1       3.091   0.674   0.643  0.00  0.00    +0.000 C 
ATOM      2  C   UNL     1       4.275   1.218  -0.200  0.00  0.00    +0.000 C 
ATOM      3  C   UNL     1       4.084   0.478  -1.552  0.00  0.00    +0.000 C 
ATOM      4  C   UNL     1       2.566   0.707  -1.684  0.00  0.00    +0.000 C 
ATOM      5  C   UNL     1       2.224  -0.076  -0.389  0.00  0.00    +0.000 C 
ATOM      6  C   UNL     1       2.818  -1.400  -0.849  0.00  0.00    +0.000 C 
ATOM      7  C   UNL     1       4.267  -1.016  -1.195  0.00  0.00    +0.000 C 
ATOM      8  C   UNL     1       4.615  -2.281  -1.897  0.00  0.00    +0.000 C 
ATOM      9  C   UNL     1       3.980  -3.287  -1.252  0.00  0.00    +0.000 C 
ATOM     10  C   UNL     1       2.992  -2.755  -0.211  0.00  0.00    +0.000 C 
ENDROOT
TORSDOF 0
