REMARK  Name = *****
REMARK  1 active torsions:
REMARK  status: ('A' for Active; 'I' for Inactive)
REMARK    1  A    between atoms: N_2  and  C_3
REMARK                            x       y       z     vdW  Elec       q    Type
REMARK                         _______ _______ _______ _____ _____    ______ ____
ROOT
ATOM      1  C   UNL     1       2.983   0.180  -1.318  0.00  0.00    +0.000 A 
ATOM      2  C   UNL     1       4.030  -0.741  -1.235  0.00  0.00    +0.000 A 
ATOM      3  C   UNL     1       4.781  -1.088  -2.370  0.00  0.00    +0.000 A 
ATOM      4  C   UNL     1       5.830  -2.020  -2.298  0.00  0.00    +0.000 A 
ATOM      5  C   UNL     1       6.566  -2.354  -3.436  0.00  0.00    +0.000 A 
ATOM      6  C   UNL     1       6.265  -1.761  -4.658  0.00  0.00    +0.000 A 
ATOM      7  C   UNL     1       5.228  -0.832  -4.747  0.00  0.00    +0.000 A 
ATOM      8  C   UNL     1       4.477  -0.485  -3.612  0.00  0.00    +0.000 A 
ATOM      9  C   UNL     1       3.435   0.453  -3.682  0.00  0.00    +0.000 A 
ATOM     10  C   UNL     1       2.700   0.785  -2.542  0.00  0.00    +0.000 A 
ENDROOT
BRANCH   1  12
ATOM     11  C   UNL     1       1.189  -0.184   0.041  0.00  0.00    +0.000 C 
ATOM     12  N   UNL     1       2.248   0.521  -0.174  0.00  0.00    +0.000 NA
ENDBRANCH   1  12
TORSDOF 1
