REMARK  Name = *****
REMARK  3 active torsions:
REMARK  status: ('A' for Active; 'I' for Inactive)
REMARK    1  A    between atoms: C_1  and  C_2
REMARK    2  A    between atoms: C_9  and  O_11
REMARK    3  A    between atoms: O_11  and  C_12
REMARK                            x       y       z     vdW  Elec       q    Type
REMARK                         _______ _______ _______ _____ _____    ______ ____
ROOT
ATOM      1  C   UNL     1       0.949  -0.309   0.063  0.00  0.00    +0.000 C 
ATOM      2  C   UNL     1       2.435  -0.099   0.056  0.00  0.00    +0.000 A 
ATOM      3  C   UNL     1       2.972   1.177  -0.166  0.00  0.00    +0.000 A 
ATOM      4  C   UNL     1       4.355   1.353  -0.194  0.00  0.00    +0.000 A 
ATOM      5  C   UNL     1       5.208   0.265  -0.020  0.00  0.00    +0.000 A 
ATOM      6  C   UNL     1       4.687  -1.010   0.180  0.00  0.00    +0.000 A 
ATOM      7  C   UNL     1       3.302  -1.190   0.217  0.00  0.00    +0.000 A 
ATOM      8  S   UNL     1       6.949   0.590  -0.107  0.00  0.00    +0.000 S 
ATOM      9  C   UNL     1       6.807   2.411  -0.019  0.00  0.00    +0.000 C 
ATOM     10  S   UNL     1       5.117   2.929  -0.483  0.00  0.00    +0.000 S 
ENDROOT
BRANCH   9  11
ATOM     11  O   UNL     1       7.136   2.850   1.300  0.00  0.00    +0.000 OA
ATOM     12  C   UNL     1       7.747   4.131   1.312  0.00  0.00    +0.000 C 
ENDBRANCH   9  11
TORSDOF 1
