REMARK  Name = *****
REMARK  5 active torsions:
REMARK  status: ('A' for Active; 'I' for Inactive)
REMARK    1  A    between atoms: C_1  and  C_2
REMARK    2  A    between atoms: C_5  and  C_12
REMARK    3  A    between atoms: C_8  and  C_11
REMARK    4  A    between atoms: C_12  and  O_14
REMARK    5  A    between atoms: O_14  and  C_15
REMARK                            x       y       z     vdW  Elec       q    Type
REMARK                         _______ _______ _______ _____ _____    ______ ____
ROOT
ATOM      1  C   UNL     1       0.841   0.016   0.023  0.00  0.00    +0.000 C 
ATOM      2  C   UNL     1       2.340  -0.093   0.023  0.00  0.00    +0.000 A 
ATOM      3  C   UNL     1       3.043  -1.312  -0.124  0.00  0.00    +0.000 A 
ATOM      4  C   UNL     1       2.636  -2.669  -0.294  0.00  0.00    +0.000 A 
ATOM      5  C   UNL     1       3.764  -3.462  -0.388  0.00  0.00    +0.000 A 
ATOM      6  N   UNL     1       4.841  -2.616  -0.278  0.00  0.00    +0.000 N 
ATOM      7  C   UNL     1       4.440  -1.308  -0.116  0.00  0.00    +0.000 A 
ATOM      8  C   UNL     1       5.209  -0.140   0.032  0.00  0.00    +0.000 A 
ATOM      9  C   UNL     1       4.491   1.060   0.165  0.00  0.00    +0.000 A 
ATOM     10  C   UNL     1       3.098   1.085   0.162  0.00  0.00    +0.000 A 
ATOM     11  C   UNL     1       6.709  -0.103   0.034  0.00  0.00    +0.000 C 
ATOM     12  H   UNL     1       5.781  -2.908  -0.310  0.00  0.00    +0.000 HD
ENDROOT
BRANCH   5  13
ATOM     13  C   UNL     1       3.919  -4.883  -0.566  0.00  0.00    +0.000 C 
ATOM     14  O   UNL     1       4.997  -5.458  -0.632  0.00  0.00    +0.000 OA
BRANCH  13  15
ATOM     15  O   UNL     1       2.701  -5.485  -0.648  0.00  0.00    +0.000 OA
ATOM     16  C   UNL     1       2.764  -6.899  -0.826  0.00  0.00    +0.000 C 
ENDBRANCH  13  15
ENDBRANCH   5  13
TORSDOF 2
