REMARK  Name = *****
REMARK  0 active torsions:
REMARK  status: ('A' for Active; 'I' for Inactive)
REMARK                            x       y       z     vdW  Elec       q    Type
REMARK                         _______ _______ _______ _____ _____    ______ ____
ROOT
ATOM      1  C   UNL     1       0.904  -1.396  -0.000  0.00  0.00    +0.000 A 
ATOM      2  C   UNL     1       2.104  -0.680  -0.002  0.00  0.00    +0.000 A 
ATOM      3  C   UNL     1       2.122   0.729  -0.002  0.00  0.00    +0.000 A 
ATOM      4  C   UNL     1       0.922   1.443  -0.000  0.00  0.00    +0.000 A 
ATOM      5  C   UNL     1      -0.250   0.719   0.001  0.00  0.00    +0.000 A 
ATOM      6  C   UNL     1      -0.263  -0.663   0.001  0.00  0.00    +0.000 A 
ATOM      7  O   UNL     1      -1.548  -1.189   0.002  0.00  0.00    +0.000 OA
ATOM      8  C   UNL     1      -2.322  -0.032   0.002  0.00  0.00    +0.000 A 
ATOM      9  S   UNL     1      -3.968  -0.131   0.003  0.00  0.00    +0.000 S 
ATOM     10  N   UNL     1      -1.564   1.109   0.002  0.00  0.00    +0.000 N 
ATOM     11 CL   UNL     1       0.921   3.158  -0.001  0.00  0.00    +0.000 Cl
ATOM     12 CL   UNL     1       3.598  -1.538  -0.004  0.00  0.00    +0.000 Cl
ATOM     13  H   UNL     1      -1.900   2.035   0.003  0.00  0.00    +0.000 HD
ENDROOT
TORSDOF 0
