REMARK  Name = *****
REMARK  3 active torsions:
REMARK  status: ('A' for Active; 'I' for Inactive)
REMARK    1  A    between atoms: C_1  and  C_2
REMARK    2  A    between atoms: C_8  and  C_13
REMARK    3  A    between atoms: C_9  and  C_11
REMARK                            x       y       z     vdW  Elec       q    Type
REMARK                         _______ _______ _______ _____ _____    ______ ____
ROOT
ATOM      1  C   UNL     1       1.048  -0.142  -0.001  0.00  0.00    +0.000 C 
ATOM      2  C   UNL     1       2.548  -0.022   0.000  0.00  0.00    +0.000 A 
ATOM      3  C   UNL     1       3.231   1.206  -0.003  0.00  0.00    +0.000 A 
ATOM      4  C   UNL     1       4.622   1.197  -0.003  0.00  0.00    +0.000 A 
ATOM      5  C   UNL     1       5.352  -0.002   0.001  0.00  0.00    +0.000 A 
ATOM      6  C   UNL     1       4.694  -1.219   0.004  0.00  0.00    +0.000 A 
ATOM      7  C   UNL     1       3.295  -1.223   0.004  0.00  0.00    +0.000 A 
ATOM      8  C   UNL     1       6.785   0.303  -0.001  0.00  0.00    +0.000 C 
ATOM      9  C   UNL     1       6.892   1.645  -0.006  0.00  0.00    +0.000 C 
ATOM     10  C   UNL     1       5.570   2.361  -0.007  0.00  0.00    +0.000 C 
ATOM     11  C   UNL     1       7.866  -0.717   0.003  0.00  0.00    +0.000 C 
ATOM     12 CL   UNL     1       2.406   2.721  -0.008  0.00  0.00    +0.000 Cl
ENDROOT
BRANCH   9  13
ATOM     13  C   UNL     1       8.150   2.404  -0.010  0.00  0.00    +0.000 C 
ATOM     14  O   UNL     1       8.171   3.629  -0.015  0.00  0.00    +0.000 OA
ENDBRANCH   9  13
TORSDOF 1
