REMARK  Name = *****
REMARK  0 active torsions:
REMARK  status: ('A' for Active; 'I' for Inactive)
REMARK                            x       y       z     vdW  Elec       q    Type
REMARK                         _______ _______ _______ _____ _____    ______ ____
ROOT
ATOM      1  C   UNL     1       1.220  -1.265  -0.001  0.00  0.00    +0.000 A 
ATOM      2  C   UNL     1       2.239  -0.313  -0.001  0.00  0.00    +0.000 A 
ATOM      3  C   UNL     1       1.955   1.068  -0.001  0.00  0.00    +0.000 A 
ATOM      4  C   UNL     1       0.630   1.517  -0.001  0.00  0.00    +0.000 A 
ATOM      5  C   UNL     1      -0.380   0.574  -0.000  0.00  0.00    +0.000 A 
ATOM      6  C   UNL     1      -0.075  -0.785   0.000  0.00  0.00    +0.000 A 
ATOM      7  C   UNL     1      -1.345  -1.515   0.001  0.00  0.00    +0.000 C 
ATOM      8  O   UNL     1      -1.493  -2.714   0.001  0.00  0.00    +0.000 OA
ATOM      9  C   UNL     1      -2.446  -0.419   0.001  0.00  0.00    +0.000 C 
ATOM     10  O   UNL     1      -3.642  -0.599   0.001  0.00  0.00    +0.000 OA
ATOM     11  N   UNL     1      -1.761   0.779   0.000  0.00  0.00    +0.000 N 
ATOM     12 BR   UNL     1       0.258   3.366  -0.001  0.00  0.00    +0.000 Br
ATOM     13 BR   UNL     1       4.042  -0.886  -0.002  0.00  0.00    +0.000 Br
ATOM     14  H   UNL     1      -2.191   1.665   0.000  0.00  0.00    +0.000 HD
ENDROOT
TORSDOF 0
