REMARK  Name = *****
REMARK  3 active torsions:
REMARK  status: ('A' for Active; 'I' for Inactive)
REMARK    1  A    between atoms: C_1  and  O_2
REMARK    2  A    between atoms: O_2  and  C_3
REMARK    3  A    between atoms: C_10  and  C_13
REMARK                            x       y       z     vdW  Elec       q    Type
REMARK                         _______ _______ _______ _____ _____    ______ ____
ROOT
ATOM      1  C   UNL     1       3.197  -0.808  -0.784  0.00  0.00    +0.000 A 
ATOM      2  C   UNL     1       2.899  -1.207  -2.104  0.00  0.00    +0.000 A 
ATOM      3  C   UNL     1       3.521  -2.346  -2.696  0.00  0.00    +0.000 A 
ATOM      4  C   UNL     1       4.447  -3.078  -1.916  0.00  0.00    +0.000 A 
ATOM      5  C   UNL     1       4.728  -2.673  -0.604  0.00  0.00    +0.000 A 
ATOM      6  C   UNL     1       4.111  -1.554  -0.043  0.00  0.00    +0.000 A 
ATOM      7  C   UNL     1       5.091  -4.209  -2.450  0.00  0.00    +0.000 A 
ATOM      8  C   UNL     1       4.838  -4.649  -3.756  0.00  0.00    +0.000 A 
ATOM      9  C   UNL     1       3.937  -3.929  -4.538  0.00  0.00    +0.000 A 
ATOM     10  C   UNL     1       3.289  -2.804  -4.017  0.00  0.00    +0.000 A 
ATOM     11 BR   UNL     1       1.628  -0.170  -3.102  0.00  0.00    +0.000 Br
ENDROOT
BRANCH   1  13
ATOM     12  C   UNL     1       2.952   0.813   0.960  0.00  0.00    +0.000 C 
ATOM     13  O   UNL     1       2.548   0.301  -0.303  0.00  0.00    +0.000 OA
ENDBRANCH   1  13
BRANCH   8  14
ATOM     14  C   UNL     1       5.549  -5.851  -4.311  0.00  0.00    +0.000 C 
ATOM     15 CL   UNL     1       7.139  -5.394  -4.953  0.00  0.00    +0.000 Cl
ENDBRANCH   8  14
TORSDOF 2
