REMARK  Name = *****
REMARK  4 active torsions:
REMARK  status: ('A' for Active; 'I' for Inactive)
REMARK    1  A    between atoms: C_1  and  C_2
REMARK    2  A    between atoms: C_9  and  O_13
REMARK    3  A    between atoms: C_10  and  C_12
REMARK    4  A    between atoms: O_13  and  C_14
REMARK                            x       y       z     vdW  Elec       q    Type
REMARK                         _______ _______ _______ _____ _____    ______ ____
ROOT
ATOM      1  C   UNL     1       1.052   0.290  -0.231  0.00  0.00    +0.000 C 
ATOM      2  C   UNL     1       2.535   0.168  -0.029  0.00  0.00    +0.000 C 
ATOM      3  C   UNL     1       3.096  -1.006   0.319  0.00  0.00    +0.000 C 
ATOM      4  C   UNL     1       4.569  -1.179   0.536  0.00  0.00    +0.000 C 
ATOM      5  C   UNL     1       5.404  -0.177  -0.260  0.00  0.00    +0.000 C 
ATOM      6  C   UNL     1       4.801   1.206  -0.266  0.00  0.00    +0.000 A 
ATOM      7  C   UNL     1       3.402   1.365  -0.180  0.00  0.00    +0.000 A 
ATOM      8  C   UNL     1       2.875   2.662  -0.250  0.00  0.00    +0.000 A 
ATOM      9  C   UNL     1       3.717   3.772  -0.388  0.00  0.00    +0.000 A 
ATOM     10  C   UNL     1       5.100   3.613  -0.518  0.00  0.00    +0.000 A 
ATOM     11  C   UNL     1       5.634   2.322  -0.449  0.00  0.00    +0.000 A 
ATOM     12  C   UNL     1       5.999   4.800  -0.713  0.00  0.00    +0.000 C 
ENDROOT
BRANCH   9  13
ATOM     13  O   UNL     1       3.194   5.038  -0.475  0.00  0.00    +0.000 OA
ATOM     14  C   UNL     1       2.560   5.421   0.745  0.00  0.00    +0.000 C 
ENDBRANCH   9  13
TORSDOF 1
