REMARK  Name = *****
REMARK  0 active torsions:
REMARK  status: ('A' for Active; 'I' for Inactive)
REMARK                            x       y       z     vdW  Elec       q    Type
REMARK                         _______ _______ _______ _____ _____    ______ ____
ROOT
ATOM      1  C   UNL     1      -2.370  -0.004  -0.318  0.00  0.00    +0.000 C 
ATOM      2  C   UNL     1      -1.425   1.182  -0.307  0.00  0.00    +0.000 C 
ATOM      3  C   UNL     1      -0.317   0.778   0.682  0.00  0.00    +0.000 C 
ATOM      4  C   UNL     1       1.019   1.454   0.355  0.00  0.00    +0.000 C 
ATOM      5  C   UNL     1       1.850   0.685  -0.627  0.00  0.00    +0.000 C 
ATOM      6  C   UNL     1       1.856  -0.654  -0.630  0.00  0.00    +0.000 C 
ATOM      7  C   UNL     1       1.033  -1.437   0.347  0.00  0.00    +0.000 C 
ATOM      8  C   UNL     1      -0.310  -0.775   0.675  0.00  0.00    +0.000 C 
ATOM      9  C   UNL     1      -1.411  -1.180  -0.321  0.00  0.00    +0.000 C 
ENDROOT
TORSDOF 0
