REMARK  Name = *****
REMARK  4 active torsions:
REMARK  status: ('A' for Active; 'I' for Inactive)
REMARK    1  A    between atoms: C_1  and  C_2
REMARK    2  A    between atoms: C_2  and  O_3
REMARK    3  A    between atoms: O_3  and  C_4
REMARK    4  A    between atoms: C_12  and  C_14
REMARK                            x       y       z     vdW  Elec       q    Type
REMARK                         _______ _______ _______ _____ _____    ______ ____
ROOT
ATOM      1  C   UNL     1       4.417   1.211  -0.877  0.00  0.00    +0.000 A 
ATOM      2  C   UNL     1       4.943   2.457  -0.538  0.00  0.00    +0.000 A 
ATOM      3  C   UNL     1       6.322   2.710  -0.595  0.00  0.00    +0.000 A 
ATOM      4  C   UNL     1       6.825   3.975  -0.246  0.00  0.00    +0.000 A 
ATOM      5  C   UNL     1       8.192   4.243  -0.297  0.00  0.00    +0.000 A 
ATOM      6  C   UNL     1       9.074   3.248  -0.698  0.00  0.00    +0.000 A 
ATOM      7  C   UNL     1       8.588   1.986  -1.048  0.00  0.00    +0.000 A 
ATOM      8  C   UNL     1       7.208   1.685  -1.007  0.00  0.00    +0.000 A 
ATOM      9  C   UNL     1       6.670   0.417  -1.354  0.00  0.00    +0.000 A 
ATOM     10  C   UNL     1       5.280   0.197  -1.284  0.00  0.00    +0.000 A 
ATOM     11  C   UNL     1       7.554  -0.719  -1.801  0.00  0.00    +0.000 C 
ENDROOT
BRANCH   1  12
ATOM     12  O   UNL     1       3.057   1.118  -0.769  0.00  0.00    +0.000 OA
BRANCH  12  14
ATOM     13  C   UNL     1       0.963  -0.013  -0.880  0.00  0.00    +0.000 C 
ATOM     14  C   UNL     1       2.462  -0.140  -1.083  0.00  0.00    +0.000 C 
ENDBRANCH  12  14
ENDBRANCH   1  12
TORSDOF 2
