REMARK  Name = *****
REMARK  4 active torsions:
REMARK  status: ('A' for Active; 'I' for Inactive)
REMARK    1  A    between atoms: C_1  and  C_2
REMARK    2  A    between atoms: C_3  and  O_11
REMARK    3  A    between atoms: O_11  and  C_12
REMARK    4  A    between atoms: C_12  and  C_13
REMARK                            x       y       z     vdW  Elec       q    Type
REMARK                         _______ _______ _______ _____ _____    ______ ____
ROOT
ATOM      1  C   UNL     1       1.151  -0.042   0.158  0.00  0.00    +0.000 C 
ATOM      2  C   UNL     1       2.647   0.014   0.171  0.00  0.00    +0.000 A 
ATOM      3  C   UNL     1       3.376   1.176   0.382  0.00  0.00    +0.000 A 
ATOM      4  S   UNL     1       5.057   0.857   0.323  0.00  0.00    +0.000 S 
ATOM      5  C   UNL     1       4.840  -0.817   0.029  0.00  0.00    +0.000 A 
ATOM      6  C   UNL     1       5.849  -1.785  -0.140  0.00  0.00    +0.000 A 
ATOM      7  C   UNL     1       5.484  -3.112  -0.373  0.00  0.00    +0.000 A 
ATOM      8  C   UNL     1       4.146  -3.471  -0.437  0.00  0.00    +0.000 A 
ATOM      9  C   UNL     1       3.149  -2.505  -0.269  0.00  0.00    +0.000 A 
ATOM     10  C   UNL     1       3.487  -1.147  -0.031  0.00  0.00    +0.000 A 
ENDROOT
BRANCH   3  11
ATOM     11  O   UNL     1       2.828   2.385   0.595  0.00  0.00    +0.000 OA
BRANCH  11  12
ATOM     12  C   UNL     1       3.690   3.488   0.861  0.00  0.00    +0.000 C 
BRANCH  12  13
ATOM     13  C   UNL     1       2.821   4.694   1.062  0.00  0.00    +0.000 C 
ATOM     14  C   UNL     1       2.824   5.466   2.157  0.00  0.00    +0.000 C 
ENDBRANCH  12  13
ENDBRANCH  11  12
ENDBRANCH   3  11
TORSDOF 3
