REMARK  Name = *****
REMARK  1 active torsions:
REMARK  status: ('A' for Active; 'I' for Inactive)
REMARK    1  A    between atoms: C_11  and  C_13
REMARK                            x       y       z     vdW  Elec       q    Type
REMARK                         _______ _______ _______ _____ _____    ______ ____
ROOT
ATOM      1  C   UNL     1      -2.464   0.640  -0.015  0.00  0.00    +0.000 A 
ATOM      2  C   UNL     1      -1.269   1.363  -0.055  0.00  0.00    +0.000 A 
ATOM      3  C   UNL     1      -0.045   0.689  -0.040  0.00  0.00    +0.000 A 
ATOM      4  C   UNL     1      -0.030  -0.711   0.017  0.00  0.00    +0.000 A 
ATOM      5  C   UNL     1      -1.218  -1.439   0.057  0.00  0.00    +0.000 A 
ATOM      6  C   UNL     1      -2.433  -0.755   0.041  0.00  0.00    +0.000 A 
ATOM      7 CL   UNL     1      -3.909  -1.638   0.089  0.00  0.00    +0.000 Cl
ATOM      8  N   UNL     1       1.199  -1.379   0.028  0.00  0.00    +0.000 N 
ATOM      9  C   UNL     1       2.412  -0.744  -0.012  0.00  0.00    +0.000 A 
ATOM     10  O   UNL     1       3.460  -1.381  -0.033  0.00  0.00    +0.000 OA
ATOM     11  C   UNL     1       2.398   0.750  -0.044  0.00  0.00    +0.000 A 
ATOM     12  C   UNL     1       1.226   1.410  -0.080  0.00  0.00    +0.000 A 
ATOM     13  H   UNL     1       1.192  -2.363   0.067  0.00  0.00    +0.000 HD
ENDROOT
BRANCH  11  14
ATOM     14  C   UNL     1       3.725   1.429  -0.095  0.00  0.00    +0.000 C 
ATOM     15 BR   UNL     1       4.337   1.754   1.726  0.00  0.00    +0.000 Br
ENDBRANCH  11  14
TORSDOF 1
