REMARK  Name = *****
REMARK  1 active torsions:
REMARK  status: ('A' for Active; 'I' for Inactive)
REMARK    1  A    between atoms: C_1  and  N_2
REMARK                            x       y       z     vdW  Elec       q    Type
REMARK                         _______ _______ _______ _____ _____    ______ ____
ROOT
ATOM      1  C   UNL     1       1.011  -0.045   0.084  0.00  0.00    +0.000 C 
ATOM      2  N   UNL     1       2.453  -0.006   0.083  0.00  0.00    +0.000 N 
ATOM      3  C   UNL     1       3.297  -1.132   0.083  0.00  0.00    +0.000 A 
ATOM      4  C   UNL     1       3.011  -2.480   0.082  0.00  0.00    +0.000 A 
ATOM      5  C   UNL     1       4.097  -3.369   0.083  0.00  0.00    +0.000 A 
ATOM      6  C   UNL     1       5.431  -2.892   0.085  0.00  0.00    +0.000 A 
ATOM      7  C   UNL     1       5.702  -1.518   0.086  0.00  0.00    +0.000 A 
ATOM      8  C   UNL     1       4.616  -0.673   0.085  0.00  0.00    +0.000 A 
ATOM      9  N   UNL     1       4.598   0.717   0.085  0.00  0.00    +0.000 N 
ATOM     10  C   UNL     1       3.263   1.153   0.084  0.00  0.00    +0.000 A 
ATOM     11  S   UNL     1       2.815   2.746   0.085  0.00  0.00    +0.000 S 
ATOM     12 CL   UNL     1       6.788  -3.965   0.087  0.00  0.00    +0.000 Cl
ATOM     13 CL   UNL     1       3.733  -5.061   0.083  0.00  0.00    +0.000 Cl
ATOM     14  H   UNL     1       5.391   1.301   0.086  0.00  0.00    +0.000 HD
ENDROOT
TORSDOF 0
