REMARK  Name = *****
REMARK  3 active torsions:
REMARK  status: ('A' for Active; 'I' for Inactive)
REMARK    1  A    between atoms: C_1  and  C_2
REMARK    2  A    between atoms: C_2  and  O_3
REMARK    3  A    between atoms: O_3  and  C_4
REMARK                            x       y       z     vdW  Elec       q    Type
REMARK                         _______ _______ _______ _____ _____    ______ ____
ROOT
ATOM      1  C   UNL     1       4.366   1.233   0.343  0.00  0.00    +0.000 A 
ATOM      2  C   UNL     1       5.220   0.792  -0.690  0.00  0.00    +0.000 A 
ATOM      3  C   UNL     1       6.604   1.126  -0.704  0.00  0.00    +0.000 A 
ATOM      4  C   UNL     1       7.521   0.711  -1.703  0.00  0.00    +0.000 A 
ATOM      5  C   UNL     1       8.870   1.071  -1.659  0.00  0.00    +0.000 A 
ATOM      6  C   UNL     1       9.343   1.855  -0.617  0.00  0.00    +0.000 A 
ATOM      7  C   UNL     1       8.467   2.280   0.380  0.00  0.00    +0.000 A 
ATOM      8  C   UNL     1       7.108   1.926   0.350  0.00  0.00    +0.000 A 
ATOM      9  C   UNL     1       6.246   2.365   1.364  0.00  0.00    +0.000 A 
ATOM     10  C   UNL     1       4.891   2.026   1.362  0.00  0.00    +0.000 A 
ATOM     11 CL   UNL     1       4.546  -0.192  -1.964  0.00  0.00    +0.000 Cl
ENDROOT
BRANCH   1  12
ATOM     12  O   UNL     1       3.049   0.856   0.265  0.00  0.00    +0.000 OA
BRANCH  12  14
ATOM     13  C   UNL     1       0.851   0.505   1.108  0.00  0.00    +0.000 C 
ATOM     14  C   UNL     1       2.206   1.133   1.380  0.00  0.00    +0.000 C 
ENDBRANCH  12  14
ENDBRANCH   1  12
TORSDOF 2
