REMARK  Name = *****
REMARK  3 active torsions:
REMARK  status: ('A' for Active; 'I' for Inactive)
REMARK    1  A    between atoms: C_1  and  C_2
REMARK    2  A    between atoms: C_2  and  O_3
REMARK    3  A    between atoms: O_3  and  C_4
REMARK                            x       y       z     vdW  Elec       q    Type
REMARK                         _______ _______ _______ _____ _____    ______ ____
ROOT
ATOM      1  C   UNL     1       4.459   1.325  -0.858  0.00  0.00    +0.000 A 
ATOM      2  C   UNL     1       5.354   0.341  -1.292  0.00  0.00    +0.000 A 
ATOM      3  C   UNL     1       6.733   0.600  -1.411  0.00  0.00    +0.000 A 
ATOM      4  C   UNL     1       7.640  -0.383  -1.847  0.00  0.00    +0.000 A 
ATOM      5  C   UNL     1       9.002  -0.104  -1.959  0.00  0.00    +0.000 A 
ATOM      6  C   UNL     1       9.480   1.163  -1.637  0.00  0.00    +0.000 A 
ATOM      7  C   UNL     1       8.595   2.152  -1.202  0.00  0.00    +0.000 A 
ATOM      8  C   UNL     1       7.222   1.885  -1.084  0.00  0.00    +0.000 A 
ATOM      9  C   UNL     1       6.323   2.869  -0.649  0.00  0.00    +0.000 A 
ATOM     10  C   UNL     1       4.958   2.589  -0.538  0.00  0.00    +0.000 A 
ATOM     11  F   UNL     1       4.913  -0.890  -1.607  0.00  0.00    +0.000 F 
ENDROOT
BRANCH   1  12
ATOM     12  O   UNL     1       3.105   1.209  -0.699  0.00  0.00    +0.000 OA
BRANCH  12  14
ATOM     13  C   UNL     1       1.014   0.072  -0.787  0.00  0.00    +0.000 C 
ATOM     14  C   UNL     1       2.510  -0.046  -1.023  0.00  0.00    +0.000 C 
ENDBRANCH  12  14
ENDBRANCH   1  12
TORSDOF 2
