REMARK  Name = *****
REMARK  2 active torsions:
REMARK  status: ('A' for Active; 'I' for Inactive)
REMARK    1  A    between atoms: C_1  and  C_2
REMARK    2  A    between atoms: C_2  and  C_3
REMARK                            x       y       z     vdW  Elec       q    Type
REMARK                         _______ _______ _______ _____ _____    ______ ____
ROOT
ATOM      1  C   UNL     1       2.841   1.419  -0.610  0.00  0.00    +0.000 C 
ATOM      2  C   UNL     1       4.372   1.542  -0.699  0.00  0.00    +0.000 C 
ATOM      3  O   UNL     1       5.148   0.592  -0.759  0.00  0.00    +0.000 OA
ATOM      4  N   UNL     1       4.828   2.829  -0.831  0.00  0.00    +0.000 N 
ATOM      5  C   UNL     1       3.979   3.927  -0.672  0.00  0.00    +0.000 A 
ATOM      6  C   UNL     1       2.658   3.735  -0.249  0.00  0.00    +0.000 A 
ATOM      7  O   UNL     1       2.166   2.490   0.048  0.00  0.00    +0.000 OA
ATOM      8  C   UNL     1       1.834   4.849  -0.046  0.00  0.00    +0.000 A 
ATOM      9  C   UNL     1       2.319   6.137  -0.282  0.00  0.00    +0.000 A 
ATOM     10  C   UNL     1       3.635   6.309  -0.705  0.00  0.00    +0.000 A 
ATOM     11  C   UNL     1       4.473   5.211  -0.896  0.00  0.00    +0.000 A 
ATOM     12 CL   UNL     1       4.237   7.896  -0.989  0.00  0.00    +0.000 Cl
ATOM     13 CL   UNL     1       0.203   4.672   0.491  0.00  0.00    +0.000 Cl
ATOM     14  H   UNL     1       5.776   2.983  -1.043  0.00  0.00    +0.000 HD
ENDROOT
BRANCH   1  16
ATOM     15  C   UNL     1       0.950  -0.144   0.061  0.00  0.00    +0.000 C 
ATOM     16  C   UNL     1       2.452   0.105   0.080  0.00  0.00    +0.000 C 
ENDBRANCH   1  16
TORSDOF 1
