REMARK  Name = *****
REMARK  3 active torsions:
REMARK  status: ('A' for Active; 'I' for Inactive)
REMARK    1  A    between atoms: C_1  and  C_2
REMARK    2  A    between atoms: C_2  and  O_3
REMARK    3  A    between atoms: O_3  and  C_4
REMARK                            x       y       z     vdW  Elec       q    Type
REMARK                         _______ _______ _______ _____ _____    ______ ____
ROOT
ATOM      1  C   UNL     1       4.390  -1.390  -0.437  0.00  0.00    +0.000 A 
ATOM      2  C   UNL     1       5.292  -1.000   0.554  0.00  0.00    +0.000 A 
ATOM      3  C   UNL     1       6.671  -1.242   0.411  0.00  0.00    +0.000 A 
ATOM      4  C   UNL     1       7.147  -1.890  -0.753  0.00  0.00    +0.000 A 
ATOM      5  C   UNL     1       6.233  -2.276  -1.742  0.00  0.00    +0.000 A 
ATOM      6  C   UNL     1       4.869  -2.027  -1.582  0.00  0.00    +0.000 A 
ATOM      7  C   UNL     1       8.523  -2.134  -0.895  0.00  0.00    +0.000 A 
ATOM      8  C   UNL     1       9.423  -1.743   0.098  0.00  0.00    +0.000 A 
ATOM      9  C   UNL     1       8.951  -1.106   1.241  0.00  0.00    +0.000 A 
ATOM     10  C   UNL     1       7.588  -0.855   1.403  0.00  0.00    +0.000 A 
ATOM     11 BR   UNL     1      10.168  -0.576   2.588  0.00  0.00    +0.000 Br
ENDROOT
BRANCH   1  12
ATOM     12  O   UNL     1       3.035  -1.211  -0.411  0.00  0.00    +0.000 OA
BRANCH  12  14
ATOM     13  C   UNL     1       0.976  -0.512   0.563  0.00  0.00    +0.000 C 
ATOM     14  C   UNL     1       2.481  -0.587   0.746  0.00  0.00    +0.000 C 
ENDBRANCH  12  14
ENDBRANCH   1  12
TORSDOF 2
