REMARK  Name = *****
REMARK  0 active torsions:
REMARK  status: ('A' for Active; 'I' for Inactive)
REMARK                            x       y       z     vdW  Elec       q    Type
REMARK                         _______ _______ _______ _____ _____    ______ ____
ROOT
ATOM      1  C   UNL     1       1.717  -0.565  -0.151  0.00  0.00    +0.000 C 
ATOM      2  C   UNL     1       2.966  -0.748   0.629  0.00  0.00    +0.000 C 
ATOM      3  C   UNL     1       2.317   0.472   0.675  0.00  0.00    +0.000 C 
ATOM      4  S   UNL     1       3.272   1.808   0.333  0.00  0.00    +0.000 S 
ATOM      5  C   UNL     1       4.596   0.805   0.114  0.00  0.00    +0.000 A 
ATOM      6  C   UNL     1       4.344  -0.522   0.352  0.00  0.00    +0.000 A 
ATOM      7  C   UNL     1       5.484  -1.413   0.326  0.00  0.00    +0.000 A 
ATOM      8  S   UNL     1       5.313  -3.037   0.617  0.00  0.00    +0.000 S 
ATOM      9  N   UNL     1       6.699  -0.826   0.026  0.00  0.00    +0.000 N 
ATOM     10  C   UNL     1       6.905   0.512  -0.228  0.00  0.00    +0.000 A 
ATOM     11  S   UNL     1       8.426   1.096  -0.566  0.00  0.00    +0.000 S 
ATOM     12  N   UNL     1       5.818   1.343  -0.181  0.00  0.00    +0.000 N 
ATOM     13  H   UNL     1       7.486  -1.417  -0.010  0.00  0.00    +0.000 HD
ATOM     14  H   UNL     1       5.914   2.307  -0.356  0.00  0.00    +0.000 HD
ENDROOT
TORSDOF 0
