REMARK  Name = *****
REMARK  1 active torsions:
REMARK  status: ('A' for Active; 'I' for Inactive)
REMARK    1  A    between atoms: N_7  and  O_13
REMARK                            x       y       z     vdW  Elec       q    Type
REMARK                         _______ _______ _______ _____ _____    ______ ____
ROOT
ATOM      1  C   UNL     1       1.369  -1.353  -0.033  0.00  0.00    +0.000 A 
ATOM      2  C   UNL     1       2.540  -0.596  -0.053  0.00  0.00    +0.000 A 
ATOM      3  C   UNL     1       2.488   0.797  -0.046  0.00  0.00    +0.000 A 
ATOM      4  C   UNL     1       1.249   1.436  -0.018  0.00  0.00    +0.000 A 
ATOM      5  C   UNL     1       0.065   0.686   0.003  0.00  0.00    +0.000 A 
ATOM      6  C   UNL     1       0.126  -0.712  -0.005  0.00  0.00    +0.000 A 
ATOM      7  N   UNL     1      -1.075  -1.433   0.017  0.00  0.00    +0.000 N 
ATOM      8  C   UNL     1      -2.339  -0.885   0.046  0.00  0.00    +0.000 A 
ATOM      9  O   UNL     1      -3.359  -1.565   0.067  0.00  0.00    +0.000 OA
ATOM     10  C   UNL     1      -2.391   0.655   0.052  0.00  0.00    +0.000 A 
ATOM     11  O   UNL     1      -3.457   1.254   0.075  0.00  0.00    +0.000 OA
ATOM     12  N   UNL     1      -1.187   1.321   0.031  0.00  0.00    +0.000 N 
ATOM     13 CL   UNL     1       1.210   3.163  -0.009  0.00  0.00    +0.000 Cl
ATOM     14 CL   UNL     1       4.066  -1.388  -0.088  0.00  0.00    +0.000 Cl
ATOM     15  H   UNL     1      -1.204   2.306   0.035  0.00  0.00    +0.000 HD
ENDROOT
BRANCH   7  16
ATOM     16  O   UNL     1      -0.988  -2.845   0.012  0.00  0.00    +0.000 OA
ATOM     17  H   UNL     1      -0.149  -3.262  -0.007  0.00  0.00    +0.000 HD
ENDBRANCH   7  16
TORSDOF 1
