REMARK  Name = *****
REMARK  4 active torsions:
REMARK  status: ('A' for Active; 'I' for Inactive)
REMARK    1  A    between atoms: C_1  and  C_2
REMARK    2  A    between atoms: C_3  and  C_14
REMARK    3  A    between atoms: C_9  and  O_12
REMARK    4  A    between atoms: O_12  and  C_13
REMARK                            x       y       z     vdW  Elec       q    Type
REMARK                         _______ _______ _______ _____ _____    ______ ____
ROOT
ATOM      1  C   UNL     1       0.955  -0.073  -0.099  0.00  0.00    +0.000 C 
ATOM      2  C   UNL     1       2.446   0.079  -0.098  0.00  0.00    +0.000 A 
ATOM      3  C   UNL     1       3.138   1.277  -0.096  0.00  0.00    +0.000 A 
ATOM      4  S   UNL     1       4.826   1.040  -0.095  0.00  0.00    +0.000 S 
ATOM      5  C   UNL     1       4.695  -0.679  -0.097  0.00  0.00    +0.000 A 
ATOM      6  C   UNL     1       3.349  -1.060  -0.098  0.00  0.00    +0.000 A 
ATOM      7  C   UNL     1       3.058  -2.448  -0.099  0.00  0.00    +0.000 A 
ATOM      8  C   UNL     1       4.078  -3.405  -0.099  0.00  0.00    +0.000 A 
ATOM      9  C   UNL     1       5.413  -3.017  -0.097  0.00  0.00    +0.000 A 
ATOM     10  C   UNL     1       5.733  -1.645  -0.096  0.00  0.00    +0.000 A 
ATOM     11 BR   UNL     1       7.562  -1.091  -0.095  0.00  0.00    +0.000 Br
ATOM     12  C   UNL     1       2.630   2.683  -0.094  0.00  0.00    +0.000 C 
ENDROOT
BRANCH   9  13
ATOM     13  O   UNL     1       6.467  -3.896  -0.096  0.00  0.00    +0.000 OA
ATOM     14  C   UNL     1       6.178  -5.287  -0.096  0.00  0.00    +0.000 C 
ENDBRANCH   9  13
TORSDOF 1
