REMARK  Name = *****
REMARK  0 active torsions:
REMARK  status: ('A' for Active; 'I' for Inactive)
REMARK                            x       y       z     vdW  Elec       q    Type
REMARK                         _______ _______ _______ _____ _____    ______ ____
ROOT
ATOM      1  C   UNL     1      -2.556   0.030  -0.222  0.00  0.00    +0.000 C 
ATOM      2  S   UNL     1      -1.545  -1.480  -0.136  0.00  0.00    +0.000 S 
ATOM      3  C   UNL     1      -0.021  -0.676  -0.074  0.00  0.00    +0.000 A 
ATOM      4  C   UNL     1      -0.000   0.660  -0.077  0.00  0.00    +0.000 A 
ATOM      5  S   UNL     1      -1.499   1.510  -0.144  0.00  0.00    +0.000 S 
ATOM      6  S   UNL     1       1.539   1.440  -0.012  0.00  0.00    +0.000 S 
ATOM      7  C   UNL     1       2.491  -0.046   0.033  0.00  0.00    +0.000 A 
ATOM      8  S   UNL     1       4.156  -0.071   0.104  0.00  0.00    +0.000 S 
ATOM      9  S   UNL     1       1.494  -1.502  -0.005  0.00  0.00    +0.000 S 
ENDROOT
TORSDOF 0
