REMARK  Name = *****
REMARK  0 active torsions:
REMARK  status: ('A' for Active; 'I' for Inactive)
REMARK                            x       y       z     vdW  Elec       q    Type
REMARK                         _______ _______ _______ _____ _____    ______ ____
ROOT
ATOM      1  C   UNL     1      -2.433   0.661  -0.014  0.00  0.00    +0.000 A 
ATOM      2  C   UNL     1      -1.230   1.369  -0.012  0.00  0.00    +0.000 A 
ATOM      3  C   UNL     1      -0.023   0.671  -0.004  0.00  0.00    +0.000 A 
ATOM      4  C   UNL     1      -0.003  -0.730   0.002  0.00  0.00    +0.000 A 
ATOM      5  C   UNL     1      -1.209  -1.435   0.000  0.00  0.00    +0.000 A 
ATOM      6  C   UNL     1      -2.417  -0.735  -0.008  0.00  0.00    +0.000 A 
ATOM      7 BR   UNL     1      -4.050  -1.687  -0.011  0.00  0.00    +0.000 Br
ATOM      8  C   UNL     1       1.286  -1.423   0.009  0.00  0.00    +0.000 A 
ATOM      9  C   UNL     1       2.439  -0.733   0.010  0.00  0.00    +0.000 A 
ATOM     10  C   UNL     1       2.421   0.768   0.004  0.00  0.00    +0.000 A 
ATOM     11  O   UNL     1       3.443   1.448   0.004  0.00  0.00    +0.000 OA
ATOM     12  N   UNL     1       1.187   1.372  -0.003  0.00  0.00    +0.000 N 
ATOM     13 BR   UNL     1       4.094  -1.599   0.018  0.00  0.00    +0.000 Br
ATOM     14  H   UNL     1       1.153   2.356  -0.007  0.00  0.00    +0.000 HD
ENDROOT
TORSDOF 0
