REMARK  Name = *****
REMARK  2 active torsions:
REMARK  status: ('A' for Active; 'I' for Inactive)
REMARK    1  A    between atoms: C_1  and  O_2
REMARK    2  A    between atoms: O_2  and  C_3
REMARK                            x       y       z     vdW  Elec       q    Type
REMARK                         _______ _______ _______ _____ _____    ______ ____
ROOT
ATOM      1  C   UNL     1       3.268  -1.050   0.414  0.00  0.00    +0.000 C 
ATOM      2  S   UNL     1       3.541  -2.575  -0.564  0.00  0.00    +0.000 S 
ATOM      3  C   UNL     1       2.772  -3.632   0.560  0.00  0.00    +0.000 A 
ATOM      4  C   UNL     1       2.469  -3.161   1.773  0.00  0.00    +0.000 A 
ATOM      5  S   UNL     1       2.863  -1.523   2.140  0.00  0.00    +0.000 S 
ATOM      6  S   UNL     1       1.730  -4.246   2.895  0.00  0.00    +0.000 S 
ATOM      7  C   UNL     1       1.704  -5.636   1.808  0.00  0.00    +0.000 A 
ATOM      8  S   UNL     1       1.093  -7.127   2.234  0.00  0.00    +0.000 S 
ATOM      9  S   UNL     1       2.398  -5.284   0.224  0.00  0.00    +0.000 S 
ENDROOT
BRANCH   1  11
ATOM     10  C   UNL     1       2.641   0.696  -1.056  0.00  0.00    +0.000 C 
ATOM     11  O   UNL     1       2.195  -0.283  -0.128  0.00  0.00    +0.000 OA
ENDBRANCH   1  11
TORSDOF 1
