REMARK  Name = *****
REMARK  2 active torsions:
REMARK  status: ('A' for Active; 'I' for Inactive)
REMARK    1  A    between atoms: C_1  and  O_2
REMARK    2  A    between atoms: O_2  and  C_3
REMARK                            x       y       z     vdW  Elec       q    Type
REMARK                         _______ _______ _______ _____ _____    ______ ____
ROOT
ATOM      1  C   UNL     1       2.957  -1.029  -0.696  0.00  0.00    +0.000 A 
ATOM      2  C   UNL     1       4.150  -1.607  -0.236  0.00  0.00    +0.000 A 
ATOM      3  C   UNL     1       4.933  -2.461  -1.037  0.00  0.00    +0.000 A 
ATOM      4  C   UNL     1       4.496  -2.747  -2.351  0.00  0.00    +0.000 A 
ATOM      5  C   UNL     1       5.268  -3.590  -3.175  0.00  0.00    +0.000 A 
ATOM      6  C   UNL     1       6.459  -4.146  -2.711  0.00  0.00    +0.000 A 
ATOM      7  C   UNL     1       6.883  -3.868  -1.419  0.00  0.00    +0.000 A 
ATOM      8  C   UNL     1       6.133  -3.039  -0.590  0.00  0.00    +0.000 A 
ATOM      9  F   UNL     1       6.580  -2.797   0.652  0.00  0.00    +0.000 F 
ATOM     10  F   UNL     1       8.027  -4.406  -0.976  0.00  0.00    +0.000 F 
ATOM     11  C   UNL     1       3.296  -2.175  -2.800  0.00  0.00    +0.000 A 
ATOM     12  C   UNL     1       2.539  -1.332  -1.989  0.00  0.00    +0.000 A 
ATOM     13  F   UNL     1       1.403  -0.827  -2.494  0.00  0.00    +0.000 F 
ATOM     14  F   UNL     1       2.861  -2.441  -4.042  0.00  0.00    +0.000 F 
ATOM     15  F   UNL     1       4.558  -1.325   1.013  0.00  0.00    +0.000 F 
ENDROOT
BRANCH   1  17
ATOM     16  C   UNL     1       1.149   0.463  -0.234  0.00  0.00    +0.000 C 
ATOM     17  O   UNL     1       2.323  -0.212   0.202  0.00  0.00    +0.000 OA
ENDBRANCH   1  17
TORSDOF 1
