REMARK  Name = *****
REMARK  3 active torsions:
REMARK  status: ('A' for Active; 'I' for Inactive)
REMARK    1  A    between atoms: C_1  and  C_2
REMARK    2  A    between atoms: C_12  and  S_13
REMARK    3  A    between atoms: S_13  and  C_14
REMARK                            x       y       z     vdW  Elec       q    Type
REMARK                         _______ _______ _______ _____ _____    ______ ____
ROOT
ATOM      1  C   UNL     1       0.915   0.105   0.318  0.00  0.00    +0.000 C 
ATOM      2  C   UNL     1       2.414   0.026   0.220  0.00  0.00    +0.000 A 
ATOM      3  C   UNL     1       3.146   1.215   0.055  0.00  0.00    +0.000 A 
ATOM      4  C   UNL     1       4.516   1.133  -0.133  0.00  0.00    +0.000 A 
ATOM      5  C   UNL     1       5.158  -0.104  -0.136  0.00  0.00    +0.000 A 
ATOM      6  C   UNL     1       4.484  -1.288   0.057  0.00  0.00    +0.000 A 
ATOM      7  C   UNL     1       3.097  -1.217   0.227  0.00  0.00    +0.000 A 
ATOM      8 CL   UNL     1       2.240  -2.707   0.412  0.00  0.00    +0.000 Cl
ATOM      9  N   UNL     1       6.506   0.062  -0.418  0.00  0.00    +0.000 N 
ATOM     10  C   UNL     1       6.818   1.403  -0.645  0.00  0.00    +0.000 C 
ATOM     11  O   UNL     1       7.921   1.814  -0.965  0.00  0.00    +0.000 OA
ATOM     12  C   UNL     1       5.527   2.218  -0.396  0.00  0.00    +0.000 C 
ATOM     13  H   UNL     1       7.159  -0.673  -0.453  0.00  0.00    +0.000 HD
ENDROOT
BRANCH  12  14
ATOM     14  S   UNL     1       5.103   3.330  -1.768  0.00  0.00    +0.000 S 
ATOM     15  C   UNL     1       4.834   2.158  -3.125  0.00  0.00    +0.000 C 
ENDBRANCH  12  14
TORSDOF 1
