REMARK  Name = *****
REMARK  0 active torsions:
REMARK  status: ('A' for Active; 'I' for Inactive)
REMARK                            x       y       z     vdW  Elec       q    Type
REMARK                         _______ _______ _______ _____ _____    ______ ____
ROOT
ATOM      1  C   UNL     1      -0.445  -1.452  -0.019  0.00  0.00    +0.000 A 
ATOM      2  C   UNL     1       0.872  -1.199  -0.003  0.00  0.00    +0.000 A 
ATOM      3  S   UNL     1       1.415   0.446   0.011  0.00  0.00    +0.000 S 
ATOM      4  C   UNL     1      -0.256   1.116  -0.003  0.00  0.00    +0.000 A 
ATOM      5  S   UNL     1      -0.571   2.756   0.005  0.00  0.00    +0.000 S 
ATOM      6  S   UNL     1      -1.560  -0.126  -0.025  0.00  0.00    +0.000 S 
ATOM      7  S   UNL     1       1.542  -2.776  -0.001  0.00  0.00    +0.000 S 
ATOM      8  S   UNL     1      -0.482  -3.165  -0.025  0.00  0.00    +0.000 S 
ENDROOT
TORSDOF 0
