REMARK  Name = *****
REMARK  0 active torsions:
REMARK  status: ('A' for Active; 'I' for Inactive)
REMARK                            x       y       z     vdW  Elec       q    Type
REMARK                         _______ _______ _______ _____ _____    ______ ____
ROOT
ATOM      1  C   UNL     1       1.042  -1.418  -0.003  0.00  0.00    +0.000 A 
ATOM      2  C   UNL     1       2.210  -0.649   0.000  0.00  0.00    +0.000 A 
ATOM      3  C   UNL     1       2.146   0.758   0.001  0.00  0.00    +0.000 A 
ATOM      4  C   UNL     1       0.907   1.414  -0.002  0.00  0.00    +0.000 A 
ATOM      5  C   UNL     1      -0.243   0.632  -0.005  0.00  0.00    +0.000 A 
ATOM      6  C   UNL     1      -0.175  -0.761  -0.005  0.00  0.00    +0.000 A 
ATOM      7  S   UNL     1      -1.801  -1.464  -0.009  0.00  0.00    +0.000 S 
ATOM      8  C   UNL     1      -2.545   0.143  -0.010  0.00  0.00    +0.000 A 
ATOM      9  O   UNL     1      -3.747   0.346  -0.012  0.00  0.00    +0.000 OA
ATOM     10  N   UNL     1      -1.562   1.103  -0.007  0.00  0.00    +0.000 N 
ATOM     11 CL   UNL     1       0.766   3.135  -0.003  0.00  0.00    +0.000 Cl
ATOM     12 CL   UNL     1       3.644   1.621   0.005  0.00  0.00    +0.000 Cl
ATOM     13  H   UNL     1      -1.772   2.064  -0.008  0.00  0.00    +0.000 HD
ENDROOT
TORSDOF 0
