REMARK  Name = *****
REMARK  3 active torsions:
REMARK  status: ('A' for Active; 'I' for Inactive)
REMARK    1  A    between atoms: C_1  and  O_2
REMARK    2  A    between atoms: O_2  and  C_3
REMARK    3  A    between atoms: C_4  and  C_13
REMARK                            x       y       z     vdW  Elec       q    Type
REMARK                         _______ _______ _______ _____ _____    ______ ____
ROOT
ATOM      1  C   UNL     1       2.815  -0.884   0.999  0.00  0.00    +0.000 A 
ATOM      2  C   UNL     1       3.929  -0.426   1.739  0.00  0.00    +0.000 A 
ATOM      3  C   UNL     1       4.652  -1.333   2.579  0.00  0.00    +0.000 A 
ATOM      4  C   UNL     1       5.796  -0.979   3.336  0.00  0.00    +0.000 A 
ATOM      5  C   UNL     1       6.462  -1.900   4.148  0.00  0.00    +0.000 A 
ATOM      6  C   UNL     1       6.007  -3.208   4.229  0.00  0.00    +0.000 A 
ATOM      7  C   UNL     1       4.890  -3.593   3.492  0.00  0.00    +0.000 A 
ATOM      8  C   UNL     1       4.212  -2.676   2.670  0.00  0.00    +0.000 A 
ATOM      9  C   UNL     1       3.098  -3.096   1.936  0.00  0.00    +0.000 A 
ATOM     10  C   UNL     1       2.408  -2.213   1.107  0.00  0.00    +0.000 A 
ENDROOT
BRANCH   1  12
ATOM     11  C   UNL     1       1.138  -0.401  -0.636  0.00  0.00    +0.000 C 
ATOM     12  O   UNL     1       2.188   0.047   0.212  0.00  0.00    +0.000 OA
ENDBRANCH   1  12
BRANCH   2  13
ATOM     13  C   UNL     1       4.348   1.021   1.610  0.00  0.00    +0.000 C 
ATOM     14 CL   UNL     1       5.682   1.197   0.447  0.00  0.00    +0.000 Cl
ENDBRANCH   2  13
TORSDOF 2
