REMARK  Name = *****
REMARK  1 active torsions:
REMARK  status: ('A' for Active; 'I' for Inactive)
REMARK    1  A    between atoms: C_1  and  C_2
REMARK                            x       y       z     vdW  Elec       q    Type
REMARK                         _______ _______ _______ _____ _____    ______ ____
ROOT
ATOM      1  C   UNL     1       0.967  -0.050  -0.145  0.00  0.00    +0.000 C 
ATOM      2  C   UNL     1       2.459  -0.143  -0.083  0.00  0.00    +0.000 A 
ATOM      3  C   UNL     1       3.129  -1.307  -0.043  0.00  0.00    +0.000 A 
ATOM      4  C   UNL     1       4.590  -1.329   0.019  0.00  0.00    +0.000 A 
ATOM      5  C   UNL     1       5.301  -2.531   0.062  0.00  0.00    +0.000 A 
ATOM      6  C   UNL     1       6.699  -2.516   0.123  0.00  0.00    +0.000 A 
ATOM      7  C   UNL     1       7.388  -1.296   0.139  0.00  0.00    +0.000 A 
ATOM      8  C   UNL     1       6.680  -0.091   0.095  0.00  0.00    +0.000 A 
ATOM      9  C   UNL     1       5.288  -0.115   0.035  0.00  0.00    +0.000 A 
ATOM     10  N   UNL     1       4.571   1.085  -0.009  0.00  0.00    +0.000 N 
ATOM     11  C   UNL     1       3.204   1.154  -0.067  0.00  0.00    +0.000 A 
ATOM     12  O   UNL     1       2.622   2.234  -0.104  0.00  0.00    +0.000 OA
ATOM     13 CL   UNL     1       9.113  -1.209   0.213  0.00  0.00    +0.000 Cl
ATOM     14 CL   UNL     1       7.515  -4.039   0.175  0.00  0.00    +0.000 Cl
ATOM     15  H   UNL     1       5.078   1.929   0.002  0.00  0.00    +0.000 HD
ENDROOT
TORSDOF 0
