REMARK  Name = *****
REMARK  0 active torsions:
REMARK  status: ('A' for Active; 'I' for Inactive)
REMARK                            x       y       z     vdW  Elec       q    Type
REMARK                         _______ _______ _______ _____ _____    ______ ____
ROOT
ATOM      1  C   UNL     1      -2.413   0.657  -0.034  0.00  0.00    +0.000 A 
ATOM      2  C   UNL     1      -1.211   1.371  -0.035  0.00  0.00    +0.000 A 
ATOM      3  C   UNL     1       0.012   0.698  -0.011  0.00  0.00    +0.000 A 
ATOM      4  C   UNL     1       0.012  -0.709   0.014  0.00  0.00    +0.000 A 
ATOM      5  C   UNL     1      -1.182  -1.430   0.016  0.00  0.00    +0.000 A 
ATOM      6  C   UNL     1      -2.392  -0.737  -0.008  0.00  0.00    +0.000 A 
ATOM      7 CL   UNL     1      -3.873  -1.612  -0.007  0.00  0.00    +0.000 Cl
ATOM      8  N   UNL     1       1.234  -1.390   0.037  0.00  0.00    +0.000 N 
ATOM      9  C   UNL     1       2.434  -0.716   0.035  0.00  0.00    +0.000 A 
ATOM     10  O   UNL     1       3.511  -1.292   0.053  0.00  0.00    +0.000 OA
ATOM     11  C   UNL     1       2.322   0.809   0.008  0.00  0.00    +0.000 A 
ATOM     12  N   UNL     1       1.196   1.455  -0.013  0.00  0.00    +0.000 NA
ATOM     13 CL   UNL     1       3.784   1.695   0.007  0.00  0.00    +0.000 Cl
ATOM     14  H   UNL     1       1.235  -2.374   0.055  0.00  0.00    +0.000 HD
ENDROOT
TORSDOF 0
