REMARK  Name = *****
REMARK  1 active torsions:
REMARK  status: ('A' for Active; 'I' for Inactive)
REMARK    1  A    between atoms: C_10  and  C_12
REMARK                            x       y       z     vdW  Elec       q    Type
REMARK                         _______ _______ _______ _____ _____    ______ ____
ROOT
ATOM      1  C   UNL     1       0.924   1.452   0.000  0.00  0.00    +0.000 A 
ATOM      2  C   UNL     1      -0.258   0.709   0.001  0.00  0.00    +0.000 A 
ATOM      3  C   UNL     1      -0.286  -0.680   0.002  0.00  0.00    +0.000 A 
ATOM      4  C   UNL     1       0.919  -1.394   0.000  0.00  0.00    +0.000 A 
ATOM      5  C   UNL     1       2.124  -0.677  -0.001  0.00  0.00    +0.000 A 
ATOM      6  C   UNL     1       2.126   0.726  -0.001  0.00  0.00    +0.000 A 
ATOM      7 CL   UNL     1       3.593   1.643  -0.003  0.00  0.00    +0.000 Cl
ATOM      8 CL   UNL     1       3.590  -1.598  -0.003  0.00  0.00    +0.000 Cl
ATOM      9  N   UNL     1      -1.578  -1.141   0.004  0.00  0.00    +0.000 NA
ATOM     10  C   UNL     1      -2.347  -0.069   0.014  0.00  0.00    +0.000 A 
ATOM     11  N   UNL     1      -1.580   1.074   0.002  0.00  0.00    +0.000 N 
ATOM     12  H   UNL     1      -1.922   1.997  -0.004  0.00  0.00    +0.000 HD
ENDROOT
BRANCH  10  13
ATOM     13  C   UNL     1      -3.836  -0.052  -0.002  0.00  0.00    +0.000 C 
ATOM     14 CL   UNL     1      -4.499   1.386   0.812  0.00  0.00    +0.000 Cl
ENDBRANCH  10  13
TORSDOF 1
