REMARK  Name = *****
REMARK  0 active torsions:
REMARK  status: ('A' for Active; 'I' for Inactive)
REMARK                            x       y       z     vdW  Elec       q    Type
REMARK                         _______ _______ _______ _____ _____    ______ ____
ROOT
ATOM      1  C   UNL     1       0.919   1.433  -0.027  0.00  0.00    +0.000 A 
ATOM      2  C   UNL     1      -0.241   0.698  -0.012  0.00  0.00    +0.000 A 
ATOM      3  C   UNL     1      -0.241  -0.698  -0.012  0.00  0.00    +0.000 A 
ATOM      4  C   UNL     1       0.919  -1.433  -0.027  0.00  0.00    +0.000 A 
ATOM      5  C   UNL     1       2.121  -0.710  -0.043  0.00  0.00    +0.000 A 
ATOM      6  C   UNL     1       2.121   0.710  -0.043  0.00  0.00    +0.000 A 
ATOM      7 CL   UNL     1       3.591   1.623  -0.063  0.00  0.00    +0.000 Cl
ATOM      8 CL   UNL     1       3.591  -1.623  -0.063  0.00  0.00    +0.000 Cl
ATOM      9  N   UNL     1      -1.566  -1.128   0.004  0.00  0.00    +0.000 N 
ATOM     10  C   UNL     1      -2.395   0.000   0.014  0.00  0.00    +0.000 A 
ATOM     11  S   UNL     1      -4.042   0.000   0.033  0.00  0.00    +0.000 S 
ATOM     12  N   UNL     1      -1.566   1.128   0.004  0.00  0.00    +0.000 N 
ATOM     13  H   UNL     1      -1.867  -2.065   0.008  0.00  0.00    +0.000 HD
ATOM     14  H   UNL     1      -1.867   2.065   0.008  0.00  0.00    +0.000 HD
ENDROOT
TORSDOF 0
