REMARK  Name = *****
REMARK  2 active torsions:
REMARK  status: ('A' for Active; 'I' for Inactive)
REMARK    1  A    between atoms: C_2  and  O_3
REMARK    2  A    between atoms: O_3  and  C_4
REMARK                            x       y       z     vdW  Elec       q    Type
REMARK                         _______ _______ _______ _____ _____    ______ ____
ROOT
ATOM      1  C   UNL     1       4.472  -1.019   0.652  0.00  0.00    +0.000 A 
ATOM      2  C   UNL     1       5.106  -2.115   0.070  0.00  0.00    +0.000 A 
ATOM      3  C   UNL     1       6.506  -2.153  -0.032  0.00  0.00    +0.000 A 
ATOM      4  C   UNL     1       7.166  -3.240  -0.626  0.00  0.00    +0.000 A 
ATOM      5  C   UNL     1       8.559  -3.264  -0.720  0.00  0.00    +0.000 A 
ATOM      6  C   UNL     1       9.308  -2.202  -0.221  0.00  0.00    +0.000 A 
ATOM      7  C   UNL     1       8.667  -1.115   0.375  0.00  0.00    +0.000 A 
ATOM      8  C   UNL     1       7.268  -1.074   0.477  0.00  0.00    +0.000 A 
ATOM      9  C   UNL     1       6.610   0.011   1.080  0.00  0.00    +0.000 A 
ATOM     10  C   UNL     1       5.217   0.037   1.175  0.00  0.00    +0.000 A 
ENDROOT
BRANCH   1  11
ATOM     11  O   UNL     1       3.103  -1.049   0.758  0.00  0.00    +0.000 OA
BRANCH  11  13
ATOM     12  C   UNL     1       1.096   0.106   0.261  0.00  0.00    +0.000 C 
ATOM     13  C   UNL     1       2.415  -0.045   0.118  0.00  0.00    +0.000 C 
ENDBRANCH  11  13
ENDBRANCH   1  11
TORSDOF 2
