REMARK  Name = *****
REMARK  1 active torsions:
REMARK  status: ('A' for Active; 'I' for Inactive)
REMARK    1  A    between atoms: C_8  and  C_10
REMARK                            x       y       z     vdW  Elec       q    Type
REMARK                         _______ _______ _______ _____ _____    ______ ____
ROOT
ATOM      1  C   UNL     1       0.892  -1.412  -0.073  0.00  0.00    +0.000 A 
ATOM      2  C   UNL     1       2.109  -0.721  -0.004  0.00  0.00    +0.000 A 
ATOM      3  C   UNL     1       2.160   0.668   0.024  0.00  0.00    +0.000 A 
ATOM      4  C   UNL     1       0.970   1.389  -0.019  0.00  0.00    +0.000 A 
ATOM      5  C   UNL     1      -0.281   0.744  -0.090  0.00  0.00    +0.000 A 
ATOM      6  C   UNL     1      -0.286  -0.652  -0.115  0.00  0.00    +0.000 A 
ATOM      7  N   UNL     1      -1.599  -1.054  -0.184  0.00  0.00    +0.000 N 
ATOM      8  C   UNL     1      -2.449   0.031  -0.206  0.00  0.00    +0.000 A 
ATOM      9  C   UNL     1      -1.646   1.158  -0.148  0.00  0.00    +0.000 A 
ATOM     10 CL   UNL     1       0.949   3.098   0.010  0.00  0.00    +0.000 Cl
ATOM     11 CL   UNL     1       3.578  -1.621   0.049  0.00  0.00    +0.000 Cl
ATOM     12  H   UNL     1      -1.893  -1.993  -0.213  0.00  0.00    +0.000 HD
ENDROOT
BRANCH   8  13
ATOM     13  C   UNL     1      -3.891  -0.134  -0.278  0.00  0.00    +0.000 C 
ATOM     14  O   UNL     1      -4.387  -1.256  -0.320  0.00  0.00    +0.000 OA
ATOM     15 CL   UNL     1      -4.814   1.346  -0.302  0.00  0.00    +0.000 Cl
ENDBRANCH   8  13
TORSDOF 1
