REMARK  Name = *****
REMARK  1 active torsions:
REMARK  status: ('A' for Active; 'I' for Inactive)
REMARK    1  A    between atoms: C_1  and  N_2
REMARK                            x       y       z     vdW  Elec       q    Type
REMARK                         _______ _______ _______ _____ _____    ______ ____
ROOT
ATOM      1  C   UNL     1       1.226   0.189   0.039  0.00  0.00    +0.000 C 
ATOM      2  N   UNL     1       2.632   0.065  -0.371  0.00  0.00    +0.000 N 
ATOM      3  C   UNL     1       3.567   1.105  -0.055  0.00  0.00    +0.000 A 
ATOM      4  C   UNL     1       3.250   2.458  -0.034  0.00  0.00    +0.000 A 
ATOM      5  C   UNL     1       4.268   3.394   0.156  0.00  0.00    +0.000 A 
ATOM      6  C   UNL     1       5.597   2.979   0.282  0.00  0.00    +0.000 A 
ATOM      7  C   UNL     1       5.923   1.624   0.210  0.00  0.00    +0.000 A 
ATOM      8  C   UNL     1       4.905   0.680   0.034  0.00  0.00    +0.000 A 
ATOM      9  C   UNL     1       5.115  -0.808  -0.105  0.00  0.00    +0.000 C 
ATOM     10  S   UNL     1       3.393  -1.428   0.068  0.00  0.00    +0.000 S 
ATOM     11  O   UNL     1       3.023  -2.408  -0.934  0.00  0.00    +0.000 OA
ATOM     12  O   UNL     1       3.059  -1.656   1.464  0.00  0.00    +0.000 OA
ATOM     13 CL   UNL     1       5.747  -1.204  -1.716  0.00  0.00    +0.000 Cl
ATOM     14 CL   UNL     1       6.124  -1.498   1.176  0.00  0.00    +0.000 Cl
ENDROOT
TORSDOF 0
