REMARK  Name = *****
REMARK  1 active torsions:
REMARK  status: ('A' for Active; 'I' for Inactive)
REMARK    1  A    between atoms: C_1  and  C_2
REMARK                            x       y       z     vdW  Elec       q    Type
REMARK                         _______ _______ _______ _____ _____    ______ ____
ROOT
ATOM      1  C   UNL     1       0.937  -0.124  -0.011  0.00  0.00    +0.000 C 
ATOM      2  C   UNL     1       2.441  -0.087  -0.040  0.00  0.00    +0.000 A 
ATOM      3  C   UNL     1       3.162   1.120  -0.000  0.00  0.00    +0.000 A 
ATOM      4  C   UNL     1       4.566   1.109  -0.021  0.00  0.00    +0.000 A 
ATOM      5  C   UNL     1       5.254  -0.109  -0.074  0.00  0.00    +0.000 A 
ATOM      6  C   UNL     1       4.547  -1.310  -0.105  0.00  0.00    +0.000 A 
ATOM      7  C   UNL     1       3.151  -1.298  -0.086  0.00  0.00    +0.000 A 
ATOM      8 CL   UNL     1       6.980  -0.164  -0.100  0.00  0.00    +0.000 Cl
ATOM      9  N   UNL     1       5.270   2.323   0.013  0.00  0.00    +0.000 N 
ATOM     10  C   UNL     1       4.668   3.557   0.068  0.00  0.00    +0.000 A 
ATOM     11  O   UNL     1       5.317   4.593   0.093  0.00  0.00    +0.000 OA
ATOM     12  C   UNL     1       3.123   3.570   0.099  0.00  0.00    +0.000 A 
ATOM     13  O   UNL     1       2.492   4.617   0.154  0.00  0.00    +0.000 OA
ATOM     14  N   UNL     1       2.490   2.348   0.062  0.00  0.00    +0.000 N 
ATOM     15  H   UNL     1       6.254   2.288  -0.004  0.00  0.00    +0.000 HD
ATOM     16  H   UNL     1       1.506   2.337   0.080  0.00  0.00    +0.000 HD
ENDROOT
TORSDOF 0
