REMARK  Name = *****
REMARK  1 active torsions:
REMARK  status: ('A' for Active; 'I' for Inactive)
REMARK    1  A    between atoms: C_1  and  C_2
REMARK                            x       y       z     vdW  Elec       q    Type
REMARK                         _______ _______ _______ _____ _____    ______ ____
ROOT
ATOM      1  C   UNL     1       1.328  -0.008   0.175  0.00  0.00    +0.000 C 
ATOM      2  C   UNL     1       2.758   0.131  -0.194  0.00  0.00    +0.000 A 
ATOM      3  C   UNL     1       3.542   1.253  -0.364  0.00  0.00    +0.000 A 
ATOM      4  C   UNL     1       4.856   0.830  -0.721  0.00  0.00    +0.000 A 
ATOM      5  C   UNL     1       4.830  -0.567  -0.757  0.00  0.00    +0.000 A 
ATOM      6  N   UNL     1       3.552  -0.963  -0.434  0.00  0.00    +0.000 N 
ATOM      7  C   UNL     1       5.960  -1.334  -1.077  0.00  0.00    +0.000 A 
ATOM      8  C   UNL     1       7.148  -0.652  -1.368  0.00  0.00    +0.000 A 
ATOM      9  C   UNL     1       7.219   0.736  -1.344  0.00  0.00    +0.000 A 
ATOM     10  C   UNL     1       6.077   1.466  -1.021  0.00  0.00    +0.000 A 
ATOM     11 CL   UNL     1       6.085   3.175  -0.971  0.00  0.00    +0.000 Cl
ATOM     12 CL   UNL     1       8.557  -1.561  -1.767  0.00  0.00    +0.000 Cl
ATOM     13  H   UNL     1       3.250  -1.899  -0.382  0.00  0.00    +0.000 HD
ENDROOT
TORSDOF 0
