REMARK  Name = *****
REMARK  4 active torsions:
REMARK  status: ('A' for Active; 'I' for Inactive)
REMARK    1  A    between atoms: C_1  and  C_2
REMARK    2  A    between atoms: C_2  and  O_3
REMARK    3  A    between atoms: O_3  and  C_4
REMARK    4  A    between atoms: C_13  and  C_14
REMARK                            x       y       z     vdW  Elec       q    Type
REMARK                         _______ _______ _______ _____ _____    ______ ____
ROOT
ATOM      1  C   UNL     1       4.357   0.654  -1.482  0.00  0.00    +0.000 A 
ATOM      2  C   UNL     1       4.940   1.826  -1.976  0.00  0.00    +0.000 A 
ATOM      3  C   UNL     1       6.332   1.928  -2.150  0.00  0.00    +0.000 A 
ATOM      4  C   UNL     1       6.925   3.101  -2.645  0.00  0.00    +0.000 A 
ATOM      5  C   UNL     1       8.308   3.189  -2.813  0.00  0.00    +0.000 A 
ATOM      6  C   UNL     1       9.117   2.104  -2.488  0.00  0.00    +0.000 A 
ATOM      7  C   UNL     1       8.544   0.931  -1.995  0.00  0.00    +0.000 A 
ATOM      8  C   UNL     1       7.154   0.829  -1.821  0.00  0.00    +0.000 A 
ATOM      9  C   UNL     1       6.563  -0.343  -1.326  0.00  0.00    +0.000 A 
ATOM     10  C   UNL     1       5.173  -0.441  -1.154  0.00  0.00    +0.000 A 
ATOM     11  C   UNL     1       4.575  -1.713  -0.619  0.00  0.00    +0.000 C 
ENDROOT
BRANCH   1  12
ATOM     12  O   UNL     1       3.013   0.470  -1.282  0.00  0.00    +0.000 OA
BRANCH  12  14
ATOM     13  C   UNL     1       0.718   1.101  -1.323  0.00  0.00    +0.000 C 
ATOM     14  C   UNL     1       2.139   1.545  -1.617  0.00  0.00    +0.000 C 
ENDBRANCH  12  14
ENDBRANCH   1  12
TORSDOF 2
