REMARK  Name = *****
REMARK  2 active torsions:
REMARK  status: ('A' for Active; 'I' for Inactive)
REMARK    1  A    between atoms: C_1  and  C_2
REMARK    2  A    between atoms: C_2  and  N_4
REMARK                            x       y       z     vdW  Elec       q    Type
REMARK                         _______ _______ _______ _____ _____    ______ ____
ROOT
ATOM      1  N   UNL     1       3.094  -1.240   0.426  0.00  0.00    +0.000 N 
ATOM      2  C   UNL     1       2.756  -2.615   0.265  0.00  0.00    +0.000 A 
ATOM      3  C   UNL     1       3.670  -3.382   0.991  0.00  0.00    +0.000 A 
ATOM      4  C   UNL     1       3.641  -4.759   1.048  0.00  0.00    +0.000 A 
ATOM      5  C   UNL     1       2.642  -5.392   0.313  0.00  0.00    +0.000 A 
ATOM      6  C   UNL     1       1.730  -4.652  -0.459  0.00  0.00    +0.000 A 
ATOM      7  C   UNL     1       1.790  -3.250  -0.495  0.00  0.00    +0.000 A 
ATOM      8 CL   UNL     1       2.539  -7.111   0.326  0.00  0.00    +0.000 Cl
ATOM      9  N   UNL     1       4.588  -2.534   1.581  0.00  0.00    +0.000 N 
ATOM     10  C   UNL     1       4.285  -1.208   1.243  0.00  0.00    +0.000 A 
ATOM     11  O   UNL     1       4.943  -0.254   1.631  0.00  0.00    +0.000 OA
ATOM     12  H   UNL     1       5.339  -2.817   2.151  0.00  0.00    +0.000 HD
ENDROOT
BRANCH   1  14
ATOM     13  C   UNL     1       3.265   1.183  -0.112  0.00  0.00    +0.000 C 
ATOM     14  C   UNL     1       2.462  -0.096  -0.057  0.00  0.00    +0.000 C 
ATOM     15  C   UNL     1       1.178  -0.054  -0.449  0.00  0.00    +0.000 C 
ENDBRANCH   1  14
TORSDOF 1
