REMARK  Name = *****
REMARK  0 active torsions:
REMARK  status: ('A' for Active; 'I' for Inactive)
REMARK                            x       y       z     vdW  Elec       q    Type
REMARK                         _______ _______ _______ _____ _____    ______ ____
ROOT
ATOM      1  C   UNL     1      -1.263   1.409  -0.036  0.00  0.00    +0.000 A 
ATOM      2  C   UNL     1      -2.407   0.714  -0.052  0.00  0.00    +0.000 A 
ATOM      3  C   UNL     1      -2.410  -0.769  -0.056  0.00  0.00    +0.000 A 
ATOM      4  O   UNL     1      -3.464  -1.394  -0.072  0.00  0.00    +0.000 OA
ATOM      5  N   UNL     1      -1.189  -1.384  -0.042  0.00  0.00    +0.000 N 
ATOM      6  C   UNL     1       0.037  -0.696  -0.025  0.00  0.00    +0.000 A 
ATOM      7  C   UNL     1       1.255  -1.386  -0.011  0.00  0.00    +0.000 A 
ATOM      8  C   UNL     1       2.459  -0.682   0.004  0.00  0.00    +0.000 A 
ATOM      9  C   UNL     1       2.438   0.712   0.007  0.00  0.00    +0.000 A 
ATOM     10  C   UNL     1       1.230   1.411  -0.006  0.00  0.00    +0.000 A 
ATOM     11  C   UNL     1       0.022   0.708  -0.022  0.00  0.00    +0.000 A 
ATOM     12 CL   UNL     1       3.922   1.584   0.025  0.00  0.00    +0.000 Cl
ATOM     13 CL   UNL     1       1.305  -3.112  -0.014  0.00  0.00    +0.000 Cl
ATOM     14  H   UNL     1      -1.167  -2.369  -0.043  0.00  0.00    +0.000 HD
ENDROOT
TORSDOF 0
