REMARK  Name = *****
REMARK  0 active torsions:
REMARK  status: ('A' for Active; 'I' for Inactive)
REMARK                            x       y       z     vdW  Elec       q    Type
REMARK                         _______ _______ _______ _____ _____    ______ ____
ROOT
ATOM      1  C   UNL     1      -2.356   0.442   0.169  0.00  0.00    +0.000 C 
ATOM      2  C   UNL     1      -2.156  -1.025  -0.225  0.00  0.00    +0.000 C 
ATOM      3  C   UNL     1      -0.809  -1.581   0.252  0.00  0.00    +0.000 C 
ATOM      4  C   UNL     1       0.324  -0.679  -0.227  0.00  0.00    +0.000 C 
ATOM      5  C   UNL     1       0.127   0.743   0.287  0.00  0.00    +0.000 C 
ATOM      6  C   UNL     1      -1.177   1.327  -0.248  0.00  0.00    +0.000 C 
ATOM      7  S   UNL     1       1.601   1.671  -0.224  0.00  0.00    +0.000 S 
ATOM      8  C   UNL     1       2.738   0.359   0.085  0.00  0.00    +0.000 C 
ATOM      9  S   UNL     1       4.390   0.574   0.118  0.00  0.00    +0.000 S 
ATOM     10  S   UNL     1       1.962  -1.201   0.355  0.00  0.00    +0.000 S 
ENDROOT
TORSDOF 0
