REMARK  Name = *****
REMARK  1 active torsions:
REMARK  status: ('A' for Active; 'I' for Inactive)
REMARK    1  A    between atoms: C_6  and  C_7
REMARK                            x       y       z     vdW  Elec       q    Type
REMARK                         _______ _______ _______ _____ _____    ______ ____
ROOT
ATOM      1  C   UNL     1      -2.862   0.781  -0.006  0.00  0.00    +0.000 A 
ATOM      2  C   UNL     1      -1.653   1.489  -0.005  0.00  0.00    +0.000 A 
ATOM      3  C   UNL     1      -0.476   0.764  -0.001  0.00  0.00    +0.000 A 
ATOM      4  C   UNL     1      -0.476  -0.628   0.004  0.00  0.00    +0.000 A 
ATOM      5  C   UNL     1      -1.662  -1.342   0.003  0.00  0.00    +0.000 A 
ATOM      6  C   UNL     1      -2.877  -0.632  -0.002  0.00  0.00    +0.000 A 
ATOM      7  S   UNL     1       1.186  -1.242   0.008  0.00  0.00    +0.000 S 
ATOM      8  C   UNL     1       1.839   0.405   0.003  0.00  0.00    +0.000 A 
ATOM      9  O   UNL     1       3.028   0.676   0.003  0.00  0.00    +0.000 OA
ATOM     10  N   UNL     1       0.804   1.311  -0.000  0.00  0.00    +0.000 N 
ATOM     11  H   UNL     1       0.958   2.283  -0.003  0.00  0.00    +0.000 HD
ENDROOT
BRANCH   6  12
ATOM     12  C   UNL     1      -4.161  -1.410  -0.004  0.00  0.00    +0.000 C 
ATOM     13  O   UNL     1      -4.073  -2.637   0.002  0.00  0.00    +0.000 OA
ATOM     14 CL   UNL     1      -5.695  -0.565  -0.013  0.00  0.00    +0.000 Cl
ENDBRANCH   6  12
TORSDOF 1
