REMARK  Name = *****
REMARK  3 active torsions:
REMARK  status: ('A' for Active; 'I' for Inactive)
REMARK    1  A    between atoms: C_1  and  O_2
REMARK    2  A    between atoms: O_2  and  C_3
REMARK    3  A    between atoms: C_4  and  C_13
REMARK                            x       y       z     vdW  Elec       q    Type
REMARK                         _______ _______ _______ _____ _____    ______ ____
ROOT
ATOM      1  C   UNL     1       3.098  -1.299  -0.035  0.00  0.00    +0.000 A 
ATOM      2  C   UNL     1       4.248  -1.502   0.770  0.00  0.00    +0.000 A 
ATOM      3  C   UNL     1       5.032  -2.697   0.594  0.00  0.00    +0.000 A 
ATOM      4  C   UNL     1       6.198  -3.029   1.333  0.00  0.00    +0.000 A 
ATOM      5  C   UNL     1       6.918  -4.208   1.116  0.00  0.00    +0.000 A 
ATOM      6  C   UNL     1       6.498  -5.105   0.147  0.00  0.00    +0.000 A 
ATOM      7  C   UNL     1       5.360  -4.819  -0.600  0.00  0.00    +0.000 A 
ATOM      8  C   UNL     1       4.629  -3.637  -0.389  0.00  0.00    +0.000 A 
ATOM      9  C   UNL     1       3.493  -3.398  -1.166  0.00  0.00    +0.000 A 
ATOM     10  C   UNL     1       2.735  -2.244  -0.993  0.00  0.00    +0.000 A 
ENDROOT
BRANCH   2  11
ATOM     11  C   UNL     1       4.593  -0.431   1.792  0.00  0.00    +0.000 C 
ATOM     12 CL   UNL     1       4.505  -1.041   3.466  0.00  0.00    +0.000 Cl
ATOM     13 CL   UNL     1       6.170   0.336   1.461  0.00  0.00    +0.000 Cl
ENDBRANCH   2  11
BRANCH   1  15
ATOM     14  C   UNL     1       1.201   0.071  -0.558  0.00  0.00    +0.000 C 
ATOM     15  O   UNL     1       2.395  -0.141   0.187  0.00  0.00    +0.000 OA
ENDBRANCH   1  15
TORSDOF 2
