REMARK  Name = *****
REMARK  4 active torsions:
REMARK  status: ('A' for Active; 'I' for Inactive)
REMARK    1  A    between atoms: C_1  and  O_2
REMARK    2  A    between atoms: O_2  and  C_3
REMARK    3  A    between atoms: C_10  and  C_11
REMARK    4  A    between atoms: C_11  and  C_12
REMARK                            x       y       z     vdW  Elec       q    Type
REMARK                         _______ _______ _______ _____ _____    ______ ____
ROOT
ATOM      1  C   UNL     1       2.845   0.991   1.043  0.00  0.00    +0.000 A 
ATOM      2  C   UNL     1       3.873   1.777   0.510  0.00  0.00    +0.000 A 
ATOM      3  C   UNL     1       4.677   2.620   1.315  0.00  0.00    +0.000 A 
ATOM      4  C   UNL     1       4.405   2.642   2.706  0.00  0.00    +0.000 A 
ATOM      5  C   UNL     1       5.167   3.456   3.557  0.00  0.00    +0.000 A 
ATOM      6  C   UNL     1       6.195   4.248   3.056  0.00  0.00    +0.000 A 
ATOM      7  C   UNL     1       6.476   4.237   1.695  0.00  0.00    +0.000 A 
ATOM      8  C   UNL     1       5.729   3.437   0.811  0.00  0.00    +0.000 A 
ATOM      9  C   UNL     1       3.375   1.847   3.232  0.00  0.00    +0.000 A 
ATOM     10  C   UNL     1       2.600   1.027   2.409  0.00  0.00    +0.000 A 
ENDROOT
BRANCH   1  12
ATOM     11  C   UNL     1       1.068  -0.525   0.601  0.00  0.00    +0.000 C 
ATOM     12  O   UNL     1       2.168   0.238   0.123  0.00  0.00    +0.000 OA
ENDBRANCH   1  12
BRANCH   8  13
ATOM     13  C   UNL     1       6.114   3.463  -0.655  0.00  0.00    +0.000 C 
BRANCH  13  14
ATOM     14  C   UNL     1       7.044   2.308  -1.010  0.00  0.00    +0.000 C 
ATOM     15 CL   UNL     1       7.498   2.382  -2.730  0.00  0.00    +0.000 Cl
ENDBRANCH  13  14
ENDBRANCH   8  13
TORSDOF 3
