REMARK  Name = *****
REMARK  2 active torsions:
REMARK  status: ('A' for Active; 'I' for Inactive)
REMARK    1  A    between atoms: C_1  and  O_2
REMARK    2  A    between atoms: O_2  and  C_3
REMARK                            x       y       z     vdW  Elec       q    Type
REMARK                         _______ _______ _______ _____ _____    ______ ____
ROOT
ATOM      1  C   UNL     1       2.994   1.193   0.083  0.00  0.00    +0.000 A 
ATOM      2  C   UNL     1       4.122   1.398  -0.716  0.00  0.00    +0.000 A 
ATOM      3  C   UNL     1       4.877   2.573  -0.606  0.00  0.00    +0.000 A 
ATOM      4  C   UNL     1       4.507   3.551   0.331  0.00  0.00    +0.000 A 
ATOM      5  C   UNL     1       3.382   3.342   1.134  0.00  0.00    +0.000 A 
ATOM      6  C   UNL     1       2.626   2.170   1.008  0.00  0.00    +0.000 A 
ATOM      7  C   UNL     1       5.305   4.773   0.471  0.00  0.00    +0.000 C 
ATOM      8  C   UNL     1       6.216   5.096  -0.460  0.00  0.00    +0.000 C 
ATOM      9  C   UNL     1       6.478   4.232  -1.664  0.00  0.00    +0.000 C 
ATOM     10  C   UNL     1       6.132   2.756  -1.422  0.00  0.00    +0.000 C 
ATOM     11 BR   UNL     1       7.226   6.662  -0.352  0.00  0.00    +0.000 Br
ENDROOT
BRANCH   1  13
ATOM     12  C   UNL     1       1.203  -0.258   0.665  0.00  0.00    +0.000 C 
ATOM     13  O   UNL     1       2.349   0.006  -0.134  0.00  0.00    +0.000 OA
ENDBRANCH   1  13
TORSDOF 1
