REMARK  Name = *****
REMARK  4 active torsions:
REMARK  status: ('A' for Active; 'I' for Inactive)
REMARK    1  A    between atoms: C_1  and  C_2
REMARK    2  A    between atoms: C_7  and  C_8
REMARK    3  A    between atoms: C_10  and  O_13
REMARK    4  A    between atoms: O_13  and  C_14
REMARK                            x       y       z     vdW  Elec       q    Type
REMARK                         _______ _______ _______ _____ _____    ______ ____
ROOT
ATOM      1  C   UNL     1       0.989  -0.133  -0.004  0.00  0.00    +0.000 C 
ATOM      2  C   UNL     1       2.516  -0.097   0.066  0.00  0.00    +0.000 C 
ATOM      3  C   UNL     1       3.050  -1.306   0.842  0.00  0.00    +0.000 C 
ATOM      4  C   UNL     1       4.570  -1.387   0.733  0.00  0.00    +0.000 C 
ATOM      5  C   UNL     1       5.269  -0.063   0.916  0.00  0.00    +0.000 A 
ATOM      6  C   UNL     1       4.583   1.160   0.836  0.00  0.00    +0.000 A 
ATOM      7  C   UNL     1       3.073   1.224   0.658  0.00  0.00    +0.000 C 
ATOM      8  C   UNL     1       2.419   1.632   1.987  0.00  0.00    +0.000 C 
ATOM      9  C   UNL     1       5.312   2.358   0.951  0.00  0.00    +0.000 A 
ATOM     10  C   UNL     1       6.696   2.357   1.146  0.00  0.00    +0.000 A 
ATOM     11  C   UNL     1       7.369   1.141   1.219  0.00  0.00    +0.000 A 
ATOM     12  C   UNL     1       6.661  -0.058   1.099  0.00  0.00    +0.000 A 
ENDROOT
BRANCH  10  13
ATOM     13  O   UNL     1       7.261   3.599   1.245  0.00  0.00    +0.000 OA
ATOM     14  C   UNL     1       8.663   3.649   1.475  0.00  0.00    +0.000 C 
ENDBRANCH  10  13
TORSDOF 1
