REMARK  Name = *****
REMARK  0 active torsions:
REMARK  status: ('A' for Active; 'I' for Inactive)
REMARK                            x       y       z     vdW  Elec       q    Type
REMARK                         _______ _______ _______ _____ _____    ______ ____
ROOT
ATOM      1  C   UNL     1       1.232   1.390   0.002  0.00  0.00    +0.000 A 
ATOM      2  C   UNL     1       2.445   0.698   0.009  0.00  0.00    +0.000 A 
ATOM      3  C   UNL     1       2.462  -0.702   0.004  0.00  0.00    +0.000 A 
ATOM      4  C   UNL     1       1.259  -1.420  -0.009  0.00  0.00    +0.000 A 
ATOM      5  C   UNL     1       0.042  -0.719  -0.018  0.00  0.00    +0.000 A 
ATOM      6  C   UNL     1       0.026   0.686  -0.012  0.00  0.00    +0.000 A 
ATOM      7  C   UNL     1      -1.257   1.389  -0.022  0.00  0.00    +0.000 A 
ATOM      8  C   UNL     1      -2.404   0.697  -0.037  0.00  0.00    +0.000 A 
ATOM      9  C   UNL     1      -2.409  -0.785  -0.043  0.00  0.00    +0.000 A 
ATOM     10  O   UNL     1      -3.465  -1.408  -0.057  0.00  0.00    +0.000 OA
ATOM     11  N   UNL     1      -1.190  -1.403  -0.033  0.00  0.00    +0.000 N 
ATOM     12 CL   UNL     1       1.235  -3.155  -0.016  0.00  0.00    +0.000 Cl
ATOM     13 BR   UNL     1       4.166  -1.545   0.014  0.00  0.00    +0.000 Br
ATOM     14  H   UNL     1      -1.171  -2.387  -0.036  0.00  0.00    +0.000 HD
ENDROOT
TORSDOF 0
