REMARK  Name = *****
REMARK  1 active torsions:
REMARK  status: ('A' for Active; 'I' for Inactive)
REMARK    1  A    between atoms: N_12  and  O_13
REMARK                            x       y       z     vdW  Elec       q    Type
REMARK                         _______ _______ _______ _____ _____    ______ ____
ROOT
ATOM      1  C   UNL     1       1.197  -1.377  -0.033  0.00  0.00    +0.000 A 
ATOM      2  C   UNL     1       2.394  -0.665  -0.040  0.00  0.00    +0.000 A 
ATOM      3  C   UNL     1       2.393   0.727   0.004  0.00  0.00    +0.000 A 
ATOM      4  C   UNL     1       1.178   1.415   0.056  0.00  0.00    +0.000 A 
ATOM      5  C   UNL     1      -0.047   0.725   0.065  0.00  0.00    +0.000 A 
ATOM      6  C   UNL     1      -0.012  -0.681   0.019  0.00  0.00    +0.000 A 
ATOM      7  N   UNL     1      -1.212  -1.399   0.020  0.00  0.00    +0.000 N 
ATOM      8  C   UNL     1      -2.428  -0.769   0.058  0.00  0.00    +0.000 A 
ATOM      9  O   UNL     1      -3.503  -1.350   0.025  0.00  0.00    +0.000 OA
ATOM     10  C   UNL     1      -2.393   0.767   0.129  0.00  0.00    +0.000 A 
ATOM     11  N   UNL     1      -1.268   1.433   0.124  0.00  0.00    +0.000 NA
ATOM     12  N   UNL     1      -3.617   1.412   0.201  0.00  0.00    +0.000 N 
ATOM     13 CL   UNL     1       1.230   3.144   0.107  0.00  0.00    +0.000 Cl
ATOM     14 CL   UNL     1       3.888  -1.515  -0.103  0.00  0.00    +0.000 Cl
ATOM     15  H   UNL     1      -1.183  -2.383  -0.008  0.00  0.00    +0.000 HD
ATOM     16  H   UNL     1      -4.423   1.001   0.589  0.00  0.00    +0.000 HD
ENDROOT
BRANCH  12  17
ATOM     17  O   UNL     1      -3.593   2.708  -0.333  0.00  0.00    +0.000 OA
ATOM     18  H   UNL     1      -2.701   2.907  -0.658  0.00  0.00    +0.000 HD
ENDBRANCH  12  17
TORSDOF 1
