REMARK  Name = *****
REMARK  4 active torsions:
REMARK  status: ('A' for Active; 'I' for Inactive)
REMARK    1  A    between atoms: C_1  and  C_2
REMARK    2  A    between atoms: C_2  and  C_3
REMARK    3  A    between atoms: C_10  and  O_13
REMARK    4  A    between atoms: O_13  and  C_14
REMARK                            x       y       z     vdW  Elec       q    Type
REMARK                         _______ _______ _______ _____ _____    ______ ____
ROOT
ATOM      1  C   UNL     1       2.965  -1.529   0.157  0.00  0.00    +0.000 C 
ATOM      2  C   UNL     1       2.010  -2.653  -0.269  0.00  0.00    +0.000 C 
ATOM      3  C   UNL     1       2.670  -4.019  -0.093  0.00  0.00    +0.000 C 
ATOM      4  C   UNL     1       3.316  -4.195   1.257  0.00  0.00    +0.000 A 
ATOM      5  C   UNL     1       3.649  -3.093   2.061  0.00  0.00    +0.000 A 
ATOM      6  C   UNL     1       3.301  -1.680   1.651  0.00  0.00    +0.000 C 
ATOM      7  C   UNL     1       4.272  -3.304   3.306  0.00  0.00    +0.000 A 
ATOM      8  C   UNL     1       4.589  -4.592   3.739  0.00  0.00    +0.000 A 
ATOM      9  C   UNL     1       4.272  -5.679   2.925  0.00  0.00    +0.000 A 
ATOM     10  C   UNL     1       3.644  -5.485   1.693  0.00  0.00    +0.000 A 
ENDROOT
BRANCH   1  12
ATOM     11  C   UNL     1       3.264   1.014   0.142  0.00  0.00    +0.000 C 
ATOM     12  C   UNL     1       2.342  -0.158  -0.163  0.00  0.00    +0.000 C 
ENDBRANCH   1  12
BRANCH   8  13
ATOM     13  O   UNL     1       5.198  -4.920   4.919  0.00  0.00    +0.000 OA
ATOM     14  C   UNL     1       5.563  -3.845   5.774  0.00  0.00    +0.000 C 
ENDBRANCH   8  13
TORSDOF 2
