REMARK  Name = *****
REMARK  0 active torsions:
REMARK  status: ('A' for Active; 'I' for Inactive)
REMARK                            x       y       z     vdW  Elec       q    Type
REMARK                         _______ _______ _______ _____ _____    ______ ____
ROOT
ATOM      1  C   UNL     1       2.474  -0.064  -0.001  0.00  0.00    +0.000 C 
ATOM      2  C   UNL     1       1.639   1.225  -0.216  0.00  0.00    +0.000 C 
ATOM      3  C   UNL     1       0.296   0.806   0.321  0.00  0.00    +0.000 C 
ATOM      4  C   UNL     1      -1.051   1.417  -0.034  0.00  0.00    +0.000 C 
ATOM      5  C   UNL     1      -1.985   0.268   0.337  0.00  0.00    +0.000 C 
ATOM      6  C   UNL     1      -2.397  -0.812  -0.625  0.00  0.00    +0.000 C 
ATOM      7  C   UNL     1      -1.180  -1.019   0.234  0.00  0.00    +0.000 C 
ATOM      8  C   UNL     1       0.170  -0.610  -0.253  0.00  0.00    +0.000 C 
ATOM      9  C   UNL     1       1.463  -1.221   0.219  0.00  0.00    +0.000 C 
ENDROOT
TORSDOF 0
