REMARK  Name = *****
REMARK  1 active torsions:
REMARK  status: ('A' for Active; 'I' for Inactive)
REMARK    1  A    between atoms: C_11  and  O_12
REMARK                            x       y       z     vdW  Elec       q    Type
REMARK                         _______ _______ _______ _____ _____    ______ ____
ROOT
ATOM      1  C   UNL     1       1.221  -1.364  -0.002  0.00  0.00    +0.000 A 
ATOM      2  C   UNL     1       2.439  -0.698  -0.001  0.00  0.00    +0.000 A 
ATOM      3  C   UNL     1       2.478   0.690   0.002  0.00  0.00    +0.000 A 
ATOM      4  C   UNL     1       1.288   1.434   0.003  0.00  0.00    +0.000 A 
ATOM      5  C   UNL     1       0.032   0.790   0.001  0.00  0.00    +0.000 A 
ATOM      6  C   UNL     1       0.034  -0.624  -0.001  0.00  0.00    +0.000 A 
ATOM      7  N   UNL     1      -1.175  -1.336  -0.001  0.00  0.00    +0.000 N 
ATOM      8  C   UNL     1      -2.404  -0.747  -0.001  0.00  0.00    +0.000 A 
ATOM      9  O   UNL     1      -3.444  -1.395  -0.001  0.00  0.00    +0.000 OA
ATOM     10  C   UNL     1      -2.431   0.726  -0.001  0.00  0.00    +0.000 A 
ATOM     11  C   UNL     1      -1.300   1.446  -0.000  0.00  0.00    +0.000 A 
ATOM     12 CL   UNL     1       1.503   3.153   0.008  0.00  0.00    +0.000 Cl
ATOM     13 CL   UNL     1       3.905  -1.598  -0.002  0.00  0.00    +0.000 Cl
ATOM     14  H   UNL     1      -1.133  -2.319  -0.002  0.00  0.00    +0.000 HD
ENDROOT
BRANCH  11  15
ATOM     15  O   UNL     1      -1.334   2.821  -0.002  0.00  0.00    +0.000 OA
ATOM     16  H   UNL     1      -0.534   3.310  -0.001  0.00  0.00    +0.000 HD
ENDBRANCH  11  15
TORSDOF 1
