REMARK  Name = *****
REMARK  0 active torsions:
REMARK  status: ('A' for Active; 'I' for Inactive)
REMARK                            x       y       z     vdW  Elec       q    Type
REMARK                         _______ _______ _______ _____ _____    ______ ____
ROOT
ATOM      1  C   UNL     1      -2.104  -0.639  -0.189  0.00  0.00    +0.000 C 
ATOM      2  C   UNL     1      -1.987   0.871  -0.369  0.00  0.00    +0.000 C 
ATOM      3  C   UNL     1      -1.016   1.482   0.641  0.00  0.00    +0.000 C 
ATOM      4  C   UNL     1       0.356   0.803   0.666  0.00  0.00    +0.000 C 
ATOM      5  C   UNL     1       0.253  -0.721   0.721  0.00  0.00    +0.000 C 
ATOM      6  C   UNL     1      -0.742  -1.321  -0.282  0.00  0.00    +0.000 C 
ATOM      7  S   UNL     1       1.924  -1.380   0.429  0.00  0.00    +0.000 S 
ATOM      8  C   UNL     1       2.433  -0.145  -0.713  0.00  0.00    +0.000 C 
ATOM      9  S   UNL     1       3.812  -0.279  -1.639  0.00  0.00    +0.000 S 
ATOM     10  S   UNL     1       1.357   1.241  -0.796  0.00  0.00    +0.000 S 
ENDROOT
TORSDOF 0
