REMARK  Name = *****
REMARK  4 active torsions:
REMARK  status: ('A' for Active; 'I' for Inactive)
REMARK    1  A    between atoms: C_1  and  O_2
REMARK    2  A    between atoms: O_2  and  C_3
REMARK    3  A    between atoms: C_10  and  S_13
REMARK    4  A    between atoms: S_13  and  C_14
REMARK                            x       y       z     vdW  Elec       q    Type
REMARK                         _______ _______ _______ _____ _____    ______ ____
ROOT
ATOM      1  C   UNL     1       3.041  -1.202   0.108  0.00  0.00    +0.000 A 
ATOM      2  C   UNL     1       4.156  -1.242   0.951  0.00  0.00    +0.000 A 
ATOM      3  C   UNL     1       4.891  -2.426   1.133  0.00  0.00    +0.000 A 
ATOM      4  C   UNL     1       4.494  -3.595   0.452  0.00  0.00    +0.000 A 
ATOM      5  C   UNL     1       3.373  -3.546  -0.391  0.00  0.00    +0.000 A 
ATOM      6  C   UNL     1       2.652  -2.359  -0.562  0.00  0.00    +0.000 A 
ATOM      7  C   UNL     1       5.230  -4.779   0.634  0.00  0.00    +0.000 A 
ATOM      8  C   UNL     1       6.351  -4.828   1.477  0.00  0.00    +0.000 A 
ATOM      9  C   UNL     1       6.731  -3.663   2.146  0.00  0.00    +0.000 A 
ATOM     10  C   UNL     1       6.010  -2.475   1.975  0.00  0.00    +0.000 A 
ENDROOT
BRANCH   1  12
ATOM     11  C   UNL     1       1.292   0.114  -0.820  0.00  0.00    +0.000 C 
ATOM     12  O   UNL     1       2.428   0.018   0.030  0.00  0.00    +0.000 OA
ENDBRANCH   1  12
BRANCH   8  13
ATOM     13  S   UNL     1       7.187  -6.405   1.611  0.00  0.00    +0.000 S 
ATOM     14  C   UNL     1       8.575  -6.057   2.722  0.00  0.00    +0.000 C 
ENDBRANCH   8  13
TORSDOF 2
