REMARK  Name = *****
REMARK  0 active torsions:
REMARK  status: ('A' for Active; 'I' for Inactive)
REMARK                            x       y       z     vdW  Elec       q    Type
REMARK                         _______ _______ _______ _____ _____    ______ ____
ROOT
ATOM      1  C   UNL     1       1.299  -1.188   0.034  0.00  0.00    +0.000 A 
ATOM      2  C   UNL     1       2.371  -0.366   0.050  0.00  0.00    +0.000 A 
ATOM      3  C   UNL     1       2.317   1.075   0.048  0.00  0.00    +0.000 A 
ATOM      4  C   UNL     1       1.892   2.340   0.041  0.00  0.00    +0.000 C 
ATOM      5  C   UNL     1       0.882   1.488   0.026  0.00  0.00    +0.000 A 
ATOM      6  C   UNL     1      -0.252   0.818   0.010  0.00  0.00    +0.000 A 
ATOM      7  C   UNL     1      -0.062  -0.640   0.012  0.00  0.00    +0.000 A 
ATOM      8  C   UNL     1      -1.149  -1.429  -0.007  0.00  0.00    +0.000 C 
ATOM      9  C   UNL     1      -2.515  -0.841  -0.028  0.00  0.00    +0.000 C 
ATOM     10  O   UNL     1      -3.508  -1.559  -0.046  0.00  0.00    +0.000 OA
ATOM     11  C   UNL     1      -2.648   0.641  -0.026  0.00  0.00    +0.000 C 
ATOM     12  C   UNL     1      -1.560   1.423  -0.009  0.00  0.00    +0.000 C 
ENDROOT
TORSDOF 0
