REMARK  Name = *****
REMARK  5 active torsions:
REMARK  status: ('A' for Active; 'I' for Inactive)
REMARK    1  A    between atoms: C_1  and  C_2
REMARK    2  A    between atoms: C_7  and  C_8
REMARK    3  A    between atoms: C_10  and  C_12
REMARK    4  A    between atoms: C_12  and  O_14
REMARK    5  A    between atoms: O_14  and  C_15
REMARK                            x       y       z     vdW  Elec       q    Type
REMARK                         _______ _______ _______ _____ _____    ______ ____
ROOT
ATOM      1  C   UNL     1       0.997  -0.083   0.225  0.00  0.00    +0.000 C 
ATOM      2  C   UNL     1       2.493  -0.045   0.058  0.00  0.00    +0.000 A 
ATOM      3  C   UNL     1       3.136   1.206  -0.020  0.00  0.00    +0.000 A 
ATOM      4  C   UNL     1       4.533   1.273  -0.177  0.00  0.00    +0.000 A 
ATOM      5  C   UNL     1       5.254   0.087  -0.252  0.00  0.00    +0.000 A 
ATOM      6  C   UNL     1       4.648  -1.172  -0.178  0.00  0.00    +0.000 A 
ATOM      7  C   UNL     1       3.250  -1.231  -0.020  0.00  0.00    +0.000 A 
ATOM      8  C   UNL     1       2.589  -2.583   0.058  0.00  0.00    +0.000 C 
ATOM      9  N   UNL     1       6.577   0.429  -0.403  0.00  0.00    +0.000 N 
ATOM     10  C   UNL     1       6.733   1.797  -0.430  0.00  0.00    +0.000 A 
ATOM     11  C   UNL     1       5.467   2.339  -0.289  0.00  0.00    +0.000 A 
ATOM     12  H   UNL     1       7.315  -0.218  -0.481  0.00  0.00    +0.000 HD
ENDROOT
BRANCH  10  13
ATOM     13  C   UNL     1       8.023   2.418  -0.583  0.00  0.00    +0.000 C 
ATOM     14  O   UNL     1       9.077   1.805  -0.697  0.00  0.00    +0.000 OA
BRANCH  13  15
ATOM     15  O   UNL     1       7.898   3.773  -0.583  0.00  0.00    +0.000 OA
ATOM     16  C   UNL     1       9.135   4.468  -0.734  0.00  0.00    +0.000 C 
ENDBRANCH  13  15
ENDBRANCH  10  13
TORSDOF 2
