REMARK  Name = *****
REMARK  0 active torsions:
REMARK  status: ('A' for Active; 'I' for Inactive)
REMARK                            x       y       z     vdW  Elec       q    Type
REMARK                         _______ _______ _______ _____ _____    ______ ____
ROOT
ATOM      1  C   UNL     1       0.608   1.484  -0.002  0.00  0.00    +0.000 A 
ATOM      2  C   UNL     1       1.931   1.036  -0.004  0.00  0.00    +0.000 A 
ATOM      3  C   UNL     1       2.234  -0.345  -0.004  0.00  0.00    +0.000 A 
ATOM      4  C   UNL     1       1.212  -1.309  -0.001  0.00  0.00    +0.000 A 
ATOM      5  C   UNL     1      -0.089  -0.840   0.001  0.00  0.00    +0.000 A 
ATOM      6  C   UNL     1      -0.383   0.527   0.000  0.00  0.00    +0.000 A 
ATOM      7  N   UNL     1      -1.753   0.763   0.001  0.00  0.00    +0.000 N 
ATOM      8  C   UNL     1      -2.459  -0.421   0.002  0.00  0.00    +0.000 C 
ATOM      9  O   UNL     1      -3.659  -0.572   0.002  0.00  0.00    +0.000 OA
ATOM     10  C   UNL     1      -1.383  -1.539   0.002  0.00  0.00    +0.000 C 
ATOM     11  O   UNL     1      -1.596  -2.728   0.003  0.00  0.00    +0.000 OA
ATOM     12 CL   UNL     1       1.542  -2.999  -0.001  0.00  0.00    +0.000 Cl
ATOM     13 BR   UNL     1       4.078  -0.813  -0.007  0.00  0.00    +0.000 Br
ATOM     14  H   UNL     1      -2.164   1.657   0.002  0.00  0.00    +0.000 HD
ENDROOT
TORSDOF 0
