REMARK  Name = *****
REMARK  0 active torsions:
REMARK  status: ('A' for Active; 'I' for Inactive)
REMARK                            x       y       z     vdW  Elec       q    Type
REMARK                         _______ _______ _______ _____ _____    ______ ____
ROOT
ATOM      1  C   UNL     1      -1.275   1.483   0.236  0.00  0.00    +0.000 C 
ATOM      2  C   UNL     1      -2.385   0.661  -0.386  0.00  0.00    +0.000 C 
ATOM      3  C   UNL     1      -2.432  -0.718   0.213  0.00  0.00    +0.000 C 
ATOM      4  O   UNL     1      -3.484  -1.291   0.477  0.00  0.00    +0.000 OA
ATOM      5  O   UNL     1      -1.201  -1.346   0.356  0.00  0.00    +0.000 OA
ATOM      6  C   UNL     1       0.014  -0.652   0.166  0.00  0.00    +0.000 A 
ATOM      7  C   UNL     1       0.019   0.743   0.107  0.00  0.00    +0.000 A 
ATOM      8  C   UNL     1       1.241   1.412  -0.022  0.00  0.00    +0.000 A 
ATOM      9  C   UNL     1       2.429   0.681  -0.112  0.00  0.00    +0.000 A 
ATOM     10  C   UNL     1       2.417  -0.712  -0.063  0.00  0.00    +0.000 A 
ATOM     11  C   UNL     1       1.203  -1.383   0.082  0.00  0.00    +0.000 A 
ATOM     12 CL   UNL     1       1.208  -3.105   0.154  0.00  0.00    +0.000 Cl
ATOM     13 CL   UNL     1       3.925   1.514  -0.280  0.00  0.00    +0.000 Cl
ENDROOT
TORSDOF 0
