REMARK  Name = *****
REMARK  3 active torsions:
REMARK  status: ('A' for Active; 'I' for Inactive)
REMARK    1  A    between atoms: C_1  and  C_2
REMARK    2  A    between atoms: C_3  and  C_12
REMARK    3  A    between atoms: C_8  and  C_11
REMARK                            x       y       z     vdW  Elec       q    Type
REMARK                         _______ _______ _______ _____ _____    ______ ____
ROOT
ATOM      1  C   UNL     1       1.052  -0.115   0.056  0.00  0.00    +0.000 C 
ATOM      2  C   UNL     1       2.539  -0.035   0.049  0.00  0.00    +0.000 C 
ATOM      3  C   UNL     1       3.326   1.061   0.046  0.00  0.00    +0.000 C 
ATOM      4  C   UNL     1       4.717   0.603   0.037  0.00  0.00    +0.000 A 
ATOM      5  C   UNL     1       4.740  -0.796   0.036  0.00  0.00    +0.000 A 
ATOM      6  C   UNL     1       3.340  -1.323   0.044  0.00  0.00    +0.000 C 
ATOM      7  C   UNL     1       5.931  -1.506   0.027  0.00  0.00    +0.000 A 
ATOM      8  C   UNL     1       7.136  -0.790   0.019  0.00  0.00    +0.000 A 
ATOM      9  C   UNL     1       7.111   0.620   0.020  0.00  0.00    +0.000 A 
ATOM     10  C   UNL     1       5.900   1.323   0.029  0.00  0.00    +0.000 A 
ATOM     11  C   UNL     1       8.454  -1.507   0.009  0.00  0.00    +0.000 C 
ATOM     12  C   UNL     1       2.970   2.503   0.049  0.00  0.00    +0.000 C 
ENDROOT
TORSDOF 0
