REMARK  Name = *****
REMARK  3 active torsions:
REMARK  status: ('A' for Active; 'I' for Inactive)
REMARK    1  A    between atoms: C_1  and  C_2
REMARK    2  A    between atoms: C_8  and  C_13
REMARK    3  A    between atoms: C_9  and  N_11
REMARK                            x       y       z     vdW  Elec       q    Type
REMARK                         _______ _______ _______ _____ _____    ______ ____
ROOT
ATOM      1  C   UNL     1       1.127  -0.027  -0.123  0.00  0.00    +0.000 C 
ATOM      2  C   UNL     1       2.625   0.067  -0.100  0.00  0.00    +0.000 A 
ATOM      3  C   UNL     1       3.251   1.294   0.157  0.00  0.00    +0.000 A 
ATOM      4  C   UNL     1       4.636   1.338   0.199  0.00  0.00    +0.000 A 
ATOM      5  C   UNL     1       5.411   0.181   0.018  0.00  0.00    +0.000 A 
ATOM      6  C   UNL     1       4.801  -1.043  -0.213  0.00  0.00    +0.000 A 
ATOM      7  C   UNL     1       3.405  -1.094  -0.272  0.00  0.00    +0.000 A 
ATOM      8  C   UNL     1       6.885   0.501   0.159  0.00  0.00    +0.000 C 
ATOM      9  C   UNL     1       6.843   2.034  -0.097  0.00  0.00    +0.000 C 
ATOM     10  C   UNL     1       5.505   2.529   0.475  0.00  0.00    +0.000 C 
ATOM     11  C   UNL     1       7.787  -0.229  -0.832  0.00  0.00    +0.000 C 
ATOM     12 CL   UNL     1       7.372   0.065   1.839  0.00  0.00    +0.000 Cl
ENDROOT
BRANCH   9  13
ATOM     13  N   UNL     1       7.995   2.783   0.495  0.00  0.00    +0.000 NA
ATOM     14  O   UNL     1       8.667   3.361  -0.367  0.00  0.00    +0.000 OA
ENDBRANCH   9  13
TORSDOF 1
