REMARK  Name = *****
REMARK  5 active torsions:
REMARK  status: ('A' for Active; 'I' for Inactive)
REMARK    1  A    between atoms: C_1  and  C_2
REMARK    2  A    between atoms: C_3  and  C_14
REMARK    3  A    between atoms: C_6  and  C_7
REMARK    4  A    between atoms: C_9  and  O_12
REMARK    5  A    between atoms: O_12  and  C_13
REMARK                            x       y       z     vdW  Elec       q    Type
REMARK                         _______ _______ _______ _____ _____    ______ ____
ROOT
ATOM      1  C   UNL     1       0.966  -0.097   0.070  0.00  0.00    +0.000 C 
ATOM      2  C   UNL     1       2.454  -0.023   0.064  0.00  0.00    +0.000 C 
ATOM      3  C   UNL     1       3.241   1.078   0.062  0.00  0.00    +0.000 C 
ATOM      4  C   UNL     1       4.645   0.630   0.053  0.00  0.00    +0.000 C 
ATOM      5  C   UNL     1       4.697  -0.771   0.050  0.00  0.00    +0.000 C 
ATOM      6  C   UNL     1       3.303  -1.217   0.058  0.00  0.00    +0.000 C 
ATOM      7  C   UNL     1       2.901  -2.494   0.060  0.00  0.00    +0.000 C 
ATOM      8  C   UNL     1       5.905  -1.450   0.041  0.00  0.00    +0.000 C 
ATOM      9  C   UNL     1       7.092  -0.709   0.035  0.00  0.00    +0.000 C 
ATOM     10  C   UNL     1       7.043   0.696   0.037  0.00  0.00    +0.000 C 
ATOM     11  C   UNL     1       5.816   1.373   0.046  0.00  0.00    +0.000 C 
ATOM     12  C   UNL     1       2.877   2.519   0.067  0.00  0.00    +0.000 C 
ENDROOT
BRANCH   9  13
ATOM     13  O   UNL     1       8.231  -1.469   0.026  0.00  0.00    +0.000 OA
ATOM     14  C   UNL     1       9.471  -0.772   0.018  0.00  0.00    +0.000 C 
ENDBRANCH   9  13
TORSDOF 1
