REMARK  Name = *****
REMARK  2 active torsions:
REMARK  status: ('A' for Active; 'I' for Inactive)
REMARK    1  A    between atoms: C_1  and  C_2
REMARK    2  A    between atoms: C_5  and  C_7
REMARK                            x       y       z     vdW  Elec       q    Type
REMARK                         _______ _______ _______ _____ _____    ______ ____
ROOT
ATOM      1  C   UNL     1       0.702  -0.760   1.057  0.00  0.00    +0.000 A 
ATOM      2  C   UNL     1       0.086  -0.468   2.250  0.00  0.00    +0.000 A 
ATOM      3  C   UNL     1      -0.105  -1.595   3.072  0.00  0.00    +0.000 A 
ATOM      4  C   UNL     1       0.349  -2.764   2.513  0.00  0.00    +0.000 A 
ATOM      5  S   UNL     1       1.029  -2.450   0.961  0.00  0.00    +0.000 S 
ATOM      6  S   UNL     1      -0.875  -1.318   4.620  0.00  0.00    +0.000 S 
ATOM      7  C   UNL     1      -1.080   0.431   4.414  0.00  0.00    +0.000 A 
ATOM      8  O   UNL     1      -1.600   1.139   5.263  0.00  0.00    +0.000 OA
ATOM      9  S   UNL     1      -0.472   1.068   2.876  0.00  0.00    +0.000 S 
ENDROOT
BRANCH   1  10
ATOM     10  C   UNL     1       1.085   0.141  -0.068  0.00  0.00    +0.000 C 
ATOM     11 CL   UNL     1       2.681   0.859   0.245  0.00  0.00    +0.000 Cl
ENDBRANCH   1  10
BRANCH   4  12
ATOM     12  C   UNL     1       0.325  -4.155   3.051  0.00  0.00    +0.000 C 
ATOM     13 CL   UNL     1      -1.238  -4.922   2.685  0.00  0.00    +0.000 Cl
ENDBRANCH   4  12
TORSDOF 2
