REMARK  Name = *****
REMARK  4 active torsions:
REMARK  status: ('A' for Active; 'I' for Inactive)
REMARK    1  A    between atoms: C_1  and  O_2
REMARK    2  A    between atoms: O_2  and  C_3
REMARK    3  A    between atoms: SI_9  and  C_12
REMARK    4  A    between atoms: SI_9  and  C_13
REMARK                            x       y       z     vdW  Elec       q    Type
REMARK                         _______ _______ _______ _____ _____    ______ ____
ROOT
ATOM      1  C   UNL     1       2.966   0.894   0.916  0.00  0.00    +0.000 A 
ATOM      2  C   UNL     1       3.955   1.730   0.386  0.00  0.00    +0.000 A 
ATOM      3  C   UNL     1       4.657   2.595   1.222  0.00  0.00    +0.000 A 
ATOM      4  C   UNL     1       4.351   2.638   2.598  0.00  0.00    +0.000 A 
ATOM      5  C   UNL     1       3.376   1.807   3.136  0.00  0.00    +0.000 A 
ATOM      6  C   UNL     1       2.684   0.934   2.289  0.00  0.00    +0.000 A 
ATOM      7 SI   UNL     1       5.447   3.875   3.487  0.00  0.00    +0.000 Si
ATOM      8  C   UNL     1       6.553   4.063   1.905  0.00  0.00    +0.000 C 
ATOM      9  C   UNL     1       5.684   3.589   0.718  0.00  0.00    +0.000 C 
ATOM     10  C   UNL     1       6.381   3.149   4.903  0.00  0.00    +0.000 C 
ATOM     11  C   UNL     1       4.553   5.444   3.883  0.00  0.00    +0.000 C 
ENDROOT
BRANCH   1  13
ATOM     12  C   UNL     1       1.277  -0.717   0.464  0.00  0.00    +0.000 C 
ATOM     13  O   UNL     1       2.349   0.091  -0.005  0.00  0.00    +0.000 OA
ENDBRANCH   1  13
TORSDOF 1
