REMARK  Name = *****
REMARK  3 active torsions:
REMARK  status: ('A' for Active; 'I' for Inactive)
REMARK    1  A    between atoms: C_6  and  O_11
REMARK    2  A    between atoms: O_11  and  C_12
REMARK    3  A    between atoms: C_12  and  C_13
REMARK                            x       y       z     vdW  Elec       q    Type
REMARK                         _______ _______ _______ _____ _____    ______ ____
ROOT
ATOM      1  C   UNL     1       2.426  -0.655  -0.002  0.00  0.00    +0.000 A 
ATOM      2  C   UNL     1       2.394   0.737  -0.002  0.00  0.00    +0.000 A 
ATOM      3  C   UNL     1       1.169   1.407  -0.002  0.00  0.00    +0.000 A 
ATOM      4  C   UNL     1      -0.040   0.692  -0.002  0.00  0.00    +0.000 A 
ATOM      5  C   UNL     1      -1.282   1.348  -0.003  0.00  0.00    +0.000 A 
ATOM      6  C   UNL     1      -2.482   0.632  -0.004  0.00  0.00    +0.000 A 
ATOM      7  C   UNL     1      -2.445  -0.761  -0.003  0.00  0.00    +0.000 A 
ATOM      8  C   UNL     1      -1.217  -1.431  -0.003  0.00  0.00    +0.000 A 
ATOM      9  C   UNL     1      -0.007  -0.720  -0.002  0.00  0.00    +0.000 A 
ATOM     10  C   UNL     1       1.233  -1.379  -0.002  0.00  0.00    +0.000 A 
ENDROOT
BRANCH   6  11
ATOM     11  O   UNL     1      -3.610   1.407  -0.005  0.00  0.00    +0.000 OA
BRANCH  11  12
ATOM     12  C   UNL     1      -4.864   0.728  -0.015  0.00  0.00    +0.000 C 
BRANCH  12  13
ATOM     13  C   UNL     1      -5.976   1.761  -0.024  0.00  0.00    +0.000 C 
ATOM     14  F   UNL     1      -7.178   1.126  -0.032  0.00  0.00    +0.000 F 
ENDBRANCH  12  13
ENDBRANCH  11  12
ENDBRANCH   6  11
TORSDOF 3
