REMARK  Name = *****
REMARK  2 active torsions:
REMARK  status: ('A' for Active; 'I' for Inactive)
REMARK    1  A    between atoms: C_1  and  O_2
REMARK    2  A    between atoms: O_2  and  C_3
REMARK                            x       y       z     vdW  Elec       q    Type
REMARK                         _______ _______ _______ _____ _____    ______ ____
ROOT
ATOM      1  C   UNL     1       2.967   0.856   0.773  0.00  0.00    +0.000 A 
ATOM      2  C   UNL     1       4.058   1.551   0.243  0.00  0.00    +0.000 A 
ATOM      3  C   UNL     1       4.866   2.391   1.047  0.00  0.00    +0.000 A 
ATOM      4  C   UNL     1       5.981   3.128   0.600  0.00  0.00    +0.000 A 
ATOM      5  N   UNL     1       6.750   3.928   1.369  0.00  0.00    +0.000 NA
ATOM      6  C   UNL     1       6.399   4.008   2.661  0.00  0.00    +0.000 A 
ATOM      7  C   UNL     1       5.330   3.340   3.231  0.00  0.00    +0.000 A 
ATOM      8  C   UNL     1       4.547   2.517   2.415  0.00  0.00    +0.000 A 
ATOM      9  C   UNL     1       3.449   1.815   2.938  0.00  0.00    +0.000 A 
ATOM     10  C   UNL     1       2.666   0.991   2.124  0.00  0.00    +0.000 A 
ATOM     11 CL   UNL     1       7.396   5.032   3.609  0.00  0.00    +0.000 Cl
ATOM     12 CL   UNL     1       6.517   3.096  -1.040  0.00  0.00    +0.000 Cl
ENDROOT
BRANCH   1  14
ATOM     13  C   UNL     1       1.164  -0.638   0.353  0.00  0.00    +0.000 C 
ATOM     14  O   UNL     1       2.287   0.087  -0.131  0.00  0.00    +0.000 OA
ENDBRANCH   1  14
TORSDOF 1
