REMARK  Name = *****
REMARK  3 active torsions:
REMARK  status: ('A' for Active; 'I' for Inactive)
REMARK    1  A    between atoms: C_1  and  C_2
REMARK    2  A    between atoms: C_8  and  O_11
REMARK    3  A    between atoms: O_11  and  C_12
REMARK                            x       y       z     vdW  Elec       q    Type
REMARK                         _______ _______ _______ _____ _____    ______ ____
ROOT
ATOM      1  C   UNL     1       1.129  -0.032  -0.064  0.00  0.00    +0.000 C 
ATOM      2  C   UNL     1       2.616   0.059  -0.071  0.00  0.00    +0.000 C 
ATOM      3  C   UNL     1       3.396   1.156  -0.076  0.00  0.00    +0.000 C 
ATOM      4  C   UNL     1       4.792   0.719  -0.083  0.00  0.00    +0.000 A 
ATOM      5  C   UNL     1       4.824  -0.680  -0.082  0.00  0.00    +0.000 A 
ATOM      6  C   UNL     1       3.428  -1.220  -0.073  0.00  0.00    +0.000 C 
ATOM      7  C   UNL     1       6.020  -1.380  -0.089  0.00  0.00    +0.000 A 
ATOM      8  C   UNL     1       7.220  -0.661  -0.098  0.00  0.00    +0.000 A 
ATOM      9  C   UNL     1       7.193   0.743  -0.099  0.00  0.00    +0.000 A 
ATOM     10  C   UNL     1       5.976   1.440  -0.092  0.00  0.00    +0.000 A 
ATOM     11 BR   UNL     1       2.890   2.925  -0.076  0.00  0.00    +0.000 Br
ENDROOT
BRANCH   8  12
ATOM     12  O   UNL     1       8.346  -1.440  -0.105  0.00  0.00    +0.000 OA
ATOM     13  C   UNL     1       9.596  -0.763  -0.116  0.00  0.00    +0.000 C 
ENDBRANCH   8  12
TORSDOF 1
