MODEL 1
REMARK VINA RESULT:      -5.3      0.000      0.000
REMARK  Name = *****
REMARK  4 active torsions:
REMARK  status: ('A' for Active; 'I' for Inactive)
REMARK    1  A    between atoms: C_1  and  C_2
REMARK    2  A    between atoms: C_3  and  O_12
REMARK    3  A    between atoms: O_12  and  C_13
REMARK    4  A    between atoms: C_13  and  C_14
REMARK                            x       y       z     vdW  Elec       q    Type
REMARK                         _______ _______ _______ _____ _____    ______ ____
ROOT
ATOM      1  C   UNL     1      87.987  70.588  89.446  0.00  0.00    +0.000 C 
ATOM      2  C   UNL     1      87.413  70.928  88.089  0.00  0.00    +0.000 A 
ATOM      3  C   UNL     1      88.139  70.619  86.918  0.00  0.00    +0.000 A 
ATOM      4  C   UNL     1      87.626  70.971  85.670  0.00  0.00    +0.000 A 
ATOM      5  C   UNL     1      86.375  71.579  85.567  0.00  0.00    +0.000 A 
ATOM      6  C   UNL     1      85.612  71.853  86.708  0.00  0.00    +0.000 A 
ATOM      7  C   UNL     1      84.343  72.442  86.578  0.00  0.00    +0.000 A 
ATOM      8  C   UNL     1      83.563  72.721  87.699  0.00  0.00    +0.000 A 
ATOM      9  C   UNL     1      84.046  72.415  88.964  0.00  0.00    +0.000 A 
ATOM     10  C   UNL     1      85.307  71.831  89.106  0.00  0.00    +0.000 A 
ATOM     11  C   UNL     1      86.124  71.533  87.989  0.00  0.00    +0.000 A 
ENDROOT
BRANCH   3  12
ATOM     12  O   UNL     1      89.347  69.991  87.091  0.00  0.00    +0.000 OA
BRANCH  12  13
ATOM     13  C   UNL     1      89.785  69.124  86.042  0.00  0.00    +0.000 C 
BRANCH  13  14
ATOM     14  C   UNL     1      89.472  67.673  86.348  0.00  0.00    +0.000 A 
ATOM     15  C   UNL     1      90.269  66.615  85.889  0.00  0.00    +0.000 A 
ATOM     16  C   UNL     1      89.942  65.293  86.196  0.00  0.00    +0.000 A 
ATOM     17  C   UNL     1      88.810  65.011  86.958  0.00  0.00    +0.000 A 
ATOM     18  C   UNL     1      88.002  66.050  87.411  0.00  0.00    +0.000 A 
ATOM     19  C   UNL     1      88.329  67.372  87.106  0.00  0.00    +0.000 A 
ENDBRANCH  13  14
ENDBRANCH  12  13
ENDBRANCH   3  12
TORSDOF 3
ENDMDL
