REMARK  Name = *****
REMARK  5 active torsions:
REMARK  status: ('A' for Active; 'I' for Inactive)
REMARK    1  A    between atoms: C_1  and  C_2
REMARK    2  A    between atoms: C_2  and  N_3
REMARK    3  A    between atoms: C_5  and  C_8
REMARK    4  A    between atoms: C_8  and  O_9
REMARK    5  A    between atoms: O_9  and  C_10
REMARK                            x       y       z     vdW  Elec       q    Type
REMARK                         _______ _______ _______ _____ _____    ______ ____
ROOT
ATOM      1  C   UNL     1       5.170  -1.241   6.100  0.00  0.00    +0.000 A 
ATOM      2  C   UNL     1       4.986  -0.162   6.970  0.00  0.00    +0.000 A 
ATOM      3  C   UNL     1       5.501  -0.181   8.276  0.00  0.00    +0.000 A 
ATOM      4  C   UNL     1       6.223  -1.312   8.716  0.00  0.00    +0.000 A 
ATOM      5  C   UNL     1       6.405  -2.390   7.835  0.00  0.00    +0.000 A 
ATOM      6  C   UNL     1       5.882  -2.356   6.538  0.00  0.00    +0.000 A 
ATOM      7  C   UNL     1       6.742  -1.336  10.021  0.00  0.00    +0.000 A 
ATOM      8  C   UNL     1       6.544  -0.252  10.875  0.00  0.00    +0.000 A 
ATOM      9  C   UNL     1       5.832   0.865  10.450  0.00  0.00    +0.000 A 
ATOM     10  C   UNL     1       5.312   0.900   9.154  0.00  0.00    +0.000 A 
ATOM     11 BR   UNL     1       7.249  -0.300  12.629  0.00  0.00    +0.000 Br
ENDROOT
BRANCH   1  12
ATOM     12  O   UNL     1       4.613  -1.075   4.862  0.00  0.00    +0.000 OA
BRANCH  12  13
ATOM     13  C   UNL     1       4.681  -2.185   3.960  0.00  0.00    +0.000 C 
BRANCH  13  16
ATOM     14  N   UNL     1       3.212  -1.002   0.863  0.00  0.00    +0.000 N 
ATOM     15  C   UNL     1       3.936  -0.685   1.970  0.00  0.00    +0.000 A 
ATOM     16  C   UNL     1       4.014  -1.872   2.668  0.00  0.00    +0.000 A 
ATOM     17  N   UNL     1       3.362  -2.849   1.957  0.00  0.00    +0.000 NA
ATOM     18  N   UNL     1       2.874  -2.302   0.851  0.00  0.00    +0.000 NA
BRANCH  14  20
ATOM     19  C   UNL     1       1.449   0.478  -0.005  0.00  0.00    +0.000 C 
ATOM     20  C   UNL     1       2.822  -0.133  -0.224  0.00  0.00    +0.000 C 
ENDBRANCH  14  20
ENDBRANCH  13  16
ENDBRANCH  12  13
ENDBRANCH   1  12
TORSDOF 4
