MODEL 1
REMARK VINA RESULT:      -4.4      0.000      0.000
REMARK  Name = *****
REMARK  4 active torsions:
REMARK  status: ('A' for Active; 'I' for Inactive)
REMARK    1  A    between atoms: C_1  and  C_2
REMARK    2  A    between atoms: C_2  and  C_7
REMARK    3  A    between atoms: C_7  and  C_8
REMARK    4  A    between atoms: C_7  and  O_17
REMARK                            x       y       z     vdW  Elec       q    Type
REMARK                         _______ _______ _______ _____ _____    ______ ____
ROOT
ATOM      1  C   UNL     1      89.775  66.488  86.652  0.00  0.00    +0.000 C 
ENDROOT
BRANCH   1   2
ATOM      2  C   UNL     1      89.029  65.185  86.468  0.00  0.00    +0.000 A 
ATOM      3  C   UNL     1      88.941  64.490  85.276  0.00  0.00    +0.000 A 
ATOM      4  S   UNL     1      88.018  63.067  85.390  0.00  0.00    +0.000 S 
ATOM      5  C   UNL     1      87.715  63.311  87.063  0.00  0.00    +0.000 A 
ATOM      6  C   UNL     1      86.966  62.471  87.912  0.00  0.00    +0.000 A 
ATOM      7  C   UNL     1      86.820  62.817  89.256  0.00  0.00    +0.000 A 
ATOM      8  C   UNL     1      87.403  63.974  89.748  0.00  0.00    +0.000 A 
ATOM      9  C   UNL     1      88.143  64.805  88.901  0.00  0.00    +0.000 A 
ATOM     10  C   UNL     1      88.316  64.486  87.528  0.00  0.00    +0.000 A 
ENDBRANCH   1   2
BRANCH   1  12
ATOM     11  C   UNL     1      89.593  68.154  84.700  0.00  0.00    +0.000 C 
ATOM     12  C   UNL     1      89.046  67.730  86.069  0.00  0.00    +0.000 C 
ATOM     13  C   UNL     1      87.489  67.576  86.029  0.00  0.00    +0.000 C 
ATOM     14  C   UNL     1      87.307  68.455  87.281  0.00  0.00    +0.000 C 
ATOM     15  C   UNL     1      88.732  68.896  87.022  0.00  0.00    +0.000 C 
ATOM     16  C   UNL     1      89.437  69.946  87.455  0.00  0.00    +0.000 C 
ENDBRANCH   1  12
BRANCH   1  17
ATOM     17  O   UNL     1      91.107  66.386  86.127  0.00  0.00    +0.000 OA
ATOM     18  H   UNL     1      91.078  66.442  85.159  0.00  0.00    +0.000 HD
ENDBRANCH   1  17
TORSDOF 3
ENDMDL
