MODEL 1
REMARK VINA RESULT:      -4.7      0.000      0.000
REMARK  Name = *****
REMARK  7 active torsions:
REMARK  status: ('A' for Active; 'I' for Inactive)
REMARK    1  A    between atoms: C_1  and  C_2
REMARK    2  A    between atoms: C_2  and  C_4
REMARK    3  A    between atoms: C_4  and  C_5
REMARK    4  A    between atoms: C_5  and  C_6
REMARK    5  A    between atoms: C_5  and  C_8
REMARK    6  A    between atoms: C_5  and  C_14
REMARK    7  A    between atoms: C_6  and  O_7
REMARK                            x       y       z     vdW  Elec       q    Type
REMARK                         _______ _______ _______ _____ _____    ______ ____
ROOT
ATOM      1  C   UNL     1      88.349  70.097  86.284  0.00  0.00    +0.000 C 
ENDROOT
BRANCH   1   2
ATOM      2  C   UNL     1      88.666  68.574  86.484  0.00  0.00    +0.000 A 
ATOM      3  C   UNL     1      87.727  67.730  87.117  0.00  0.00    +0.000 A 
ATOM      4  C   UNL     1      87.990  66.375  87.329  0.00  0.00    +0.000 A 
ATOM      5  C   UNL     1      89.205  65.830  86.926  0.00  0.00    +0.000 A 
ATOM      6  C   UNL     1      90.156  66.642  86.319  0.00  0.00    +0.000 A 
ATOM      7  C   UNL     1      89.892  68.000  86.106  0.00  0.00    +0.000 A 
ENDBRANCH   1   2
BRANCH   1   8
ATOM      8  C   UNL     1      87.790  70.674  87.619  0.00  0.00    +0.000 A 
ATOM      9  C   UNL     1      88.626  70.741  88.755  0.00  0.00    +0.000 A 
ATOM     10  C   UNL     1      88.169  71.265  89.966  0.00  0.00    +0.000 A 
ATOM     11  C   UNL     1      86.870  71.748  90.071  0.00  0.00    +0.000 A 
ATOM     12  C   UNL     1      86.033  71.716  88.961  0.00  0.00    +0.000 A 
ATOM     13  C   UNL     1      86.490  71.192  87.747  0.00  0.00    +0.000 A 
ENDBRANCH   1   8
BRANCH   1  14
ATOM     14  C   UNL     1      89.721  70.722  85.806  0.00  0.00    +0.000 C 
BRANCH  14  16
ATOM     15  C   UNL     1      90.587  70.449  83.431  0.00  0.00    +0.000 C 
ATOM     16  C   UNL     1      89.922  71.362  84.433  0.00  0.00    +0.000 C 
ATOM     17  C   UNL     1      89.587  72.612  84.070  0.00  0.00    +0.000 C 
ENDBRANCH  14  16
ENDBRANCH   1  14
BRANCH   1  18
ATOM     18  C   UNL     1      87.244  70.323  85.183  0.00  0.00    +0.000 C 
BRANCH  18  19
ATOM     19  O   UNL     1      87.190  69.311  84.174  0.00  0.00    +0.000 OA
ATOM     20  H   UNL     1      87.276  69.722  83.299  0.00  0.00    +0.000 HD
ENDBRANCH  18  19
ENDBRANCH   1  18
TORSDOF 6
ENDMDL
