MODEL 1
REMARK VINA RESULT:      -5.0      0.000      0.000
REMARK  Name = *****
REMARK  1 active torsions:
REMARK  status: ('A' for Active; 'I' for Inactive)
REMARK    1  A    between atoms: C_2  and  C_12
REMARK                            x       y       z     vdW  Elec       q    Type
REMARK                         _______ _______ _______ _____ _____    ______ ____
ROOT
ATOM      1  C   UNL     1     101.061 126.456  83.446  0.00  0.00    +0.000 C 
ATOM      2  C   UNL     1     102.406 127.135  83.682  0.00  0.00    +0.000 C 
ATOM      3  O   UNL     1     102.280 128.181  84.668  0.00  0.00    +0.000 OA
ATOM      4  C   UNL     1     101.298 129.095  84.394  0.00  0.00    +0.000 A 
ATOM      5  C   UNL     1     101.425 130.346  84.995  0.00  0.00    +0.000 A 
ATOM      6  C   UNL     1     100.470 131.337  84.753  0.00  0.00    +0.000 A 
ATOM      7  C   UNL     1      99.383 131.075  83.917  0.00  0.00    +0.000 A 
ATOM      8  C   UNL     1      99.242 129.817  83.329  0.00  0.00    +0.000 A 
ATOM      9  C   UNL     1     100.199 128.829  83.577  0.00  0.00    +0.000 A 
ATOM     10  C   UNL     1     100.045 127.476  83.015  0.00  0.00    +0.000 C 
ATOM     11  O   UNL     1      99.099 127.192  82.287  0.00  0.00    +0.000 OA
ENDROOT
BRANCH   2  12
ATOM     12  C   UNL     1     103.197 127.630  82.475  0.00  0.00    +0.000 A 
ATOM     13  C   UNL     1     104.105 128.697  82.530  0.00  0.00    +0.000 A 
ATOM     14  C   UNL     1     104.781 129.104  81.380  0.00  0.00    +0.000 A 
ATOM     15  C   UNL     1     104.573 128.476  80.160  0.00  0.00    +0.000 A 
ATOM     16  C   UNL     1     103.670 127.421  80.081  0.00  0.00    +0.000 A 
ATOM     17  C   UNL     1     102.986 127.006  81.228  0.00  0.00    +0.000 A 
ATOM     18  F   UNL     1     105.647 130.123  81.455  0.00  0.00    +0.000 F 
ENDBRANCH   2  12
TORSDOF 1
ENDMDL
