MODEL 1
REMARK VINA RESULT:      -4.8      0.000      0.000
REMARK  Name = *****
REMARK  5 active torsions:
REMARK  status: ('A' for Active; 'I' for Inactive)
REMARK    1  A    between atoms: C_1  and  C_2
REMARK    2  A    between atoms: C_10  and  C_12
REMARK    3  A    between atoms: C_12  and  O_13
REMARK    4  A    between atoms: O_13  and  C_14
REMARK    5  A    between atoms: C_16  and  C_21
REMARK                            x       y       z     vdW  Elec       q    Type
REMARK                         _______ _______ _______ _____ _____    ______ ____
ROOT
ATOM      1  C   UNL     1      88.475  62.567  84.312  0.00  0.00    +0.000 C 
ATOM      2  C   UNL     1      89.091  63.833  84.837  0.00  0.00    +0.000 A 
ATOM      3  C   UNL     1      90.424  64.002  84.850  0.00  0.00    +0.000 A 
ATOM      4  C   UNL     1      90.998  65.263  85.374  0.00  0.00    +0.000 A 
ATOM      5  O   UNL     1      92.215  65.410  85.397  0.00  0.00    +0.000 OA
ATOM      6  N   UNL     1      90.046  66.163  85.800  0.00  0.00    +0.000 N 
ATOM      7  C   UNL     1      88.710  65.871  85.735  0.00  0.00    +0.000 A 
ATOM      8  N   UNL     1      88.193  64.777  85.288  0.00  0.00    +0.000 NA
ATOM      9  S   UNL     1      87.783  67.197  86.356  0.00  0.00    +0.000 S 
ATOM     10  C   UNL     1      89.300  68.026  86.634  0.00  0.00    +0.000 A 
ATOM     11  N   UNL     1      90.387  67.394  86.317  0.00  0.00    +0.000 NA
ENDROOT
BRANCH  10  12
ATOM     12  C   UNL     1      89.278  69.412  87.220  0.00  0.00    +0.000 C 
BRANCH  12  13
ATOM     13  O   UNL     1      88.792  70.294  86.214  0.00  0.00    +0.000 OA
BRANCH  13  14
ATOM     14  C   UNL     1      87.577  70.881  86.433  0.00  0.00    +0.000 A 
ATOM     15  C   UNL     1      86.713  71.379  85.454  0.00  0.00    +0.000 A 
ATOM     16  C   UNL     1      85.482  71.964  85.808  0.00  0.00    +0.000 A 
ATOM     17  C   UNL     1      85.134  72.041  87.164  0.00  0.00    +0.000 A 
ATOM     18  C   UNL     1      85.995  71.544  88.144  0.00  0.00    +0.000 A 
ATOM     19  C   UNL     1      87.210  70.967  87.776  0.00  0.00    +0.000 A 
ATOM     20 CL   UNL     1      83.642  72.744  87.679  0.00  0.00    +0.000 Cl
ATOM     21  C   UNL     1      84.576  72.489  84.728  0.00  0.00    +0.000 C 
ENDBRANCH  13  14
ENDBRANCH  12  13
ENDBRANCH  10  12
TORSDOF 3
ENDMDL
