REMARK  Name = *****
REMARK  5 active torsions:
REMARK  status: ('A' for Active; 'I' for Inactive)
REMARK    1  A    between atoms: C_1  and  O_2
REMARK    2  A    between atoms: O_2  and  C_3
REMARK    3  A    between atoms: C_12  and  C_13
REMARK    4  A    between atoms: C_12  and  O_19
REMARK    5  A    between atoms: O_19  and  C_20
REMARK                            x       y       z     vdW  Elec       q    Type
REMARK                         _______ _______ _______ _____ _____    ______ ____
ROOT
ATOM      1  C   UNL     1       3.050   1.340   0.221  0.00  0.00    +0.000 C 
ATOM      2  C   UNL     1       2.450   2.751   0.244  0.00  0.00    +0.000 C 
ATOM      3  C   UNL     1       1.713   3.042   1.521  0.00  0.00    +0.000 A 
ATOM      4  C   UNL     1       0.896   4.179   1.608  0.00  0.00    +0.000 A 
ATOM      5  C   UNL     1       0.192   4.457   2.781  0.00  0.00    +0.000 A 
ATOM      6  C   UNL     1       0.299   3.602   3.875  0.00  0.00    +0.000 A 
ATOM      7  C   UNL     1       1.117   2.476   3.799  0.00  0.00    +0.000 A 
ATOM      8  C   UNL     1       1.835   2.207   2.632  0.00  0.00    +0.000 A 
ATOM      9  O   UNL     1       2.599   1.074   2.651  0.00  0.00    +0.000 OA
ATOM     10  C   UNL     1       3.619   0.975   1.636  0.00  0.00    +0.000 C 
ENDROOT
BRANCH  10  11
ATOM     11  C   UNL     1       4.200  -0.453   1.611  0.00  0.00    +0.000 A 
ATOM     12  C   UNL     1       3.652  -1.491   2.384  0.00  0.00    +0.000 A 
ATOM     13  C   UNL     1       4.196  -2.778   2.350  0.00  0.00    +0.000 A 
ATOM     14  C   UNL     1       5.300  -3.049   1.545  0.00  0.00    +0.000 A 
ATOM     15  C   UNL     1       5.862  -2.036   0.775  0.00  0.00    +0.000 A 
ATOM     16  C   UNL     1       5.319  -0.750   0.808  0.00  0.00    +0.000 A 
ENDBRANCH  10  11
BRANCH   1  18
ATOM     17  C   UNL     1       0.943   0.097   0.219  0.00  0.00    +0.000 C 
ATOM     18  O   UNL     1       2.177   0.384  -0.416  0.00  0.00    +0.000 OA
ENDBRANCH   1  18
BRANCH  10  19
ATOM     19  O   UNL     1       4.704   1.906   1.900  0.00  0.00    +0.000 OA
ATOM     20  C   UNL     1       5.238   1.829   3.216  0.00  0.00    +0.000 C 
ENDBRANCH  10  19
TORSDOF 3
