MODEL 1
REMARK VINA RESULT:      -4.7      0.000      0.000
REMARK  Name = *****
REMARK  1 active torsions:
REMARK  status: ('A' for Active; 'I' for Inactive)
REMARK    1  A    between atoms: C_4  and  C_7
REMARK                            x       y       z     vdW  Elec       q    Type
REMARK                         _______ _______ _______ _____ _____    ______ ____
ROOT
ATOM      1  C   UNL     1      87.454  65.795  86.939  0.00  0.00    +0.000 C 
ATOM      2  C   UNL     1      88.673  65.724  86.024  0.00  0.00    +0.000 C 
ATOM      3  C   UNL     1      89.615  66.848  86.349  0.00  0.00    +0.000 C 
ATOM      4  O   UNL     1      90.831  66.747  86.234  0.00  0.00    +0.000 OA
ATOM      5  C   UNL     1      88.983  68.122  86.735  0.00  0.00    +0.000 A 
ATOM      6  C   UNL     1      89.751  69.280  86.895  0.00  0.00    +0.000 A 
ATOM      7  C   UNL     1      89.123  70.483  87.213  0.00  0.00    +0.000 A 
ATOM      8  C   UNL     1      87.736  70.528  87.365  0.00  0.00    +0.000 A 
ATOM      9  C   UNL     1      86.975  69.367  87.209  0.00  0.00    +0.000 A 
ATOM     10  C   UNL     1      87.600  68.158  86.908  0.00  0.00    +0.000 A 
ATOM     11  O   UNL     1      86.786  67.063  86.790  0.00  0.00    +0.000 OA
ENDROOT
BRANCH   1  15
ATOM     12  C   UNL     1      87.332  63.750  90.843  0.00  0.00    +0.000 C 
ATOM     13  C   UNL     1      88.668  63.811  90.114  0.00  0.00    +0.000 C 
ATOM     14  C   UNL     1      88.496  64.170  88.639  0.00  0.00    +0.000 C 
ATOM     15  C   UNL     1      87.704  65.475  88.442  0.00  0.00    +0.000 C 
ATOM     16  C   UNL     1      86.364  65.408  89.207  0.00  0.00    +0.000 C 
ATOM     17  C   UNL     1      86.554  65.050  90.679  0.00  0.00    +0.000 C 
ENDBRANCH   1  15
TORSDOF 1
ENDMDL
