MODEL 1
REMARK VINA RESULT:      -5.0      0.000      0.000
REMARK  Name = *****
REMARK  1 active torsions:
REMARK  status: ('A' for Active; 'I' for Inactive)
REMARK    1  A    between atoms: C_11  and  C_12
REMARK                            x       y       z     vdW  Elec       q    Type
REMARK                         _______ _______ _______ _____ _____    ______ ____
ROOT
ATOM      1  C   UNL     1     103.448 125.329  80.527  0.00  0.00    +0.000 C 
ATOM      2  C   UNL     1     104.620 124.464  80.091  0.00  0.00    +0.000 C 
ATOM      3  C   UNL     1     104.884 123.382  81.093  0.00  0.00    +0.000 A 
ATOM      4  C   UNL     1     104.351 123.439  82.380  0.00  0.00    +0.000 A 
ATOM      5  N   UNL     1     104.556 122.485  83.311  0.00  0.00    +0.000 NA
ATOM      6  C   UNL     1     105.345 121.442  82.961  0.00  0.00    +0.000 A 
ATOM      7  C   UNL     1     105.937 121.307  81.717  0.00  0.00    +0.000 A 
ATOM      8  C   UNL     1     105.704 122.296  80.768  0.00  0.00    +0.000 A 
ATOM      9 CL   UNL     1     106.931 119.958  81.349  0.00  0.00    +0.000 Cl
ATOM     10  O   UNL     1     103.536 124.452  82.805  0.00  0.00    +0.000 OA
ATOM     11  C   UNL     1     103.599 125.646  82.016  0.00  0.00    +0.000 C 
ENDROOT
BRANCH  11  12
ATOM     12  C   UNL     1     102.506 126.604  82.463  0.00  0.00    +0.000 A 
ATOM     13  C   UNL     1     101.157 126.249  82.296  0.00  0.00    +0.000 A 
ATOM     14  C   UNL     1     100.138 127.103  82.725  0.00  0.00    +0.000 A 
ATOM     15  C   UNL     1     100.459 128.318  83.326  0.00  0.00    +0.000 A 
ATOM     16  C   UNL     1     101.791 128.685  83.505  0.00  0.00    +0.000 A 
ATOM     17  C   UNL     1     102.810 127.829  83.078  0.00  0.00    +0.000 A 
ATOM     18 CL   UNL     1      99.204 129.368  83.856  0.00  0.00    +0.000 Cl
ENDBRANCH  11  12
TORSDOF 1
ENDMDL
