MODEL 1
REMARK VINA RESULT:      -5.5      0.000      0.000
REMARK  Name = *****
REMARK  3 active torsions:
REMARK  status: ('A' for Active; 'I' for Inactive)
REMARK    1  A    between atoms: C_1  and  C_2
REMARK    2  A    between atoms: C_9  and  C_12
REMARK    3  A    between atoms: C_9  and  C_13
REMARK                            x       y       z     vdW  Elec       q    Type
REMARK                         _______ _______ _______ _____ _____    ______ ____
ROOT
ATOM      1  C   UNL     1      91.127  65.271  85.434  0.00  0.00    +0.000 C 
ATOM      2  C   UNL     1      90.170  66.297  85.967  0.00  0.00    +0.000 A 
ATOM      3  C   UNL     1      90.359  67.660  85.709  0.00  0.00    +0.000 A 
ATOM      4  C   UNL     1      89.453  68.616  86.192  0.00  0.00    +0.000 A 
ATOM      5  C   UNL     1      88.363  68.199  86.958  0.00  0.00    +0.000 A 
ATOM      6  C   UNL     1      88.160  66.841  87.204  0.00  0.00    +0.000 A 
ATOM      7  C   UNL     1      89.058  65.893  86.711  0.00  0.00    +0.000 A 
ATOM      8  O   UNL     1      87.433  69.044  87.493  0.00  0.00    +0.000 OA
ATOM      9  C   UNL     1      87.713  70.462  87.461  0.00  0.00    +0.000 C 
ATOM     10  C   UNL     1      88.400  70.859  86.138  0.00  0.00    +0.000 C 
ATOM     11  C   UNL     1      89.680  70.071  85.916  0.00  0.00    +0.000 C 
ATOM     12  C   UNL     1      88.573  70.780  88.702  0.00  0.00    +0.000 C 
ENDROOT
BRANCH   9  13
ATOM     13  C   UNL     1      86.377  71.226  87.559  0.00  0.00    +0.000 A 
ATOM     14  C   UNL     1      85.698  71.668  86.410  0.00  0.00    +0.000 A 
ATOM     15  C   UNL     1      84.492  72.370  86.508  0.00  0.00    +0.000 A 
ATOM     16  C   UNL     1      83.944  72.649  87.756  0.00  0.00    +0.000 A 
ATOM     17  C   UNL     1      84.601  72.228  88.908  0.00  0.00    +0.000 A 
ATOM     18  C   UNL     1      85.806  71.527  88.811  0.00  0.00    +0.000 A 
ENDBRANCH   9  13
TORSDOF 1
ENDMDL
