MODEL 1
REMARK VINA RESULT:      -4.5      0.000      0.000
REMARK  Name = *****
REMARK  2 active torsions:
REMARK  status: ('A' for Active; 'I' for Inactive)
REMARK    1  A    between atoms: C_4  and  C_7
REMARK    2  A    between atoms: N_8  and  N_9
REMARK                            x       y       z     vdW  Elec       q    Type
REMARK                         _______ _______ _______ _____ _____    ______ ____
ROOT
ATOM      1  N   UNL     1      88.313  66.041  86.671  0.00  0.00    +0.000 N 
ATOM      2  C   UNL     1      89.419  66.881  86.470  0.00  0.00    +0.000 A 
ATOM      3  O   UNL     1      90.603  66.578  86.405  0.00  0.00    +0.000 OA
ATOM      4  C   UNL     1      88.976  68.282  86.354  0.00  0.00    +0.000 A 
ATOM      5  C   UNL     1      89.808  69.389  86.244  0.00  0.00    +0.000 A 
ATOM      6  C   UNL     1      89.218  70.648  86.129  0.00  0.00    +0.000 A 
ATOM      7  C   UNL     1      87.821  70.779  86.122  0.00  0.00    +0.000 A 
ATOM      8  C   UNL     1      86.998  69.651  86.229  0.00  0.00    +0.000 A 
ATOM      9  C   UNL     1      87.591  68.404  86.343  0.00  0.00    +0.000 A 
ATOM     10  S   UNL     1      86.790  66.836  86.481  0.00  0.00    +0.000 S 
ENDROOT
BRANCH   1  12
ATOM     11  C   UNL     1      88.242  63.815  87.207  0.00  0.00    +0.000 C 
ATOM     12  N   UNL     1      88.416  64.732  86.301  0.00  0.00    +0.000 NA
BRANCH  11  16
ATOM     13  C   UNL     1      87.759  64.158  91.427  0.00  0.00    +0.000 A 
ATOM     14  C   UNL     1      86.660  64.291  90.575  0.00  0.00    +0.000 A 
ATOM     15  C   UNL     1      86.831  64.182  89.194  0.00  0.00    +0.000 A 
ATOM     16  C   UNL     1      88.107  63.958  88.670  0.00  0.00    +0.000 A 
ATOM     17  C   UNL     1      89.204  63.802  89.522  0.00  0.00    +0.000 A 
ATOM     18  C   UNL     1      89.028  63.909  90.902  0.00  0.00    +0.000 A 
ENDBRANCH  11  16
ENDBRANCH   1  12
TORSDOF 2
ENDMDL
