MODEL 1
REMARK VINA RESULT:      -5.0      0.000      0.000
REMARK  Name = *****
REMARK  4 active torsions:
REMARK  status: ('A' for Active; 'I' for Inactive)
REMARK    1  A    between atoms: C_1  and  C_2
REMARK    2  A    between atoms: C_2  and  C_13
REMARK    3  A    between atoms: C_9  and  O_11
REMARK    4  A    between atoms: O_11  and  C_12
REMARK                            x       y       z     vdW  Elec       q    Type
REMARK                         _______ _______ _______ _____ _____    ______ ____
ROOT
ATOM      1  C   UNL     1     103.475 128.044  83.047  0.00  0.00    +0.000 C 
ATOM      2  C   UNL     1     102.485 126.918  82.686  0.00  0.00    +0.000 C 
ATOM      3  C   UNL     1     102.730 125.648  83.548  0.00  0.00    +0.000 C 
ATOM      4  C   UNL     1     103.532 124.837  82.604  0.00  0.00    +0.000 A 
ATOM      5  C   UNL     1     103.476 125.404  81.347  0.00  0.00    +0.000 A 
ATOM      6  O   UNL     1     102.759 126.567  81.292  0.00  0.00    +0.000 OA
ATOM      7  C   UNL     1     104.091 124.819  80.259  0.00  0.00    +0.000 A 
ATOM      8  C   UNL     1     104.791 123.623  80.459  0.00  0.00    +0.000 A 
ATOM      9  C   UNL     1     104.853 123.036  81.734  0.00  0.00    +0.000 A 
ATOM     10  C   UNL     1     104.211 123.650  82.818  0.00  0.00    +0.000 A 
ENDROOT
BRANCH   2  11
ATOM     11  C   UNL     1     101.051 127.429  82.846  0.00  0.00    +0.000 A 
ATOM     12  C   UNL     1     100.774 128.659  83.464  0.00  0.00    +0.000 A 
ATOM     13  C   UNL     1      99.460 129.114  83.602  0.00  0.00    +0.000 A 
ATOM     14  C   UNL     1      98.400 128.346  83.128  0.00  0.00    +0.000 A 
ATOM     15  C   UNL     1      98.652 127.123  82.514  0.00  0.00    +0.000 A 
ATOM     16  C   UNL     1      99.966 126.667  82.375  0.00  0.00    +0.000 A 
ENDBRANCH   2  11
BRANCH   9  17
ATOM     17  O   UNL     1     105.500 121.870  82.047  0.00  0.00    +0.000 OA
ATOM     18  C   UNL     1     104.757 120.666  81.915  0.00  0.00    +0.000 C 
ENDBRANCH   9  17
TORSDOF 2
ENDMDL
