REMARK  Name = *****
REMARK  1 active torsions:
REMARK  status: ('A' for Active; 'I' for Inactive)
REMARK    1  A    between atoms: C_9  and  C_13
REMARK                            x       y       z     vdW  Elec       q    Type
REMARK                         _______ _______ _______ _____ _____    ______ ____
ROOT
ATOM      1  C   UNL     1       1.082   0.900   1.102  0.00  0.00    +0.000 C 
ATOM      2  C   UNL     1      -0.187   0.378   0.502  0.00  0.00    +0.000 A 
ATOM      3  C   UNL     1      -1.392   1.085   0.562  0.00  0.00    +0.000 A 
ATOM      4  C   UNL     1      -2.547   0.548  -0.011  0.00  0.00    +0.000 A 
ATOM      5  C   UNL     1      -2.507  -0.697  -0.642  0.00  0.00    +0.000 A 
ATOM      6  C   UNL     1      -1.308  -1.405  -0.712  0.00  0.00    +0.000 A 
ATOM      7  C   UNL     1      -0.156  -0.850  -0.165  0.00  0.00    +0.000 A 
ATOM      8  O   UNL     1       1.004  -1.569  -0.197  0.00  0.00    +0.000 OA
ATOM      9  C   UNL     1       1.976  -1.010  -1.083  0.00  0.00    +0.000 C 
ATOM     10  C   UNL     1       2.415   0.495  -0.976  0.00  0.00    +0.000 C 
ATOM     11  S   UNL     1       3.354   1.225  -2.169  0.00  0.00    +0.000 S 
ATOM     12  N   UNL     1       2.009   1.287   0.063  0.00  0.00    +0.000 N 
ATOM     13  H   UNL     1       2.379   2.198   0.107  0.00  0.00    +0.000 HD
ENDROOT
BRANCH   9  14
ATOM     14  C   UNL     1       3.194  -1.925  -0.945  0.00  0.00    +0.000 A 
ATOM     15  C   UNL     1       3.656  -2.668  -2.043  0.00  0.00    +0.000 A 
ATOM     16  C   UNL     1       4.770  -3.500  -1.918  0.00  0.00    +0.000 A 
ATOM     17  C   UNL     1       5.432  -3.602  -0.696  0.00  0.00    +0.000 A 
ATOM     18  C   UNL     1       4.983  -2.874   0.403  0.00  0.00    +0.000 A 
ATOM     19  C   UNL     1       3.870  -2.040   0.281  0.00  0.00    +0.000 A 
ENDBRANCH   9  14
TORSDOF 1
