REMARK  Name = *****
REMARK  3 active torsions:
REMARK  status: ('A' for Active; 'I' for Inactive)
REMARK    1  A    between atoms: C_3  and  N_4
REMARK    2  A    between atoms: C_15  and  C_16
REMARK    3  A    between atoms: C_15  and  O_23
REMARK                            x       y       z     vdW  Elec       q    Type
REMARK                         _______ _______ _______ _____ _____    ______ ____
ROOT
ATOM      1  N   UNL     1      -1.451  -1.302  -1.145  0.00  0.00    +0.000 N 
ATOM      2  C   UNL     1      -2.689  -1.841  -0.783  0.00  0.00    +0.000 C 
ATOM      3  O   UNL     1      -3.359  -1.454   0.170  0.00  0.00    +0.000 OA
ATOM      4  C   UNL     1      -3.176  -2.995  -1.581  0.00  0.00    +0.000 A 
ATOM      5  C   UNL     1      -4.414  -3.577  -1.283  0.00  0.00    +0.000 A 
ATOM      6  C   UNL     1      -4.839  -4.713  -1.977  0.00  0.00    +0.000 A 
ATOM      7  C   UNL     1      -4.027  -5.278  -2.962  0.00  0.00    +0.000 A 
ATOM      8  C   UNL     1      -2.791  -4.704  -3.262  0.00  0.00    +0.000 A 
ATOM      9  C   UNL     1      -2.377  -3.558  -2.574  0.00  0.00    +0.000 A 
ATOM     10  C   UNL     1      -1.101  -2.907  -2.915  0.00  0.00    +0.000 C 
ATOM     11  O   UNL     1      -0.235  -3.521  -3.535  0.00  0.00    +0.000 OA
ATOM     12  C   UNL     1      -1.006  -1.410  -2.538  0.00  0.00    +0.000 C 
ENDROOT
BRANCH  12  13
ATOM     13  C   UNL     1      -1.782  -0.550  -3.548  0.00  0.00    +0.000 A 
ATOM     14  C   UNL     1      -2.794   0.356  -3.181  0.00  0.00    +0.000 A 
ATOM     15  C   UNL     1      -3.477   1.106  -4.145  0.00  0.00    +0.000 A 
ATOM     16  C   UNL     1      -3.153   0.971  -5.491  0.00  0.00    +0.000 A 
ATOM     17  C   UNL     1      -2.146   0.096  -5.884  0.00  0.00    +0.000 A 
ATOM     18  C   UNL     1      -1.464  -0.652  -4.920  0.00  0.00    +0.000 A 
ATOM     19 CL   UNL     1      -3.997   1.892  -6.673  0.00  0.00    +0.000 Cl
ENDBRANCH  12  13
BRANCH   1  22
ATOM     20  C   UNL     1       0.491  -0.484   0.331  0.00  0.00    +0.000 C 
ATOM     21  C   UNL     1      -0.737  -0.405   1.180  0.00  0.00    +0.000 C 
ATOM     22  C   UNL     1      -0.856  -0.268  -0.318  0.00  0.00    +0.000 C 
ENDBRANCH   1  22
BRANCH  12  23
ATOM     23  O   UNL     1       0.353  -0.989  -2.628  0.00  0.00    +0.000 OA
ATOM     24  H   UNL     1       0.892  -1.503  -2.007  0.00  0.00    +0.000 HD
ENDBRANCH  12  23
TORSDOF 3
