MODEL 1
REMARK VINA RESULT:      -5.0      0.000      0.000
REMARK  Name = *****
REMARK  1 active torsions:
REMARK  status: ('A' for Active; 'I' for Inactive)
REMARK    1  A    between atoms: C_2  and  C_13
REMARK                            x       y       z     vdW  Elec       q    Type
REMARK                         _______ _______ _______ _____ _____    ______ ____
ROOT
ATOM      1  C   UNL     1     100.484 126.355  82.063  0.00  0.00    +0.000 C 
ATOM      2  C   UNL     1     101.695 126.375  82.982  0.00  0.00    +0.000 C 
ATOM      3  O   UNL     1     102.220 127.707  83.099  0.00  0.00    +0.000 OA
ATOM      4  C   UNL     1     101.300 128.618  83.556  0.00  0.00    +0.000 A 
ATOM      5  C   UNL     1      99.925 128.442  83.389  0.00  0.00    +0.000 A 
ATOM      6  C   UNL     1      99.438 127.254  82.657  0.00  0.00    +0.000 C 
ATOM      7  O   UNL     1      98.237 127.060  82.502  0.00  0.00    +0.000 OA
ATOM      8  C   UNL     1      99.017 129.392  83.869  0.00  0.00    +0.000 A 
ATOM      9  C   UNL     1      99.487 130.536  84.510  0.00  0.00    +0.000 A 
ATOM     10  C   UNL     1     100.860 130.733  84.661  0.00  0.00    +0.000 A 
ATOM     11  C   UNL     1     101.764 129.780  84.182  0.00  0.00    +0.000 A 
ATOM     12 CL   UNL     1     103.452 130.072  84.396  0.00  0.00    +0.000 Cl
ENDROOT
BRANCH   2  13
ATOM     13  C   UNL     1     102.778 125.453  82.450  0.00  0.00    +0.000 A 
ATOM     14  C   UNL     1     103.508 124.607  83.299  0.00  0.00    +0.000 A 
ATOM     15  C   UNL     1     104.518 123.788  82.792  0.00  0.00    +0.000 A 
ATOM     16  C   UNL     1     104.815 123.808  81.431  0.00  0.00    +0.000 A 
ATOM     17  C   UNL     1     104.104 124.645  80.575  0.00  0.00    +0.000 A 
ATOM     18  C   UNL     1     103.093 125.465  81.081  0.00  0.00    +0.000 A 
ENDBRANCH   2  13
TORSDOF 1
ENDMDL
