MODEL 1
REMARK VINA RESULT:      -4.7      0.000      0.000
REMARK  Name = *****
REMARK  2 active torsions:
REMARK  status: ('A' for Active; 'I' for Inactive)
REMARK    1  A    between atoms: C_9  and  C_17
REMARK    2  A    between atoms: C_10  and  C_11
REMARK                            x       y       z     vdW  Elec       q    Type
REMARK                         _______ _______ _______ _____ _____    ______ ____
ROOT
ATOM      1  C   UNL     1      85.529  71.639  90.293  0.00  0.00    +0.000 C 
ATOM      2  C   UNL     1      86.444  72.471  91.189  0.00  0.00    +0.000 C 
ATOM      3  S   UNL     1      88.080  71.700  91.389  0.00  0.00    +0.000 S 
ATOM      4  C   UNL     1      88.507  71.533  89.623  0.00  0.00    +0.000 C 
ATOM      5  C   UNL     1      87.442  70.774  88.803  0.00  0.00    +0.000 C 
ATOM      6  C   UNL     1      86.082  71.459  88.896  0.00  0.00    +0.000 C 
ATOM      7  C   UNL     1      85.396  71.854  87.813  0.00  0.00    +0.000 C 
ATOM      8  C   UNL     1      85.894  71.666  86.478  0.00  0.00    +0.000 C 
ATOM      9  C   UNL     1      87.074  71.075  86.242  0.00  0.00    +0.000 C 
ATOM     10  C   UNL     1      87.985  70.568  87.337  0.00  0.00    +0.000 C 
ENDROOT
BRANCH  10  11
ATOM     11  C   UNL     1      88.382  69.106  87.135  0.00  0.00    +0.000 A 
ATOM     12  C   UNL     1      87.503  68.079  87.510  0.00  0.00    +0.000 A 
ATOM     13  C   UNL     1      87.854  66.740  87.327  0.00  0.00    +0.000 A 
ATOM     14  C   UNL     1      89.086  66.413  86.764  0.00  0.00    +0.000 A 
ATOM     15  C   UNL     1      89.966  67.421  86.381  0.00  0.00    +0.000 A 
ATOM     16  C   UNL     1      89.618  68.760  86.562  0.00  0.00    +0.000 A 
ENDBRANCH  10  11
BRANCH   9  17
ATOM     17  C   UNL     1      87.531  70.960  84.830  0.00  0.00    +0.000 C 
ATOM     18  O   UNL     1      88.557  71.478  84.405  0.00  0.00    +0.000 OA
ENDBRANCH   9  17
TORSDOF 2
ENDMDL
