MODEL 1
REMARK VINA RESULT:      -5.0      0.000      0.000
REMARK  Name = *****
REMARK  1 active torsions:
REMARK  status: ('A' for Active; 'I' for Inactive)
REMARK    1  A    between atoms: C_3  and  C_11
REMARK                            x       y       z     vdW  Elec       q    Type
REMARK                         _______ _______ _______ _____ _____    ______ ____
ROOT
ATOM      1  C   UNL     1     102.820 128.341  83.062  0.00  0.00    +0.000 C 
ATOM      2  C   UNL     1     103.641 127.072  82.897  0.00  0.00    +0.000 C 
ATOM      3  C   UNL     1     103.041 126.179  81.807  0.00  0.00    +0.000 C 
ATOM      4  N   UNL     1     101.572 126.076  81.846  0.00  0.00    +0.000 NA
ATOM      5  C   UNL     1     100.859 126.895  82.542  0.00  0.00    +0.000 C 
ATOM      6  C   UNL     1     101.428 127.931  83.518  0.00  0.00    +0.000 C 
ATOM      7  C   UNL     1     100.503 129.105  83.693  0.00  0.00    +0.000 C 
ATOM      8  C   UNL     1      99.202 129.038  83.376  0.00  0.00    +0.000 C 
ATOM      9  C   UNL     1      98.631 127.828  82.839  0.00  0.00    +0.000 C 
ATOM     10  C   UNL     1      99.379 126.798  82.426  0.00  0.00    +0.000 C 
ENDROOT
BRANCH   3  11
ATOM     11  C   UNL     1     103.711 124.815  81.826  0.00  0.00    +0.000 A 
ATOM     12  C   UNL     1     103.881 124.102  83.022  0.00  0.00    +0.000 A 
ATOM     13  C   UNL     1     104.527 122.863  83.029  0.00  0.00    +0.000 A 
ATOM     14  C   UNL     1     105.017 122.326  81.841  0.00  0.00    +0.000 A 
ATOM     15  C   UNL     1     104.862 123.024  80.645  0.00  0.00    +0.000 A 
ATOM     16  C   UNL     1     104.214 124.262  80.638  0.00  0.00    +0.000 A 
ENDBRANCH   3  11
TORSDOF 1
ENDMDL
