MODEL 1
REMARK VINA RESULT:      -4.8      0.000      0.000
REMARK  Name = *****
REMARK  6 active torsions:
REMARK  status: ('A' for Active; 'I' for Inactive)
REMARK    1  A    between atoms: C_1  and  C_2
REMARK    2  A    between atoms: C_2  and  C_3
REMARK    3  A    between atoms: C_2  and  C_4
REMARK    4  A    between atoms: C_4  and  C_16
REMARK    5  A    between atoms: C_12  and  O_14
REMARK    6  A    between atoms: O_14  and  C_15
REMARK                            x       y       z     vdW  Elec       q    Type
REMARK                         _______ _______ _______ _____ _____    ______ ____
ROOT
ATOM      1  C   UNL     1      87.993  69.856  87.722  0.00  0.00    +0.000 C 
ATOM      2  C   UNL     1      89.333  70.437  87.198  0.00  0.00    +0.000 C 
ATOM      3  C   UNL     1      89.699  69.882  85.828  0.00  0.00    +0.000 C 
ATOM      4  C   UNL     1      89.513  68.400  85.797  0.00  0.00    +0.000 A 
ATOM      5  C   UNL     1      88.741  67.760  86.763  0.00  0.00    +0.000 A 
ATOM      6  O   UNL     1      88.120  68.408  87.792  0.00  0.00    +0.000 OA
ATOM      7  C   UNL     1      88.584  66.375  86.730  0.00  0.00    +0.000 A 
ATOM      8  C   UNL     1      89.174  65.618  85.714  0.00  0.00    +0.000 A 
ATOM      9  C   UNL     1      89.929  66.249  84.725  0.00  0.00    +0.000 A 
ATOM     10  C   UNL     1      90.092  67.636  84.772  0.00  0.00    +0.000 A 
ENDROOT
BRANCH   1  11
ATOM     11  C   UNL     1      87.754  70.344  89.174  0.00  0.00    +0.000 A 
ATOM     12  C   UNL     1      88.503  71.410  89.712  0.00  0.00    +0.000 A 
ATOM     13  C   UNL     1      88.303  71.854  91.022  0.00  0.00    +0.000 A 
ATOM     14  C   UNL     1      87.352  71.242  91.829  0.00  0.00    +0.000 A 
ATOM     15  C   UNL     1      86.602  70.184  91.327  0.00  0.00    +0.000 A 
ATOM     16  C   UNL     1      86.802  69.740  90.016  0.00  0.00    +0.000 A 
ENDBRANCH   1  11
BRANCH   1  18
ATOM     17  C   UNL     1      85.648  69.114  86.877  0.00  0.00    +0.000 C 
ATOM     18  C   UNL     1      86.754  70.180  86.802  0.00  0.00    +0.000 C 
ATOM     19  C   UNL     1      86.132  71.566  87.014  0.00  0.00    +0.000 C 
ENDBRANCH   1  18
BRANCH   9  20
ATOM     20  O   UNL     1      90.553  65.635  83.675  0.00  0.00    +0.000 OA
ATOM     21  C   UNL     1      91.304  64.464  83.970  0.00  0.00    +0.000 C 
ENDBRANCH   9  20
TORSDOF 3
ENDMDL
