MODEL 1
REMARK VINA RESULT:      -5.3      0.000      0.000
REMARK  Name = *****
REMARK  1 active torsions:
REMARK  status: ('A' for Active; 'I' for Inactive)
REMARK    1  A    between atoms: C_2  and  C_12
REMARK                            x       y       z     vdW  Elec       q    Type
REMARK                         _______ _______ _______ _____ _____    ______ ____
ROOT
ATOM      1  C   UNL     1     102.755 126.372  81.223  0.00  0.00    +0.000 C 
ATOM      2  C   UNL     1     101.811 125.975  82.363  0.00  0.00    +0.000 C 
ATOM      3  C   UNL     1     102.656 125.453  83.529  0.00  0.00    +0.000 C 
ATOM      4  O   UNL     1     103.384 124.271  83.175  0.00  0.00    +0.000 OA
ATOM      5  C   UNL     1     104.066 124.352  81.991  0.00  0.00    +0.000 A 
ATOM      6  C   UNL     1     103.809 125.320  81.013  0.00  0.00    +0.000 A 
ATOM      7  C   UNL     1     104.570 125.318  79.834  0.00  0.00    +0.000 A 
ATOM      8  C   UNL     1     105.548 124.344  79.634  0.00  0.00    +0.000 A 
ATOM      9  C   UNL     1     105.782 123.368  80.599  0.00  0.00    +0.000 A 
ATOM     10  C   UNL     1     105.036 123.371  81.778  0.00  0.00    +0.000 A 
ATOM     11 CL   UNL     1     106.471 124.347  78.181  0.00  0.00    +0.000 Cl
ENDROOT
BRANCH   2  12
ATOM     12  C   UNL     1     100.885 127.105  82.766  0.00  0.00    +0.000 A 
ATOM     13  C   UNL     1      99.512 127.011  82.491  0.00  0.00    +0.000 A 
ATOM     14  C   UNL     1      98.639 128.038  82.854  0.00  0.00    +0.000 A 
ATOM     15  C   UNL     1      99.126 129.174  83.497  0.00  0.00    +0.000 A 
ATOM     16  C   UNL     1     100.486 129.284  83.775  0.00  0.00    +0.000 A 
ATOM     17  C   UNL     1     101.360 128.256  83.414  0.00  0.00    +0.000 A 
ENDBRANCH   2  12
TORSDOF 1
ENDMDL
