MODEL 1
REMARK VINA RESULT:      -4.7      0.000      0.000
REMARK  Name = *****
REMARK  3 active torsions:
REMARK  status: ('A' for Active; 'I' for Inactive)
REMARK    1  A    between atoms: C_1  and  O_2
REMARK    2  A    between atoms: O_2  and  C_3
REMARK    3  A    between atoms: C_13  and  C_14
REMARK                            x       y       z     vdW  Elec       q    Type
REMARK                         _______ _______ _______ _____ _____    ______ ____
ROOT
ATOM      1  C   UNL     1      89.428  69.843  85.101  0.00  0.00    +0.000 C 
ATOM      2  N   UNL     1      89.789  68.618  85.307  0.00  0.00    +0.000 NA
ATOM      3  C   UNL     1      88.975  67.617  85.856  0.00  0.00    +0.000 A 
ATOM      4  C   UNL     1      89.705  66.582  86.474  0.00  0.00    +0.000 A 
ATOM      5  C   UNL     1      89.083  65.488  87.080  0.00  0.00    +0.000 A 
ATOM      6  C   UNL     1      87.701  65.402  87.075  0.00  0.00    +0.000 A 
ATOM      7  C   UNL     1      86.958  66.408  86.463  0.00  0.00    +0.000 A 
ATOM      8  C   UNL     1      87.577  67.510  85.847  0.00  0.00    +0.000 A 
ATOM      9  O   UNL     1      86.659  68.369  85.318  0.00  0.00    +0.000 OA
ATOM     10  C   UNL     1      87.105  69.494  84.571  0.00  0.00    +0.000 C 
ATOM     11  C   UNL     1      88.046  70.447  85.328  0.00  0.00    +0.000 C 
ATOM     12 CL   UNL     1      87.931  72.061  84.464  0.00  0.00    +0.000 Cl
ENDROOT
BRANCH  11  13
ATOM     13  C   UNL     1      87.721  70.743  86.795  0.00  0.00    +0.000 A 
ATOM     14  C   UNL     1      88.690  70.569  87.801  0.00  0.00    +0.000 A 
ATOM     15  C   UNL     1      88.404  70.858  89.137  0.00  0.00    +0.000 A 
ATOM     16  C   UNL     1      87.150  71.340  89.495  0.00  0.00    +0.000 A 
ATOM     17  C   UNL     1      86.182  71.543  88.515  0.00  0.00    +0.000 A 
ATOM     18  C   UNL     1      86.467  71.255  87.178  0.00  0.00    +0.000 A 
ENDBRANCH  11  13
BRANCH   1  20
ATOM     19  C   UNL     1      90.893  70.499  83.331  0.00  0.00    +0.000 C 
ATOM     20  O   UNL     1      90.349  70.735  84.636  0.00  0.00    +0.000 OA
ENDBRANCH   1  20
TORSDOF 2
ENDMDL
