MODEL 1
REMARK VINA RESULT:      -4.8      0.000      0.000
REMARK  Name = *****
REMARK  3 active torsions:
REMARK  status: ('A' for Active; 'I' for Inactive)
REMARK    1  A    between atoms: C_9  and  C_11
REMARK    2  A    between atoms: C_11  and  C_12
REMARK    3  A    between atoms: C_11  and  O_18
REMARK                            x       y       z     vdW  Elec       q    Type
REMARK                         _______ _______ _______ _____ _____    ______ ____
ROOT
ATOM      1  C   UNL     1     105.650 125.273  80.443  0.00  0.00    +0.000 C 
ATOM      2  C   UNL     1     104.311 124.606  80.486  0.00  0.00    +0.000 C 
ATOM      3  C   UNL     1     103.294 125.469  80.385  0.00  0.00    +0.000 C 
ATOM      4  C   UNL     1     103.761 126.880  80.237  0.00  0.00    +0.000 C 
ATOM      5  C   UNL     1     105.319 126.760  80.288  0.00  0.00    +0.000 C 
ATOM      6  C   UNL     1     105.685 127.706  81.458  0.00  0.00    +0.000 C 
ATOM      7  C   UNL     1     104.665 128.832  81.227  0.00  0.00    +0.000 C 
ATOM      8  C   UNL     1     103.453 127.898  81.373  0.00  0.00    +0.000 C 
ATOM      9  C   UNL     1     103.802 127.318  82.732  0.00  0.00    +0.000 C 
ATOM     10  C   UNL     1     105.141 127.186  82.769  0.00  0.00    +0.000 C 
ENDROOT
BRANCH   9  11
ATOM     11  C   UNL     1     102.793 126.950  83.765  0.00  0.00    +0.000 C 
BRANCH  11  12
ATOM     12  C   UNL     1     101.394 127.429  83.420  0.00  0.00    +0.000 A 
ATOM     13  C   UNL     1     100.939 128.705  83.794  0.00  0.00    +0.000 A 
ATOM     14  C   UNL     1      99.645 129.121  83.480  0.00  0.00    +0.000 A 
ATOM     15  C   UNL     1      98.784 128.266  82.795  0.00  0.00    +0.000 A 
ATOM     16  C   UNL     1      99.216 126.994  82.427  0.00  0.00    +0.000 A 
ATOM     17  C   UNL     1     100.511 126.576  82.741  0.00  0.00    +0.000 A 
ENDBRANCH  11  12
BRANCH  11  18
ATOM     18  O   UNL     1     102.806 125.538  83.957  0.00  0.00    +0.000 OA
ATOM     19  H   UNL     1     102.319 125.109  83.236  0.00  0.00    +0.000 HD
ENDBRANCH  11  18
ENDBRANCH   9  11
TORSDOF 3
ENDMDL
