MODEL 1
REMARK VINA RESULT:      -4.6      0.000      0.000
REMARK  Name = *****
REMARK  5 active torsions:
REMARK  status: ('A' for Active; 'I' for Inactive)
REMARK    1  A    between atoms: C_1  and  O_2
REMARK    2  A    between atoms: O_2  and  C_3
REMARK    3  A    between atoms: C_10  and  C_14
REMARK    4  A    between atoms: C_10  and  O_20
REMARK    5  A    between atoms: O_20  and  C_21
REMARK                            x       y       z     vdW  Elec       q    Type
REMARK                         _______ _______ _______ _____ _____    ______ ____
ROOT
ATOM      1  C   UNL     1      94.855 112.864  77.590  0.00  0.00    +0.000 A 
ATOM      2  C   UNL     1      95.610 113.951  77.152  0.00  0.00    +0.000 A 
ATOM      3  C   UNL     1      96.114 114.866  78.086  0.00  0.00    +0.000 A 
ATOM      4  C   UNL     1      95.860 114.713  79.444  0.00  0.00    +0.000 A 
ATOM      5  C   UNL     1      95.122 113.619  79.885  0.00  0.00    +0.000 A 
ATOM      6  C   UNL     1      94.617 112.703  78.958  0.00  0.00    +0.000 A 
ATOM      7  O   UNL     1      96.317 115.571  80.404  0.00  0.00    +0.000 OA
ATOM      8  C   UNL     1      96.630 116.895  79.933  0.00  0.00    +0.000 C 
ATOM      9  C   UNL     1      97.578 116.830  78.730  0.00  0.00    +0.000 C 
ATOM     10  C   UNL     1      96.978 115.977  77.651  0.00  0.00    +0.000 C 
ATOM     11  O   UNL     1      97.260 116.121  76.465  0.00  0.00    +0.000 OA
ENDROOT
BRANCH   8  12
ATOM     12  C   UNL     1      97.371 117.668  81.039  0.00  0.00    +0.000 A 
ATOM     13  C   UNL     1      97.398 117.211  82.368  0.00  0.00    +0.000 A 
ATOM     14  C   UNL     1      98.098 117.911  83.354  0.00  0.00    +0.000 A 
ATOM     15  C   UNL     1      98.786 119.078  83.029  0.00  0.00    +0.000 A 
ATOM     16  C   UNL     1      98.779 119.544  81.718  0.00  0.00    +0.000 A 
ATOM     17  C   UNL     1      98.081 118.846  80.731  0.00  0.00    +0.000 A 
ENDBRANCH   8  12
BRANCH   1  19
ATOM     18  C   UNL     1      94.647 110.546  77.099  0.00  0.00    +0.000 C 
ATOM     19  O   UNL     1      94.306 111.895  76.797  0.00  0.00    +0.000 OA
ENDBRANCH   1  19
BRANCH   8  20
ATOM     20  O   UNL     1      95.453 117.623  79.528  0.00  0.00    +0.000 OA
ATOM     21  C   UNL     1      94.434 117.690  80.519  0.00  0.00    +0.000 C 
ENDBRANCH   8  20
TORSDOF 3
ENDMDL
