MODEL 1
REMARK VINA RESULT:      -5.2      0.000      0.000
REMARK  Name = *****
REMARK  4 active torsions:
REMARK  status: ('A' for Active; 'I' for Inactive)
REMARK    1  A    between atoms: C_1  and  C_2
REMARK    2  A    between atoms: C_2  and  C_3
REMARK    3  A    between atoms: C_2  and  C_9
REMARK    4  A    between atoms: C_2  and  O_19
REMARK                            x       y       z     vdW  Elec       q    Type
REMARK                         _______ _______ _______ _____ _____    ______ ____
ROOT
ATOM      1  C   UNL     1     104.314 127.762  81.994  0.00  0.00    +0.000 C 
ATOM      2  C   UNL     1     103.291 126.675  81.635  0.00  0.00    +0.000 C 
ENDROOT
BRANCH   2   3
ATOM      3  C   UNL     1     102.077 126.803  82.519  0.00  0.00    +0.000 C 
ATOM      4  C   UNL     1     100.786 126.467  82.292  0.00  0.00    +0.000 C 
ATOM      5  C   UNL     1      99.999 126.734  83.552  0.00  0.00    +0.000 C 
ATOM      6  C   UNL     1     101.151 126.436  84.560  0.00  0.00    +0.000 C 
ATOM      7  C   UNL     1     102.125 127.439  83.920  0.00  0.00    +0.000 C 
ATOM      8  C   UNL     1     101.308 128.744  83.726  0.00  0.00    +0.000 C 
ATOM      9  C   UNL     1      99.867 128.209  83.920  0.00  0.00    +0.000 C 
ATOM     10  C   UNL     1      99.037 129.362  83.417  0.00  0.00    +0.000 C 
ATOM     11  C   UNL     1      99.840 130.453  84.135  0.00  0.00    +0.000 C 
ATOM     12  C   UNL     1     101.099 130.045  84.419  0.00  0.00    +0.000 C 
ENDBRANCH   2   3
BRANCH   2  13
ATOM     13  C   UNL     1     103.839 125.243  81.656  0.00  0.00    +0.000 A 
ATOM     14  C   UNL     1     103.912 124.465  82.823  0.00  0.00    +0.000 A 
ATOM     15  C   UNL     1     104.418 123.161  82.787  0.00  0.00    +0.000 A 
ATOM     16  C   UNL     1     104.858 122.611  81.586  0.00  0.00    +0.000 A 
ATOM     17  C   UNL     1     104.791 123.360  80.417  0.00  0.00    +0.000 A 
ATOM     18  C   UNL     1     104.286 124.661  80.451  0.00  0.00    +0.000 A 
ENDBRANCH   2  13
BRANCH   2  19
ATOM     19  O   UNL     1     102.893 126.974  80.286  0.00  0.00    +0.000 OA
ATOM     20  H   UNL     1     102.141 126.412  80.039  0.00  0.00    +0.000 HD
ENDBRANCH   2  19
TORSDOF 3
ENDMDL
