REMARK  Name = *****
REMARK  5 active torsions:
REMARK  status: ('A' for Active; 'I' for Inactive)
REMARK    1  A    between atoms: C_1  and  C_2
REMARK    2  A    between atoms: C_5  and  C_8
REMARK    3  A    between atoms: C_8  and  C_19
REMARK    4  A    between atoms: C_15  and  O_17
REMARK    5  A    between atoms: O_17  and  C_18
REMARK                            x       y       z     vdW  Elec       q    Type
REMARK                         _______ _______ _______ _____ _____    ______ ____
ROOT
ATOM      1  C   UNL     1      -2.655  -0.265   0.615  0.00  0.00    +0.000 C 
ATOM      2  C   UNL     1      -1.789  -1.117   1.583  0.00  0.00    +0.000 C 
ATOM      3  C   UNL     1      -2.573  -2.372   1.612  0.00  0.00    +0.000 A 
ATOM      4  C   UNL     1      -3.541  -2.337   0.629  0.00  0.00    +0.000 A 
ATOM      5  O   UNL     1      -3.572  -1.169  -0.083  0.00  0.00    +0.000 OA
ATOM      6  C   UNL     1      -4.383  -3.404   0.398  0.00  0.00    +0.000 A 
ATOM      7  C   UNL     1      -4.237  -4.545   1.197  0.00  0.00    +0.000 A 
ATOM      8  C   UNL     1      -3.252  -4.595   2.199  0.00  0.00    +0.000 A 
ATOM      9  C   UNL     1      -2.410  -3.495   2.405  0.00  0.00    +0.000 A 
ATOM     10  C   UNL     1      -3.549   0.728   1.384  0.00  0.00    +0.000 C 
ENDROOT
BRANCH   1  15
ATOM     11  C   UNL     1       0.763   2.601  -3.191  0.00  0.00    +0.000 C 
ATOM     12  C   UNL     1      -0.095   1.854  -2.215  0.00  0.00    +0.000 A 
ATOM     13  C   UNL     1      -1.021   0.910  -2.667  0.00  0.00    +0.000 A 
ATOM     14  C   UNL     1      -1.845   0.231  -1.764  0.00  0.00    +0.000 A 
ATOM     15  C   UNL     1      -1.772   0.486  -0.386  0.00  0.00    +0.000 A 
ATOM     16  C   UNL     1      -0.845   1.446   0.057  0.00  0.00    +0.000 A 
ATOM     17  C   UNL     1      -0.023   2.126  -0.846  0.00  0.00    +0.000 A 
ENDBRANCH   1  15
BRANCH   8  18
ATOM     18  O   UNL     1      -3.012  -5.655   3.031  0.00  0.00    +0.000 OA
ATOM     19  C   UNL     1      -3.797  -6.823   2.827  0.00  0.00    +0.000 C 
ENDBRANCH   8  18
TORSDOF 2
