MODEL 1
REMARK VINA RESULT:      -4.7      0.000      0.000
REMARK  Name = *****
REMARK  2 active torsions:
REMARK  status: ('A' for Active; 'I' for Inactive)
REMARK    1  A    between atoms: C_9  and  C_11
REMARK    2  A    between atoms: C_11  and  C_12
REMARK                            x       y       z     vdW  Elec       q    Type
REMARK                         _______ _______ _______ _____ _____    ______ ____
ROOT
ATOM      1  C   UNL     1      86.628  62.181  89.572  0.00  0.00    +0.000 C 
ATOM      2  C   UNL     1      86.121  62.382  88.146  0.00  0.00    +0.000 C 
ATOM      3  C   UNL     1      87.207  62.968  87.249  0.00  0.00    +0.000 C 
ATOM      4  C   UNL     1      87.774  64.283  87.800  0.00  0.00    +0.000 C 
ATOM      5  C   UNL     1      88.267  64.079  89.244  0.00  0.00    +0.000 C 
ATOM      6  C   UNL     1      87.207  63.467  90.157  0.00  0.00    +0.000 C 
ATOM      7  C   UNL     1      86.784  65.448  87.670  0.00  0.00    +0.000 C 
ATOM      8  C   UNL     1      87.688  66.620  87.373  0.00  0.00    +0.000 C 
ATOM      9  C   UNL     1      88.732  65.980  86.476  0.00  0.00    +0.000 C 
ATOM     10  O   UNL     1      88.921  64.652  87.003  0.00  0.00    +0.000 OA
ENDROOT
BRANCH   9  11
ATOM     11  C   UNL     1      90.052  66.755  86.462  0.00  0.00    +0.000 C 
BRANCH  11  12
ATOM     12  C   UNL     1      89.891  68.171  85.956  0.00  0.00    +0.000 A 
ATOM     13  C   UNL     1      89.761  69.240  86.854  0.00  0.00    +0.000 A 
ATOM     14  C   UNL     1      89.607  70.545  86.382  0.00  0.00    +0.000 A 
ATOM     15  C   UNL     1      89.580  70.794  85.011  0.00  0.00    +0.000 A 
ATOM     16  C   UNL     1      89.706  69.739  84.110  0.00  0.00    +0.000 A 
ATOM     17  C   UNL     1      89.861  68.434  84.580  0.00  0.00    +0.000 A 
ENDBRANCH  11  12
ENDBRANCH   9  11
TORSDOF 2
ENDMDL
