REMARK  Name = *****
REMARK  5 active torsions:
REMARK  status: ('A' for Active; 'I' for Inactive)
REMARK    1  A    between atoms: C_1  and  C_2
REMARK    2  A    between atoms: C_5  and  C_8
REMARK    3  A    between atoms: C_8  and  C_9
REMARK    4  A    between atoms: C_8  and  O_17
REMARK    5  A    between atoms: C_9  and  C_10
REMARK                            x       y       z     vdW  Elec       q    Type
REMARK                         _______ _______ _______ _____ _____    ______ ____
ROOT
ATOM      1  C   UNL     1      -3.358   0.339   0.154  0.00  0.00    +0.000 C 
ENDROOT
BRANCH   1   6
ATOM      2  C   UNL     1       2.474   0.104   0.144  0.00  0.00    +0.000 C 
ATOM      3  C   UNL     1       0.974   0.145   0.167  0.00  0.00    +0.000 A 
ATOM      4  C   UNL     1       0.303   1.003   1.044  0.00  0.00    +0.000 A 
ATOM      5  C   UNL     1      -1.092   1.065   1.044  0.00  0.00    +0.000 A 
ATOM      6  C   UNL     1      -1.844   0.278   0.159  0.00  0.00    +0.000 A 
ATOM      7  C   UNL     1      -1.167  -0.569  -0.729  0.00  0.00    +0.000 A 
ATOM      8  C   UNL     1       0.229  -0.630  -0.728  0.00  0.00    +0.000 A 
ENDBRANCH   1   6
BRANCH   1   9
ATOM      9  O   UNL     1      -3.760   1.698  -0.047  0.00  0.00    +0.000 OA
ATOM     10  H   UNL     1      -3.422   2.246   0.678  0.00  0.00    +0.000 HD
ENDBRANCH   1   9
BRANCH   1  11
ATOM     11  C   UNL     1      -3.960  -0.202   1.464  0.00  0.00    +0.000 C 
BRANCH  11  12
ATOM     12  C   UNL     1      -5.415  -0.596   1.322  0.00  0.00    +0.000 A 
ATOM     13  C   UNL     1      -6.412   0.386   1.237  0.00  0.00    +0.000 A 
ATOM     14  C   UNL     1      -7.754   0.025   1.098  0.00  0.00    +0.000 A 
ATOM     15  C   UNL     1      -8.105  -1.321   1.043  0.00  0.00    +0.000 A 
ATOM     16  C   UNL     1      -7.127  -2.309   1.124  0.00  0.00    +0.000 A 
ATOM     17  C   UNL     1      -5.784  -1.948   1.262  0.00  0.00    +0.000 A 
ATOM     18 CL   UNL     1      -9.758  -1.768   0.870  0.00  0.00    +0.000 Cl
ENDBRANCH  11  12
ENDBRANCH   1  11
TORSDOF 4
