REMARK  Name = *****
REMARK  3 active torsions:
REMARK  status: ('A' for Active; 'I' for Inactive)
REMARK    1  A    between atoms: C_1  and  C_2
REMARK    2  A    between atoms: N_9  and  N_12
REMARK    3  A    between atoms: C_13  and  C_14
REMARK                            x       y       z     vdW  Elec       q    Type
REMARK                         _______ _______ _______ _____ _____    ______ ____
ROOT
ATOM      1  C   UNL     1       0.717  -0.711   0.025  0.00  0.00    +0.000 C 
ATOM      2  C   UNL     1       2.182  -0.417  -0.121  0.00  0.00    +0.000 A 
ATOM      3  C   UNL     1       3.127  -1.431   0.084  0.00  0.00    +0.000 A 
ATOM      4  C   UNL     1       4.476  -1.115  -0.030  0.00  0.00    +0.000 A 
ATOM      5  C   UNL     1       4.904   0.175  -0.321  0.00  0.00    +0.000 A 
ATOM      6  C   UNL     1       3.983   1.192  -0.509  0.00  0.00    +0.000 A 
ATOM      7  C   UNL     1       2.619   0.892  -0.404  0.00  0.00    +0.000 A 
ATOM      8  S   UNL     1       6.665   0.286  -0.392  0.00  0.00    +0.000 S 
ATOM      9  N   UNL     1       6.810  -1.416  -0.143  0.00  0.00    +0.000 N 
ATOM     10  C   UNL     1       5.597  -2.053   0.156  0.00  0.00    +0.000 A 
ATOM     11  O   UNL     1       5.412  -3.212   0.503  0.00  0.00    +0.000 OA
ENDROOT
BRANCH   9  12
ATOM     12  N   UNL     1       7.958  -1.898   0.414  0.00  0.00    +0.000 NA
ATOM     13  C   UNL     1       9.022  -1.956  -0.331  0.00  0.00    +0.000 C 
BRANCH  13  14
ATOM     14  C   UNL     1       9.146  -1.733  -1.784  0.00  0.00    +0.000 A 
ATOM     15  C   UNL     1      10.237  -0.996  -2.248  0.00  0.00    +0.000 A 
ATOM     16  C   UNL     1      10.386  -0.796  -3.619  0.00  0.00    +0.000 A 
ATOM     17  C   UNL     1       9.470  -1.337  -4.522  0.00  0.00    +0.000 A 
ATOM     18  C   UNL     1       8.394  -2.093  -4.053  0.00  0.00    +0.000 A 
ATOM     19  C   UNL     1       8.234  -2.298  -2.682  0.00  0.00    +0.000 A 
ATOM     20 CL   UNL     1      11.715   0.127  -4.205  0.00  0.00    +0.000 Cl
ENDBRANCH  13  14
ENDBRANCH   9  12
TORSDOF 2
