MODEL 1
REMARK VINA RESULT:      -5.2      0.000      0.000
REMARK  Name = *****
REMARK  2 active torsions:
REMARK  status: ('A' for Active; 'I' for Inactive)
REMARK    1  A    between atoms: C_3  and  C_13
REMARK    2  A    between atoms: C_3  and  O_19
REMARK                            x       y       z     vdW  Elec       q    Type
REMARK                         _______ _______ _______ _____ _____    ______ ____
ROOT
ATOM      1  C   UNL     1      86.312  68.389  88.742  0.00  0.00    +0.000 C 
ATOM      2  C   UNL     1      86.774  69.629  89.499  0.00  0.00    +0.000 C 
ATOM      3  C   UNL     1      87.373  70.677  88.551  0.00  0.00    +0.000 C 
ATOM      4  C   UNL     1      88.576  70.053  87.825  0.00  0.00    +0.000 C 
ATOM      5  O   UNL     1      89.571  70.713  87.527  0.00  0.00    +0.000 OA
ATOM      6  C   UNL     1      88.487  68.616  87.441  0.00  0.00    +0.000 A 
ATOM      7  C   UNL     1      87.408  67.828  87.874  0.00  0.00    +0.000 A 
ATOM      8  C   UNL     1      87.334  66.491  87.456  0.00  0.00    +0.000 A 
ATOM      9  C   UNL     1      88.330  65.945  86.643  0.00  0.00    +0.000 A 
ATOM     10  C   UNL     1      89.403  66.736  86.238  0.00  0.00    +0.000 A 
ATOM     11  C   UNL     1      89.489  68.068  86.631  0.00  0.00    +0.000 A 
ATOM     12 BR   UNL     1      90.748  65.993  85.137  0.00  0.00    +0.000 Br
ENDROOT
BRANCH   3  13
ATOM     13  C   UNL     1      86.334  71.310  87.624  0.00  0.00    +0.000 A 
ATOM     14  C   UNL     1      85.186  71.910  88.178  0.00  0.00    +0.000 A 
ATOM     15  C   UNL     1      84.204  72.484  87.367  0.00  0.00    +0.000 A 
ATOM     16  C   UNL     1      84.353  72.477  85.985  0.00  0.00    +0.000 A 
ATOM     17  C   UNL     1      85.486  71.904  85.415  0.00  0.00    +0.000 A 
ATOM     18  C   UNL     1      86.470  71.328  86.226  0.00  0.00    +0.000 A 
ENDBRANCH   3  13
BRANCH   3  19
ATOM     19  O   UNL     1      87.888  71.738  89.373  0.00  0.00    +0.000 OA
ATOM     20  H   UNL     1      88.853  71.657  89.439  0.00  0.00    +0.000 HD
ENDBRANCH   3  19
TORSDOF 2
ENDMDL
