MODEL 1
REMARK VINA RESULT:      -5.4      0.000      0.000
REMARK  Name = *****
REMARK  4 active torsions:
REMARK  status: ('A' for Active; 'I' for Inactive)
REMARK    1  A    between atoms: C_1  and  C_2
REMARK    2  A    between atoms: C_5  and  O_8
REMARK    3  A    between atoms: O_8  and  C_9
REMARK    4  A    between atoms: C_9  and  C_11
REMARK                            x       y       z     vdW  Elec       q    Type
REMARK                         _______ _______ _______ _____ _____    ______ ____
ROOT
ATOM      1  C   UNL     1      88.973  70.065  87.290  0.00  0.00    +0.000 C 
ATOM      2  O   UNL     1      89.762  70.839  86.764  0.00  0.00    +0.000 OA
ENDROOT
BRANCH   1   3
ATOM      3  C   UNL     1      88.997  68.590  87.061  0.00  0.00    +0.000 A 
ATOM      4  N   UNL     1      90.067  68.060  86.411  0.00  0.00    +0.000 NA
ATOM      5  C   UNL     1      90.088  66.733  86.204  0.00  0.00    +0.000 A 
ATOM      6  C   UNL     1      91.168  66.166  85.541  0.00  0.00    +0.000 A 
ATOM      7  C   UNL     1      91.241  64.791  85.299  0.00  0.00    +0.000 A 
ATOM      8  C   UNL     1      90.215  63.957  85.726  0.00  0.00    +0.000 A 
ATOM      9  C   UNL     1      89.119  64.499  86.394  0.00  0.00    +0.000 A 
ATOM     10  C   UNL     1      89.048  65.882  86.636  0.00  0.00    +0.000 A 
ATOM     11  C   UNL     1      87.959  66.456  87.303  0.00  0.00    +0.000 A 
ATOM     12  C   UNL     1      87.930  67.830  87.521  0.00  0.00    +0.000 A 
ENDBRANCH   1   3
BRANCH   1  13
ATOM     13  O   UNL     1      87.948  70.375  88.168  0.00  0.00    +0.000 OA
BRANCH  13  18
ATOM     14  C   UNL     1      83.352  73.009  86.097  0.00  0.00    +0.000 C 
ATOM     15  C   UNL     1      84.587  72.347  86.632  0.00  0.00    +0.000 A 
ATOM     16  C   UNL     1      85.558  71.845  85.754  0.00  0.00    +0.000 A 
ATOM     17  C   UNL     1      86.694  71.200  86.248  0.00  0.00    +0.000 A 
ATOM     18  C   UNL     1      86.857  71.066  87.625  0.00  0.00    +0.000 A 
ATOM     19  C   UNL     1      85.886  71.524  88.511  0.00  0.00    +0.000 A 
ATOM     20  C   UNL     1      84.752  72.167  88.013  0.00  0.00    +0.000 A 
ENDBRANCH  13  18
ENDBRANCH   1  13
TORSDOF 3
ENDMDL
