MODEL 1
REMARK VINA RESULT:      -5.1      0.000      0.000
REMARK  Name = *****
REMARK  2 active torsions:
REMARK  status: ('A' for Active; 'I' for Inactive)
REMARK    1  A    between atoms: C_1  and  C_2
REMARK    2  A    between atoms: C_4  and  C_12
REMARK                            x       y       z     vdW  Elec       q    Type
REMARK                         _______ _______ _______ _____ _____    ______ ____
ROOT
ATOM      1  C   UNL     1      87.902  69.721  84.007  0.00  0.00    +0.000 C 
ATOM      2  C   UNL     1      88.178  70.969  84.848  0.00  0.00    +0.000 C 
ATOM      3  C   UNL     1      89.422  70.839  85.727  0.00  0.00    +0.000 C 
ATOM      4  C   UNL     1      89.148  70.097  87.041  0.00  0.00    +0.000 C 
ATOM      5  O   UNL     1      88.072  70.684  87.788  0.00  0.00    +0.000 OA
ATOM      6  C   UNL     1      87.015  71.189  87.083  0.00  0.00    +0.000 A 
ATOM      7  C   UNL     1      85.914  71.570  87.854  0.00  0.00    +0.000 A 
ATOM      8  C   UNL     1      84.774  72.095  87.247  0.00  0.00    +0.000 A 
ATOM      9  C   UNL     1      84.735  72.246  85.864  0.00  0.00    +0.000 A 
ATOM     10  C   UNL     1      85.837  71.875  85.092  0.00  0.00    +0.000 A 
ATOM     11  C   UNL     1      86.990  71.344  85.694  0.00  0.00    +0.000 A 
ENDROOT
BRANCH   4  12
ATOM     12  C   UNL     1      89.042  68.580  86.927  0.00  0.00    +0.000 A 
ATOM     13  C   UNL     1      90.078  67.851  86.318  0.00  0.00    +0.000 A 
ATOM     14  C   UNL     1      90.011  66.460  86.206  0.00  0.00    +0.000 A 
ATOM     15  C   UNL     1      88.912  65.773  86.713  0.00  0.00    +0.000 A 
ATOM     16  C   UNL     1      87.884  66.475  87.335  0.00  0.00    +0.000 A 
ATOM     17  C   UNL     1      87.950  67.866  87.446  0.00  0.00    +0.000 A 
ENDBRANCH   4  12
TORSDOF 1
ENDMDL
