MODEL 1
REMARK VINA RESULT:      -4.9      0.000      0.000
REMARK  Name = *****
REMARK  1 active torsions:
REMARK  status: ('A' for Active; 'I' for Inactive)
REMARK    1  A    between atoms: C_11  and  C_12
REMARK                            x       y       z     vdW  Elec       q    Type
REMARK                         _______ _______ _______ _____ _____    ______ ____
ROOT
ATOM      1  C   UNL     1     102.720 125.883  84.122  0.00  0.00    +0.000 C 
ATOM      2  C   UNL     1     103.605 124.648  84.057  0.00  0.00    +0.000 C 
ATOM      3  C   UNL     1     104.131 124.444  82.666  0.00  0.00    +0.000 A 
ATOM      4  C   UNL     1     103.537 125.085  81.574  0.00  0.00    +0.000 A 
ATOM      5  C   UNL     1     104.040 124.901  80.286  0.00  0.00    +0.000 A 
ATOM      6  C   UNL     1     105.124 124.050  80.071  0.00  0.00    +0.000 A 
ATOM      7  C   UNL     1     105.705 123.389  81.152  0.00  0.00    +0.000 A 
ATOM      8  C   UNL     1     105.213 123.580  82.446  0.00  0.00    +0.000 A 
ATOM      9  I   UNL     1     107.316 122.112  80.839  0.00  0.00    +0.000 I 
ATOM     10  O   UNL     1     102.475 125.943  81.684  0.00  0.00    +0.000 OA
ATOM     11  C   UNL     1     101.763 125.865  82.929  0.00  0.00    +0.000 C 
ENDROOT
BRANCH  11  12
ATOM     12  C   UNL     1     100.790 127.029  83.006  0.00  0.00    +0.000 A 
ATOM     13  C   UNL     1      99.480 126.885  82.526  0.00  0.00    +0.000 A 
ATOM     14  C   UNL     1      98.571 127.941  82.612  0.00  0.00    +0.000 A 
ATOM     15  C   UNL     1      98.958 129.151  83.185  0.00  0.00    +0.000 A 
ATOM     16  C   UNL     1     100.255 129.307  83.670  0.00  0.00    +0.000 A 
ATOM     17  C   UNL     1     101.165 128.252  83.583  0.00  0.00    +0.000 A 
ENDBRANCH  11  12
TORSDOF 1
ENDMDL
