MODEL 1
REMARK VINA RESULT:      -4.1      0.000      0.000
REMARK  Name = *****
REMARK  2 active torsions:
REMARK  status: ('A' for Active; 'I' for Inactive)
REMARK    1  A    between atoms: N_5  and  S_8
REMARK    2  A    between atoms: S_8  and  C_9
REMARK                            x       y       z     vdW  Elec       q    Type
REMARK                         _______ _______ _______ _____ _____    ______ ____
ROOT
ATOM      1  C   UNL     1      88.143  65.815  86.458  0.00  0.00    +0.000 A 
ATOM      2  N   UNL     1      88.841  64.970  87.184  0.00  0.00    +0.000 NA
ATOM      3  C   UNL     1      88.248  64.816  88.423  0.00  0.00    +0.000 A 
ATOM      4  C   UNL     1      88.714  63.986  89.462  0.00  0.00    +0.000 A 
ATOM      5  C   UNL     1      88.008  63.918  90.668  0.00  0.00    +0.000 A 
ATOM      6  C   UNL     1      86.848  64.665  90.847  0.00  0.00    +0.000 A 
ATOM      7  C   UNL     1      86.367  65.498  89.833  0.00  0.00    +0.000 A 
ATOM      8  C   UNL     1      87.084  65.559  88.626  0.00  0.00    +0.000 A 
ATOM      9  S   UNL     1      86.756  66.482  87.211  0.00  0.00    +0.000 S 
ENDROOT
BRANCH   1  10
ATOM     10  S   UNL     1      88.596  66.251  84.806  0.00  0.00    +0.000 S 
BRANCH  10  15
ATOM     11  C   UNL     1      89.228  70.827  84.996  0.00  0.00    +0.000 C 
ATOM     12  C   UNL     1      89.629  70.633  86.455  0.00  0.00    +0.000 C 
ATOM     13  C   UNL     1      89.373  69.238  87.016  0.00  0.00    +0.000 C 
ATOM     14  C   UNL     1      90.010  68.094  86.226  0.00  0.00    +0.000 C 
ATOM     15  N   UNL     1      89.240  67.783  85.018  0.00  0.00    +0.000 NA
ATOM     16  C   UNL     1      89.605  68.569  83.834  0.00  0.00    +0.000 C 
ATOM     17  C   UNL     1      90.090  70.008  84.041  0.00  0.00    +0.000 C 
ENDBRANCH  10  15
ENDBRANCH   1  10
TORSDOF 2
ENDMDL
