MODEL 1
REMARK VINA RESULT:      -4.8      0.000      0.000
REMARK  Name = *****
REMARK  1 active torsions:
REMARK  status: ('A' for Active; 'I' for Inactive)
REMARK    1  A    between atoms: C_2  and  C_12
REMARK                            x       y       z     vdW  Elec       q    Type
REMARK                         _______ _______ _______ _____ _____    ______ ____
ROOT
ATOM      1  C   UNL     1      90.368  70.697  84.773  0.00  0.00    +0.000 C 
ATOM      2  C   UNL     1      89.639  70.603  86.114  0.00  0.00    +0.000 C 
ATOM      3  O   UNL     1      89.902  69.337  86.749  0.00  0.00    +0.000 OA
ATOM      4  C   UNL     1      89.616  68.249  85.972  0.00  0.00    +0.000 A 
ATOM      5  C   UNL     1      89.288  67.071  86.640  0.00  0.00    +0.000 A 
ATOM      6  C   UNL     1      88.989  65.917  85.912  0.00  0.00    +0.000 A 
ATOM      7  C   UNL     1      89.029  65.939  84.517  0.00  0.00    +0.000 A 
ATOM      8  C   UNL     1      89.378  67.112  83.848  0.00  0.00    +0.000 A 
ATOM      9  C   UNL     1      89.674  68.264  84.581  0.00  0.00    +0.000 A 
ATOM     10  C   UNL     1      90.102  69.499  83.902  0.00  0.00    +0.000 C 
ATOM     11  O   UNL     1      90.299  69.514  82.691  0.00  0.00    +0.000 OA
ENDROOT
BRANCH   2  12
ATOM     12  C   UNL     1      88.159  70.946  86.221  0.00  0.00    +0.000 A 
ATOM     13  C   UNL     1      87.413  71.432  85.141  0.00  0.00    +0.000 A 
ATOM     14  C   UNL     1      86.053  71.730  85.242  0.00  0.00    +0.000 A 
ATOM     15  C   UNL     1      85.390  71.550  86.449  0.00  0.00    +0.000 A 
ATOM     16  C   UNL     1      86.098  71.078  87.549  0.00  0.00    +0.000 A 
ATOM     17  C   UNL     1      87.465  70.780  87.440  0.00  0.00    +0.000 A 
ATOM     18 CL   UNL     1      88.247  70.225  88.881  0.00  0.00    +0.000 Cl
ATOM     19  F   UNL     1      87.986  71.638  83.949  0.00  0.00    +0.000 F 
ENDBRANCH   2  12
TORSDOF 1
ENDMDL
