MODEL 1
REMARK VINA RESULT:      -4.7      0.000      0.000
REMARK  Name = *****
REMARK  7 active torsions:
REMARK  status: ('A' for Active; 'I' for Inactive)
REMARK    1  A    between atoms: C_1  and  C_2
REMARK    2  A    between atoms: C_5  and  O_9
REMARK    3  A    between atoms: C_7  and  O_8
REMARK    4  A    between atoms: O_9  and  C_10
REMARK    5  A    between atoms: C_13  and  C_15
REMARK    6  A    between atoms: C_13  and  O_21
REMARK    7  A    between atoms: O_21  and  C_22
REMARK                            x       y       z     vdW  Elec       q    Type
REMARK                         _______ _______ _______ _____ _____    ______ ____
ROOT
ATOM      1  C   UNL     1      90.149  70.655  85.510  0.00  0.00    +0.000 C 
ATOM      2  C   UNL     1      89.271  69.487  85.869  0.00  0.00    +0.000 A 
ATOM      3  C   UNL     1      88.381  69.566  86.955  0.00  0.00    +0.000 A 
ATOM      4  C   UNL     1      87.555  68.482  87.289  0.00  0.00    +0.000 A 
ATOM      5  C   UNL     1      87.567  67.325  86.488  0.00  0.00    +0.000 A 
ATOM      6  C   UNL     1      88.427  67.253  85.389  0.00  0.00    +0.000 A 
ATOM      7  C   UNL     1      89.266  68.326  85.091  0.00  0.00    +0.000 A 
ATOM      8  C   UNL     1      86.635  68.572  88.475  0.00  0.00    +0.000 C 
ATOM      9  C   UNL     1      87.056  69.703  89.393  0.00  0.00    +0.000 C 
ATOM     10  C   UNL     1      87.319  70.989  88.593  0.00  0.00    +0.000 C 
ATOM     11  O   UNL     1      88.371  70.755  87.641  0.00  0.00    +0.000 OA
ENDROOT
BRANCH  10  12
ATOM     12  C   UNL     1      86.034  71.556  87.960  0.00  0.00    +0.000 A 
ATOM     13  C   UNL     1      84.962  71.964  88.777  0.00  0.00    +0.000 A 
ATOM     14  C   UNL     1      83.787  72.479  88.225  0.00  0.00    +0.000 A 
ATOM     15  C   UNL     1      83.663  72.606  86.845  0.00  0.00    +0.000 A 
ATOM     16  C   UNL     1      84.716  72.227  86.018  0.00  0.00    +0.000 A 
ATOM     17  C   UNL     1      85.892  71.711  86.570  0.00  0.00    +0.000 A 
ENDBRANCH  10  12
BRANCH   7  18
ATOM     18  O   UNL     1      90.097  68.257  84.005  0.00  0.00    +0.000 OA
ATOM     19  H   UNL     1      90.812  68.857  83.923  0.00  0.00    +0.000 HD
ENDBRANCH   7  18
BRANCH   5  20
ATOM     20  O   UNL     1      86.702  66.332  86.866  0.00  0.00    +0.000 OA
ATOM     21  C   UNL     1      87.253  65.061  87.188  0.00  0.00    +0.000 C 
ENDBRANCH   5  20
BRANCH  10  22
ATOM     22  O   UNL     1      87.775  71.935  89.593  0.00  0.00    +0.000 OA
ATOM     23  C   UNL     1      88.588  71.360  90.607  0.00  0.00    +0.000 C 
ENDBRANCH  10  22
TORSDOF 4
ENDMDL
