MODEL 1
REMARK VINA RESULT:      -5.0      0.000      0.000
REMARK  Name = *****
REMARK  1 active torsions:
REMARK  status: ('A' for Active; 'I' for Inactive)
REMARK    1  A    between atoms: C_3  and  C_13
REMARK                            x       y       z     vdW  Elec       q    Type
REMARK                         _______ _______ _______ _____ _____    ______ ____
ROOT
ATOM      1  C   UNL     1      87.919  67.115  87.453  0.00  0.00    +0.000 C 
ATOM      2  C   UNL     1      88.012  68.399  87.066  0.00  0.00    +0.000 C 
ATOM      3  C   UNL     1      86.962  69.454  87.276  0.00  0.00    +0.000 C 
ATOM      4  O   UNL     1      86.717  70.194  86.061  0.00  0.00    +0.000 OA
ATOM      5  C   UNL     1      87.845  70.685  85.459  0.00  0.00    +0.000 A 
ATOM      6  C   UNL     1      87.686  71.815  84.658  0.00  0.00    +0.000 A 
ATOM      7  C   UNL     1      88.790  72.368  84.006  0.00  0.00    +0.000 A 
ATOM      8  C   UNL     1      90.051  71.785  84.145  0.00  0.00    +0.000 A 
ATOM      9  C   UNL     1      90.208  70.642  84.929  0.00  0.00    +0.000 A 
ATOM     10  C   UNL     1      89.100  70.092  85.583  0.00  0.00    +0.000 A 
ATOM     11  C   UNL     1      89.239  68.849  86.361  0.00  0.00    +0.000 C 
ATOM     12  O   UNL     1      90.299  68.237  86.417  0.00  0.00    +0.000 OA
ENDROOT
BRANCH   3  13
ATOM     13  C   UNL     1      87.175  70.411  88.451  0.00  0.00    +0.000 A 
ATOM     14  C   UNL     1      88.370  70.467  89.190  0.00  0.00    +0.000 A 
ATOM     15  C   UNL     1      88.505  71.349  90.267  0.00  0.00    +0.000 A 
ATOM     16  C   UNL     1      87.449  72.180  90.630  0.00  0.00    +0.000 A 
ATOM     17  C   UNL     1      86.253  72.131  89.920  0.00  0.00    +0.000 A 
ATOM     18  C   UNL     1      86.116  71.253  88.843  0.00  0.00    +0.000 A 
ENDBRANCH   3  13
TORSDOF 1
ENDMDL
