MODEL 1
REMARK VINA RESULT:      -5.2      0.000      0.000
REMARK  Name = *****
REMARK  3 active torsions:
REMARK  status: ('A' for Active; 'I' for Inactive)
REMARK    1  A    between atoms: C_1  and  O_2
REMARK    2  A    between atoms: O_2  and  C_3
REMARK    3  A    between atoms: C_3  and  C_15
REMARK                            x       y       z     vdW  Elec       q    Type
REMARK                         _______ _______ _______ _____ _____    ______ ____
ROOT
ATOM      1  C   UNL     1     102.641 126.742  83.008  0.00  0.00    +0.000 C 
ATOM      2  C   UNL     1     102.650 125.766  81.791  0.00  0.00    +0.000 C 
ATOM      3  C   UNL     1     103.799 124.787  81.595  0.00  0.00    +0.000 A 
ATOM      4  C   UNL     1     104.259 124.560  80.284  0.00  0.00    +0.000 A 
ATOM      5  C   UNL     1     105.241 123.602  80.017  0.00  0.00    +0.000 A 
ATOM      6  C   UNL     1     105.765 122.832  81.050  0.00  0.00    +0.000 A 
ATOM      7  C   UNL     1     105.315 123.026  82.354  0.00  0.00    +0.000 A 
ATOM      8  C   UNL     1     104.346 124.003  82.628  0.00  0.00    +0.000 A 
ATOM      9  C   UNL     1     103.943 124.160  84.038  0.00  0.00    +0.000 C 
ATOM     10  O   UNL     1     103.741 123.242  84.812  0.00  0.00    +0.000 OA
ATOM     11  O   UNL     1     104.056 125.471  84.359  0.00  0.00    +0.000 OA
ATOM     12  O   UNL     1     102.713 126.019  84.249  0.00  0.00    +0.000 OA
ENDROOT
BRANCH   1  13
ATOM     13  C   UNL     1     101.242 127.411  82.985  0.00  0.00    +0.000 A 
ATOM     14  C   UNL     1     100.133 126.736  82.438  0.00  0.00    +0.000 A 
ATOM     15  C   UNL     1      98.859 127.309  82.450  0.00  0.00    +0.000 A 
ATOM     16  C   UNL     1      98.666 128.565  83.016  0.00  0.00    +0.000 A 
ATOM     17  C   UNL     1      99.744 129.249  83.572  0.00  0.00    +0.000 A 
ATOM     18  C   UNL     1     101.020 128.677  83.560  0.00  0.00    +0.000 A 
ENDBRANCH   1  13
BRANCH   1  20
ATOM     19  C   UNL     1     104.026 128.301  81.721  0.00  0.00    +0.000 C 
ATOM     20  O   UNL     1     103.565 127.840  82.973  0.00  0.00    +0.000 OA
ENDBRANCH   1  20
TORSDOF 2
ENDMDL
