MODEL 1
REMARK VINA RESULT:      -4.8      0.000      0.000
REMARK  Name = *****
REMARK  1 active torsions:
REMARK  status: ('A' for Active; 'I' for Inactive)
REMARK    1  A    between atoms: C_2  and  C_11
REMARK                            x       y       z     vdW  Elec       q    Type
REMARK                         _______ _______ _______ _____ _____    ______ ____
ROOT
ATOM      1  C   UNL     1     103.671 126.698  83.534  0.00  0.00    +0.000 C 
ATOM      2  C   UNL     1     103.099 126.130  82.237  0.00  0.00    +0.000 C 
ATOM      3  O   UNL     1     101.700 125.833  82.366  0.00  0.00    +0.000 OA
ATOM      4  C   UNL     1     100.903 126.899  82.693  0.00  0.00    +0.000 A 
ATOM      5  C   UNL     1      99.548 126.723  82.394  0.00  0.00    +0.000 A 
ATOM      6  C   UNL     1      98.624 127.729  82.676  0.00  0.00    +0.000 A 
ATOM      7  C   UNL     1      99.050 128.915  83.266  0.00  0.00    +0.000 A 
ATOM      8  C   UNL     1     100.400 129.089  83.582  0.00  0.00    +0.000 A 
ATOM      9  C   UNL     1     101.335 128.081  83.310  0.00  0.00    +0.000 A 
ATOM     10  S   UNL     1     103.027 128.376  83.795  0.00  0.00    +0.000 S 
ENDROOT
BRANCH   2  11
ATOM     11  C   UNL     1     103.825 124.842  81.878  0.00  0.00    +0.000 A 
ATOM     12  C   UNL     1     104.240 124.576  80.563  0.00  0.00    +0.000 A 
ATOM     13  C   UNL     1     104.877 123.375  80.247  0.00  0.00    +0.000 A 
ATOM     14  C   UNL     1     105.102 122.421  81.237  0.00  0.00    +0.000 A 
ATOM     15  C   UNL     1     104.689 122.667  82.545  0.00  0.00    +0.000 A 
ATOM     16  C   UNL     1     104.054 123.868  82.865  0.00  0.00    +0.000 A 
ENDBRANCH   2  11
TORSDOF 1
ENDMDL
