MODEL 1
REMARK VINA RESULT:      -5.1      0.000      0.000
REMARK  Name = *****
REMARK  4 active torsions:
REMARK  status: ('A' for Active; 'I' for Inactive)
REMARK    1  A    between atoms: C_1  and  C_2
REMARK    2  A    between atoms: C_2  and  C_20
REMARK    3  A    between atoms: C_12  and  C_13
REMARK    4  A    between atoms: C_12  and  O_19
REMARK                            x       y       z     vdW  Elec       q    Type
REMARK                         _______ _______ _______ _____ _____    ______ ____
ROOT
ATOM      1  C   UNL     1      89.273  70.228  87.521  0.00  0.00    +0.000 C 
ATOM      2  C   UNL     1      88.184  69.564  86.647  0.00  0.00    +0.000 C 
ATOM      3  C   UNL     1      88.048  68.102  87.170  0.00  0.00    +0.000 A 
ATOM      4  C   UNL     1      87.101  67.735  88.143  0.00  0.00    +0.000 A 
ATOM      5  C   UNL     1      86.999  66.417  88.591  0.00  0.00    +0.000 A 
ATOM      6  C   UNL     1      87.848  65.443  88.082  0.00  0.00    +0.000 A 
ATOM      7  C   UNL     1      88.803  65.791  87.130  0.00  0.00    +0.000 A 
ATOM      8  C   UNL     1      88.927  67.110  86.664  0.00  0.00    +0.000 A 
ATOM      9  C   UNL     1      89.980  67.450  85.646  0.00  0.00    +0.000 C 
ATOM     10  C   UNL     1      89.686  67.290  84.180  0.00  0.00    +0.000 C 
ATOM     11  C   UNL     1      89.766  68.676  84.789  0.00  0.00    +0.000 C 
ATOM     12  C   UNL     1      88.542  69.551  85.081  0.00  0.00    +0.000 C 
ATOM     13  C   UNL     1      86.872  70.368  86.856  0.00  0.00    +0.000 C 
ENDROOT
BRANCH  12  14
ATOM     14  C   UNL     1      88.755  70.954  84.466  0.00  0.00    +0.000 A 
ATOM     15  C   UNL     1      90.046  71.507  84.349  0.00  0.00    +0.000 A 
ATOM     16  C   UNL     1      90.256  72.769  83.784  0.00  0.00    +0.000 A 
ATOM     17  C   UNL     1      89.177  73.512  83.318  0.00  0.00    +0.000 A 
ATOM     18  C   UNL     1      87.891  72.995  83.420  0.00  0.00    +0.000 A 
ATOM     19  C   UNL     1      87.683  71.732  83.986  0.00  0.00    +0.000 A 
ENDBRANCH  12  14
BRANCH  12  20
ATOM     20  O   UNL     1      87.424  68.965  84.378  0.00  0.00    +0.000 OA
ATOM     21  H   UNL     1      86.873  69.670  84.001  0.00  0.00    +0.000 HD
ENDBRANCH  12  20
TORSDOF 2
ENDMDL
