MODEL 1
REMARK VINA RESULT:      -4.7      0.000      0.000
REMARK  Name = *****
REMARK  4 active torsions:
REMARK  status: ('A' for Active; 'I' for Inactive)
REMARK    1  A    between atoms: C_1  and  C_2
REMARK    2  A    between atoms: C_3  and  S_13
REMARK    3  A    between atoms: C_10  and  C_12
REMARK    4  A    between atoms: S_13  and  C_14
REMARK                            x       y       z     vdW  Elec       q    Type
REMARK                         _______ _______ _______ _____ _____    ______ ____
ROOT
ATOM      1  C   UNL     1      89.006  63.896  90.209  0.00  0.00    +0.000 C 
ATOM      2  C   UNL     1      87.640  63.992  89.532  0.00  0.00    +0.000 C 
ATOM      3  C   UNL     1      87.648  63.317  88.135  0.00  0.00    +0.000 C 
ATOM      4  O   UNL     1      87.001  62.018  88.260  0.00  0.00    +0.000 OA
ATOM      5  C   UNL     1      86.329  62.095  89.471  0.00  0.00    +0.000 C 
ATOM      6  C   UNL     1      86.629  63.155  90.210  0.00  0.00    +0.000 C 
ATOM      7  C   UNL     1      85.987  63.388  91.508  0.00  0.00    +0.000 C 
ATOM      8  O   UNL     1      86.282  64.373  92.178  0.00  0.00    +0.000 OA
ATOM      9  C   UNL     1      85.023  62.324  92.007  0.00  0.00    +0.000 C 
ATOM     10  C   UNL     1      84.318  61.566  90.866  0.00  0.00    +0.000 C 
ATOM     11  C   UNL     1      85.326  61.051  89.819  0.00  0.00    +0.000 C 
ATOM     12  C   UNL     1      83.237  62.439  90.215  0.00  0.00    +0.000 C 
ENDROOT
BRANCH   3  13
ATOM     13  S   UNL     1      86.782  64.365  86.892  0.00  0.00    +0.000 S 
BRANCH  13  14
ATOM     14  C   UNL     1      87.945  65.710  86.758  0.00  0.00    +0.000 A 
ATOM     15  C   UNL     1      89.267  65.496  86.362  0.00  0.00    +0.000 A 
ATOM     16  C   UNL     1      90.155  66.570  86.257  0.00  0.00    +0.000 A 
ATOM     17  C   UNL     1      89.722  67.864  86.540  0.00  0.00    +0.000 A 
ATOM     18  C   UNL     1      88.400  68.087  86.923  0.00  0.00    +0.000 A 
ATOM     19  C   UNL     1      87.513  67.013  87.026  0.00  0.00    +0.000 A 
ENDBRANCH  13  14
ENDBRANCH   3  13
TORSDOF 2
ENDMDL
