MODEL 1
REMARK VINA RESULT:      -4.4      0.000      0.000
REMARK  Name = *****
REMARK  5 active torsions:
REMARK  status: ('A' for Active; 'I' for Inactive)
REMARK    1  A    between atoms: C_4  and  C_7
REMARK    2  A    between atoms: C_7  and  C_8
REMARK    3  A    between atoms: C_8  and  C_9
REMARK    4  A    between atoms: C_9  and  C_10
REMARK    5  A    between atoms: C_9  and  O_16
REMARK                            x       y       z     vdW  Elec       q    Type
REMARK                         _______ _______ _______ _____ _____    ______ ____
ROOT
ATOM      1  C   UNL     1      99.185 127.197  83.026  0.00  0.00    +0.000 C 
ENDROOT
BRANCH   1   2
ATOM      2  C   UNL     1      99.046 128.485  83.792  0.00  0.00    +0.000 A 
ATOM      3  C   UNL     1      99.498 129.758  83.483  0.00  0.00    +0.000 A 
ATOM      4  C   UNL     1      99.169 130.717  84.489  0.00  0.00    +0.000 A 
ATOM      5  C   UNL     1      98.486 130.135  85.525  0.00  0.00    +0.000 A 
ATOM      6  S   UNL     1      98.233 128.476  85.311  0.00  0.00    +0.000 S 
ATOM      7 BR   UNL     1      97.890 131.076  87.030  0.00  0.00    +0.000 Br
ENDBRANCH   1   2
BRANCH   1   8
ATOM      8  O   UNL     1      98.177 127.182  82.016  0.00  0.00    +0.000 OA
ATOM      9  H   UNL     1      98.596 127.217  81.142  0.00  0.00    +0.000 HD
ENDBRANCH   1   8
BRANCH   1  10
ATOM     10  C   UNL     1     100.573 127.055  82.396  0.00  0.00    +0.000 C 
BRANCH  10  11
ATOM     11  C   UNL     1     101.552 126.366  83.354  0.00  0.00    +0.000 C 
BRANCH  11  15
ATOM     12  C   UNL     1     104.573 124.146  81.221  0.00  0.00    +0.000 A 
ATOM     13  C   UNL     1     103.762 125.051  80.541  0.00  0.00    +0.000 A 
ATOM     14  C   UNL     1     102.787 125.773  81.231  0.00  0.00    +0.000 A 
ATOM     15  C   UNL     1     102.614 125.595  82.610  0.00  0.00    +0.000 A 
ATOM     16  C   UNL     1     103.432 124.680  83.285  0.00  0.00    +0.000 A 
ATOM     17  C   UNL     1     104.409 123.960  82.593  0.00  0.00    +0.000 A 
ENDBRANCH  11  15
ENDBRANCH  10  11
ENDBRANCH   1  10
TORSDOF 5
ENDMDL
