MODEL 1
REMARK VINA RESULT:      -4.9      0.000      0.000
REMARK  Name = *****
REMARK  3 active torsions:
REMARK  status: ('A' for Active; 'I' for Inactive)
REMARK    1  A    between atoms: C_1  and  O_2
REMARK    2  A    between atoms: O_2  and  C_3
REMARK    3  A    between atoms: C_3  and  C_13
REMARK                            x       y       z     vdW  Elec       q    Type
REMARK                         _______ _______ _______ _____ _____    ______ ____
ROOT
ATOM      1  C   UNL     1     102.524 126.436  83.057  0.00  0.00    +0.000 C 
ATOM      2  C   UNL     1     102.749 125.881  81.621  0.00  0.00    +0.000 C 
ATOM      3  C   UNL     1     103.758 124.758  81.569  0.00  0.00    +0.000 A 
ATOM      4  C   UNL     1     104.300 124.345  80.345  0.00  0.00    +0.000 A 
ATOM      5  C   UNL     1     105.210 123.290  80.303  0.00  0.00    +0.000 A 
ATOM      6  C   UNL     1     105.579 122.639  81.478  0.00  0.00    +0.000 A 
ATOM      7  C   UNL     1     105.033 123.037  82.698  0.00  0.00    +0.000 A 
ATOM      8  C   UNL     1     104.108 124.089  82.752  0.00  0.00    +0.000 A 
ATOM      9  C   UNL     1     103.554 124.545  84.077  0.00  0.00    +0.000 C 
ATOM     10  O   UNL     1     102.365 125.320  83.949  0.00  0.00    +0.000 OA
ENDROOT
BRANCH   1  11
ATOM     11  C   UNL     1     101.201 127.226  83.039  0.00  0.00    +0.000 A 
ATOM     12  C   UNL     1     100.048 126.671  82.448  0.00  0.00    +0.000 A 
ATOM     13  C   UNL     1      98.832 127.359  82.448  0.00  0.00    +0.000 A 
ATOM     14  C   UNL     1      98.744 128.617  83.039  0.00  0.00    +0.000 A 
ATOM     15  C   UNL     1      99.869 129.186  83.627  0.00  0.00    +0.000 A 
ATOM     16  C   UNL     1     101.086 128.498  83.629  0.00  0.00    +0.000 A 
ENDBRANCH   1  11
BRANCH   1  18
ATOM     17  C   UNL     1     104.429 127.944  82.742  0.00  0.00    +0.000 C 
ATOM     18  O   UNL     1     103.486 127.346  83.610  0.00  0.00    +0.000 OA
ENDBRANCH   1  18
TORSDOF 2
ENDMDL
