MODEL 1
REMARK VINA RESULT:      -4.8      0.000      0.000
REMARK  Name = *****
REMARK  6 active torsions:
REMARK  status: ('A' for Active; 'I' for Inactive)
REMARK    1  A    between atoms: C_1  and  C_2
REMARK    2  A    between atoms: C_2  and  C_3
REMARK    3  A    between atoms: C_2  and  C_4
REMARK    4  A    between atoms: C_2  and  C_5
REMARK    5  A    between atoms: C_9  and  C_11
REMARK    6  A    between atoms: C_9  and  O_17
REMARK                            x       y       z     vdW  Elec       q    Type
REMARK                         _______ _______ _______ _____ _____    ______ ____
ROOT
ATOM      1  C   UNL     1      90.326  70.725  84.584  0.00  0.00    +0.000 C 
ATOM      2  C   UNL     1      90.100  69.228  84.280  0.00  0.00    +0.000 C 
ATOM      3  C   UNL     1      89.742  68.428  85.530  0.00  0.00    +0.000 C 
ATOM      4  C   UNL     1      88.507  68.990  86.228  0.00  0.00    +0.000 C 
ATOM      5  C   UNL     1      88.628  70.495  86.540  0.00  0.00    +0.000 C 
ATOM      6  C   UNL     1      89.071  71.299  85.293  0.00  0.00    +0.000 C 
ENDROOT
BRANCH   5   7
ATOM      7  C   UNL     1      87.304  71.044  87.085  0.00  0.00    +0.000 A 
ATOM      8  C   UNL     1      87.042  71.102  88.466  0.00  0.00    +0.000 A 
ATOM      9  C   UNL     1      85.834  71.606  88.955  0.00  0.00    +0.000 A 
ATOM     10  C   UNL     1      84.860  72.064  88.074  0.00  0.00    +0.000 A 
ATOM     11  C   UNL     1      85.093  72.019  86.703  0.00  0.00    +0.000 A 
ATOM     12  C   UNL     1      86.301  71.515  86.215  0.00  0.00    +0.000 A 
ENDBRANCH   5   7
BRANCH   1  14
ATOM     13  C   UNL     1      92.282  71.891  83.332  0.00  0.00    +0.000 C 
ATOM     14  C   UNL     1      90.777  71.561  83.326  0.00  0.00    +0.000 C 
ATOM     15  C   UNL     1      89.997  72.894  83.263  0.00  0.00    +0.000 C 
ATOM     16  C   UNL     1      90.461  70.789  82.025  0.00  0.00    +0.000 C 
ENDBRANCH   1  14
BRANCH   5  17
ATOM     17  O   UNL     1      89.637  70.657  87.551  0.00  0.00    +0.000 OA
ATOM     18  H   UNL     1      89.359  71.344  88.178  0.00  0.00    +0.000 HD
ENDBRANCH   5  17
TORSDOF 3
ENDMDL
