MODEL 1
REMARK VINA RESULT:      -5.0      0.000      0.000
REMARK  Name = *****
REMARK  3 active torsions:
REMARK  status: ('A' for Active; 'I' for Inactive)
REMARK    1  A    between atoms: C_1  and  O_2
REMARK    2  A    between atoms: O_2  and  C_3
REMARK    3  A    between atoms: C_6  and  C_9
REMARK                            x       y       z     vdW  Elec       q    Type
REMARK                         _______ _______ _______ _____ _____    ______ ____
ROOT
ATOM      1  C   UNL     1     102.774 125.912  82.988  0.00  0.00    +0.000 C 
ATOM      2  C   UNL     1     103.450 127.275  82.849  0.00  0.00    +0.000 C 
ATOM      3  C   UNL     1     102.621 128.323  83.579  0.00  0.00    +0.000 C 
ATOM      4  C   UNL     1     101.155 128.150  83.294  0.00  0.00    +0.000 A 
ATOM      5  C   UNL     1     100.243 129.176  83.592  0.00  0.00    +0.000 A 
ATOM      6  C   UNL     1      98.885 129.025  83.306  0.00  0.00    +0.000 A 
ATOM      7  C   UNL     1      98.425 127.852  82.714  0.00  0.00    +0.000 A 
ATOM      8  C   UNL     1      99.321 126.827  82.415  0.00  0.00    +0.000 A 
ATOM      9  C   UNL     1     100.676 126.969  82.716  0.00  0.00    +0.000 A 
ATOM     10  O   UNL     1     101.477 125.916  82.370  0.00  0.00    +0.000 OA
ATOM     11 CL   UNL     1     102.906 128.221  85.346  0.00  0.00    +0.000 Cl
ENDROOT
BRANCH   1  15
ATOM     12  C   UNL     1     105.154 122.821  81.084  0.00  0.00    +0.000 A 
ATOM     13  C   UNL     1     104.627 123.872  80.335  0.00  0.00    +0.000 A 
ATOM     14  C   UNL     1     103.864 124.868  80.956  0.00  0.00    +0.000 A 
ATOM     15  C   UNL     1     103.622 124.833  82.337  0.00  0.00    +0.000 A 
ATOM     16  C   UNL     1     104.148 123.768  83.081  0.00  0.00    +0.000 A 
ATOM     17  C   UNL     1     104.907 122.774  82.458  0.00  0.00    +0.000 A 
BRANCH  12  19
ATOM     18  C   UNL     1     106.306 120.792  81.536  0.00  0.00    +0.000 C 
ATOM     19  O   UNL     1     105.913 121.790  80.603  0.00  0.00    +0.000 OA
ENDBRANCH  12  19
ENDBRANCH   1  15
TORSDOF 2
ENDMDL
