MODEL 1
REMARK VINA RESULT:      -4.9      0.000      0.000
REMARK  Name = *****
REMARK  3 active torsions:
REMARK  status: ('A' for Active; 'I' for Inactive)
REMARK    1  A    between atoms: C_7  and  O_10
REMARK    2  A    between atoms: O_10  and  C_11
REMARK    3  A    between atoms: C_11  and  C_12
REMARK                            x       y       z     vdW  Elec       q    Type
REMARK                         _______ _______ _______ _____ _____    ______ ____
ROOT
ATOM      1  C   UNL     1      88.426  64.421  86.530  0.00  0.00    +0.000 C 
ATOM      2  C   UNL     1      88.232  65.616  87.455  0.00  0.00    +0.000 C 
ATOM      3  C   UNL     1      88.662  66.910  86.806  0.00  0.00    +0.000 A 
ATOM      4  C   UNL     1      89.628  66.900  85.781  0.00  0.00    +0.000 A 
ATOM      5  C   UNL     1      90.033  68.091  85.160  0.00  0.00    +0.000 A 
ATOM      6  C   UNL     1      89.499  69.309  85.566  0.00  0.00    +0.000 A 
ATOM      7  C   UNL     1      88.583  69.342  86.616  0.00  0.00    +0.000 A 
ATOM      8  C   UNL     1      88.154  68.155  87.230  0.00  0.00    +0.000 A 
ATOM      9 CL   UNL     1      87.011  68.250  88.532  0.00  0.00    +0.000 Cl
ATOM     10  C   UNL     1      90.262  65.625  85.339  0.00  0.00    +0.000 C 
ATOM     11  O   UNL     1      91.136  65.633  84.475  0.00  0.00    +0.000 OA
ATOM     12  C   UNL     1      89.860  64.350  86.038  0.00  0.00    +0.000 C 
ENDROOT
BRANCH   7  13
ATOM     13  O   UNL     1      88.064  70.560  86.978  0.00  0.00    +0.000 OA
BRANCH  13  14
ATOM     14  C   UNL     1      87.131  71.042  86.000  0.00  0.00    +0.000 C 
BRANCH  14  15
ATOM     15  C   UNL     1      85.910  71.618  86.675  0.00  0.00    +0.000 A 
ATOM     16  C   UNL     1      85.808  71.621  88.074  0.00  0.00    +0.000 A 
ATOM     17  C   UNL     1      84.683  72.154  88.703  0.00  0.00    +0.000 A 
ATOM     18  C   UNL     1      83.648  72.692  87.941  0.00  0.00    +0.000 A 
ATOM     19  C   UNL     1      83.737  72.696  86.549  0.00  0.00    +0.000 A 
ATOM     20  C   UNL     1      84.863  72.163  85.918  0.00  0.00    +0.000 A 
ENDBRANCH  14  15
ENDBRANCH  13  14
ENDBRANCH   7  13
TORSDOF 3
ENDMDL
