MODEL 1
REMARK VINA RESULT:      -5.2      0.000      0.000
REMARK  Name = *****
REMARK  3 active torsions:
REMARK  status: ('A' for Active; 'I' for Inactive)
REMARK    1  A    between atoms: C_6  and  C_13
REMARK    2  A    between atoms: C_6  and  O_19
REMARK    3  A    between atoms: N_8  and  O_9
REMARK                            x       y       z     vdW  Elec       q    Type
REMARK                         _______ _______ _______ _____ _____    ______ ____
ROOT
ATOM      1  C   UNL     1      99.301 128.864  84.263  0.00  0.00    +0.000 C 
ATOM      2  C   UNL     1      98.620 128.100  83.133  0.00  0.00    +0.000 C 
ATOM      3  C   UNL     1      99.431 126.874  82.724  0.00  0.00    +0.000 C 
ATOM      4  C   UNL     1     100.875 127.243  82.346  0.00  0.00    +0.000 C 
ATOM      5  C   UNL     1     101.682 125.975  82.047  0.00  0.00    +0.000 C 
ATOM      6  C   UNL     1     103.156 126.229  81.640  0.00  0.00    +0.000 C 
ATOM      7  C   UNL     1     103.835 127.325  82.517  0.00  0.00    +0.000 C 
ATOM      8  N   UNL     1     105.110 127.526  82.710  0.00  0.00    +0.000 NA
ATOM      9  C   UNL     1     102.954 128.455  83.046  0.00  0.00    +0.000 C 
ATOM     10  C   UNL     1     101.561 128.019  83.479  0.00  0.00    +0.000 C 
ATOM     11  C   UNL     1     100.732 129.244  83.896  0.00  0.00    +0.000 C 
ENDROOT
BRANCH   6  12
ATOM     12  C   UNL     1     103.840 124.852  81.674  0.00  0.00    +0.000 A 
ATOM     13  C   UNL     1     104.331 124.249  80.502  0.00  0.00    +0.000 A 
ATOM     14  C   UNL     1     104.919 122.983  80.537  0.00  0.00    +0.000 A 
ATOM     15  C   UNL     1     105.022 122.292  81.741  0.00  0.00    +0.000 A 
ATOM     16  C   UNL     1     104.538 122.867  82.913  0.00  0.00    +0.000 A 
ATOM     17  C   UNL     1     103.951 124.134  82.880  0.00  0.00    +0.000 A 
ENDBRANCH   6  12
BRANCH   8  18
ATOM     18  O   UNL     1     105.914 126.619  82.028  0.00  0.00    +0.000 OA
ATOM     19  H   UNL     1     105.841 126.535  81.097  0.00  0.00    +0.000 HD
ENDBRANCH   8  18
BRANCH   6  20
ATOM     20  O   UNL     1     103.142 126.733  80.294  0.00  0.00    +0.000 OA
ATOM     21  H   UNL     1     102.232 126.733  79.958  0.00  0.00    +0.000 HD
ENDBRANCH   6  20
TORSDOF 3
ENDMDL
