MODEL 1
REMARK VINA RESULT:      -5.1      0.000      0.000
REMARK  Name = *****
REMARK  2 active torsions:
REMARK  status: ('A' for Active; 'I' for Inactive)
REMARK    1  A    between atoms: C_4  and  O_7
REMARK    2  A    between atoms: O_7  and  C_8
REMARK                            x       y       z     vdW  Elec       q    Type
REMARK                         _______ _______ _______ _____ _____    ______ ____
ROOT
ATOM      1  C   UNL     1     102.437 126.021  81.761  0.00  0.00    +0.000 C 
ATOM      2  C   UNL     1     103.130 127.094  80.962  0.00  0.00    +0.000 C 
ATOM      3  C   UNL     1     104.201 126.858  80.198  0.00  0.00    +0.000 C 
ATOM      4  C   UNL     1     104.701 125.493  80.154  0.00  0.00    +0.000 A 
ATOM      5  C   UNL     1     105.724 125.130  79.271  0.00  0.00    +0.000 A 
ATOM      6  C   UNL     1     106.211 123.821  79.260  0.00  0.00    +0.000 A 
ATOM      7  C   UNL     1     105.685 122.873  80.137  0.00  0.00    +0.000 A 
ATOM      8  C   UNL     1     104.668 123.231  81.021  0.00  0.00    +0.000 A 
ATOM      9  C   UNL     1     104.170 124.535  81.022  0.00  0.00    +0.000 A 
ATOM     10  O   UNL     1     103.191 124.808  81.936  0.00  0.00    +0.000 OA
ENDROOT
BRANCH   1  11
ATOM     11  O   UNL     1     102.126 126.616  83.029  0.00  0.00    +0.000 OA
BRANCH  11  15
ATOM     12  C   UNL     1      98.643 128.901  83.113  0.00  0.00    +0.000 A 
ATOM     13  C   UNL     1      99.809 129.455  83.637  0.00  0.00    +0.000 A 
ATOM     14  C   UNL     1     101.003 128.727  83.630  0.00  0.00    +0.000 A 
ATOM     15  C   UNL     1     101.034 127.436  83.101  0.00  0.00    +0.000 A 
ATOM     16  C   UNL     1      99.863 126.891  82.566  0.00  0.00    +0.000 A 
ATOM     17  C   UNL     1      98.670 127.617  82.573  0.00  0.00    +0.000 A 
ENDBRANCH  11  15
ENDBRANCH   1  11
TORSDOF 2
ENDMDL
