REMARK  Name = *****
REMARK  2 active torsions:
REMARK  status: ('A' for Active; 'I' for Inactive)
REMARK    1  A    between atoms: C_4  and  C_7
REMARK    2  A    between atoms: C_7  and  C_9
REMARK                            x       y       z     vdW  Elec       q    Type
REMARK                         _______ _______ _______ _____ _____    ______ ____
ROOT
ATOM      1  C   UNL     1      -4.261  -0.838   0.072  0.00  0.00    +0.000 C 
ATOM      2  C   UNL     1      -4.694  -2.209  -0.427  0.00  0.00    +0.000 C 
ATOM      3  C   UNL     1      -5.945  -2.219  -0.912  0.00  0.00    +0.000 C 
ATOM      4  C   UNL     1      -6.472  -0.871  -0.795  0.00  0.00    +0.000 A 
ATOM      5  C   UNL     1      -7.717  -0.388  -1.158  0.00  0.00    +0.000 A 
ATOM      6  C   UNL     1      -7.986   0.966  -0.948  0.00  0.00    +0.000 A 
ATOM      7  C   UNL     1      -7.015   1.809  -0.383  0.00  0.00    +0.000 A 
ATOM      8  C   UNL     1      -5.760   1.313  -0.019  0.00  0.00    +0.000 A 
ATOM      9  C   UNL     1      -5.498  -0.032  -0.232  0.00  0.00    +0.000 A 
ENDROOT
BRANCH   1  10
ATOM     10  C   UNL     1      -3.013  -0.353  -0.668  0.00  0.00    +0.000 C 
ATOM     11  O   UNL     1      -2.743  -0.703  -1.819  0.00  0.00    +0.000 OA
BRANCH  10  15
ATOM     12  C   UNL     1      -0.195   2.301   1.224  0.00  0.00    +0.000 A 
ATOM     13  C   UNL     1      -1.363   1.956   1.901  0.00  0.00    +0.000 A 
ATOM     14  C   UNL     1      -2.296   1.099   1.307  0.00  0.00    +0.000 A 
ATOM     15  C   UNL     1      -2.065   0.580   0.027  0.00  0.00    +0.000 A 
ATOM     16  C   UNL     1      -0.885   0.938  -0.645  0.00  0.00    +0.000 A 
ATOM     17  C   UNL     1       0.045   1.793  -0.050  0.00  0.00    +0.000 A 
ENDBRANCH  10  15
ENDBRANCH   1  10
TORSDOF 2
