MODEL 1
REMARK VINA RESULT:      -4.6      0.000      0.000
REMARK  Name = *****
REMARK  4 active torsions:
REMARK  status: ('A' for Active; 'I' for Inactive)
REMARK    1  A    between atoms: C_1  and  C_2
REMARK    2  A    between atoms: C_2  and  O_3
REMARK    3  A    between atoms: O_3  and  C_4
REMARK    4  A    between atoms: C_4  and  C_14
REMARK                            x       y       z     vdW  Elec       q    Type
REMARK                         _______ _______ _______ _____ _____    ______ ____
ROOT
ATOM      1  C   UNL     1      96.606 116.965  79.830  0.00  0.00    +0.000 C 
ATOM      2  C   UNL     1      97.596 116.749  78.670  0.00  0.00    +0.000 C 
ATOM      3  C   UNL     1      96.891 116.060  77.511  0.00  0.00    +0.000 C 
ATOM      4  C   UNL     1      96.110 114.881  78.007  0.00  0.00    +0.000 A 
ATOM      5  C   UNL     1      95.701 113.881  77.115  0.00  0.00    +0.000 A 
ATOM      6  C   UNL     1      94.972 112.783  77.571  0.00  0.00    +0.000 A 
ATOM      7  C   UNL     1      94.642 112.677  78.920  0.00  0.00    +0.000 A 
ATOM      8  C   UNL     1      95.035 113.675  79.811  0.00  0.00    +0.000 A 
ATOM      9  C   UNL     1      95.755 114.780  79.354  0.00  0.00    +0.000 A 
ATOM     10  O   UNL     1      96.093 115.705  80.303  0.00  0.00    +0.000 OA
ENDROOT
BRANCH   1  11
ATOM     11  C   UNL     1      97.382 117.657  80.965  0.00  0.00    +0.000 A 
ATOM     12  C   UNL     1      98.121 118.831  80.735  0.00  0.00    +0.000 A 
ATOM     13  C   UNL     1      98.802 119.465  81.778  0.00  0.00    +0.000 A 
ATOM     14  C   UNL     1      98.749 118.942  83.067  0.00  0.00    +0.000 A 
ATOM     15  C   UNL     1      98.014 117.787  83.319  0.00  0.00    +0.000 A 
ATOM     16  C   UNL     1      97.333 117.153  82.278  0.00  0.00    +0.000 A 
ENDBRANCH   1  11
BRANCH   1  17
ATOM     17  O   UNL     1      95.559 117.836  79.351  0.00  0.00    +0.000 OA
BRANCH  17  19
ATOM     18  C   UNL     1      94.265 119.499  80.458  0.00  0.00    +0.000 C 
ATOM     19  C   UNL     1      94.483 118.010  80.271  0.00  0.00    +0.000 C 
ENDBRANCH  17  19
ENDBRANCH   1  17
TORSDOF 3
ENDMDL
