MODEL 1
REMARK VINA RESULT:      -5.2      0.000      0.000
REMARK  Name = *****
REMARK  4 active torsions:
REMARK  status: ('A' for Active; 'I' for Inactive)
REMARK    1  A    between atoms: C_1  and  C_2
REMARK    2  A    between atoms: C_2  and  C_14
REMARK    3  A    between atoms: C_10  and  O_12
REMARK    4  A    between atoms: O_12  and  C_13
REMARK                            x       y       z     vdW  Elec       q    Type
REMARK                         _______ _______ _______ _____ _____    ______ ____
ROOT
ATOM      1  C   UNL     1      87.429  72.024  90.039  0.00  0.00    +0.000 C 
ATOM      2  C   UNL     1      87.133  70.928  88.997  0.00  0.00    +0.000 C 
ATOM      3  C   UNL     1      86.699  69.649  89.744  0.00  0.00    +0.000 C 
ATOM      4  C   UNL     1      86.528  68.493  88.768  0.00  0.00    +0.000 C 
ATOM      5  C   UNL     1      87.718  68.406  87.860  0.00  0.00    +0.000 A 
ATOM      6  C   UNL     1      88.571  69.500  87.702  0.00  0.00    +0.000 A 
ATOM      7  O   UNL     1      88.401  70.701  88.334  0.00  0.00    +0.000 OA
ATOM      8  C   UNL     1      89.685  69.402  86.873  0.00  0.00    +0.000 A 
ATOM      9  C   UNL     1      89.935  68.222  86.172  0.00  0.00    +0.000 A 
ATOM     10  C   UNL     1      89.076  67.128  86.296  0.00  0.00    +0.000 A 
ATOM     11  C   UNL     1      87.968  67.225  87.140  0.00  0.00    +0.000 A 
ENDROOT
BRANCH   2  12
ATOM     12  C   UNL     1      86.073  71.484  88.029  0.00  0.00    +0.000 A 
ATOM     13  C   UNL     1      86.285  71.488  86.640  0.00  0.00    +0.000 A 
ATOM     14  C   UNL     1      85.328  72.004  85.762  0.00  0.00    +0.000 A 
ATOM     15  C   UNL     1      84.142  72.539  86.257  0.00  0.00    +0.000 A 
ATOM     16  C   UNL     1      83.917  72.564  87.630  0.00  0.00    +0.000 A 
ATOM     17  C   UNL     1      84.875  72.048  88.507  0.00  0.00    +0.000 A 
ENDBRANCH   2  12
BRANCH  10  18
ATOM     18  O   UNL     1      89.428  66.037  85.550  0.00  0.00    +0.000 OA
ATOM     19  C   UNL     1      90.819  65.799  85.378  0.00  0.00    +0.000 C 
ENDBRANCH  10  18
TORSDOF 2
ENDMDL
