REMARK  Name = *****
REMARK  2 active torsions:
REMARK  status: ('A' for Active; 'I' for Inactive)
REMARK    1  A    between atoms: C_11  and  C_12
REMARK    2  A    between atoms: C_15  and  C_18
REMARK                            x       y       z     vdW  Elec       q    Type
REMARK                         _______ _______ _______ _____ _____    ______ ____
ROOT
ATOM      1  C   UNL     1      -2.491   0.596  -0.407  0.00  0.00    +0.000 C 
ATOM      2  C   UNL     1      -1.317   1.503  -0.068  0.00  0.00    +0.000 C 
ATOM      3  C   UNL     1      -0.039   0.717  -0.021  0.00  0.00    +0.000 A 
ATOM      4  C   UNL     1      -0.057  -0.678   0.094  0.00  0.00    +0.000 A 
ATOM      5  C   UNL     1       1.136  -1.401   0.122  0.00  0.00    +0.000 A 
ATOM      6  C   UNL     1       2.361  -0.735   0.065  0.00  0.00    +0.000 A 
ATOM      7  C   UNL     1       2.385   0.655  -0.025  0.00  0.00    +0.000 A 
ATOM      8  C   UNL     1       1.195   1.382  -0.066  0.00  0.00    +0.000 A 
ATOM      9 CL   UNL     1       3.893   1.481  -0.089  0.00  0.00    +0.000 Cl
ATOM     10  O   UNL     1      -1.207  -1.418   0.149  0.00  0.00    +0.000 OA
ATOM     11  C   UNL     1      -2.397  -0.670   0.445  0.00  0.00    +0.000 C 
ENDROOT
BRANCH  11  12
ATOM     12  C   UNL     1      -3.603  -1.563   0.207  0.00  0.00    +0.000 A 
ATOM     13  C   UNL     1      -4.684  -1.538   1.102  0.00  0.00    +0.000 A 
ATOM     14  C   UNL     1      -5.808  -2.339   0.882  0.00  0.00    +0.000 A 
ATOM     15  C   UNL     1      -5.868  -3.174  -0.238  0.00  0.00    +0.000 A 
ATOM     16  C   UNL     1      -4.800  -3.203  -1.138  0.00  0.00    +0.000 A 
ATOM     17  C   UNL     1      -3.677  -2.401  -0.917  0.00  0.00    +0.000 A 
BRANCH  15  18
ATOM     18  C   UNL     1      -7.022  -3.996  -0.462  0.00  0.00    +0.000 C 
ATOM     19  N   UNL     1      -7.958  -4.658  -0.643  0.00  0.00    +0.000 NA
ENDBRANCH  15  18
ENDBRANCH  11  12
TORSDOF 2
