MODEL 1
REMARK VINA RESULT:      -4.9      0.000      0.000
REMARK  Name = *****
REMARK  5 active torsions:
REMARK  status: ('A' for Active; 'I' for Inactive)
REMARK    1  A    between atoms: C_1  and  C_2
REMARK    2  A    between atoms: C_2  and  C_19
REMARK    3  A    between atoms: C_6  and  C_18
REMARK    4  A    between atoms: C_8  and  C_11
REMARK    5  A    between atoms: C_8  and  O_17
REMARK                            x       y       z     vdW  Elec       q    Type
REMARK                         _______ _______ _______ _____ _____    ______ ____
ROOT
ATOM      1  C   UNL     1      85.452  66.089  91.441  0.00  0.00    +0.000 C 
ATOM      2  C   UNL     1      86.289  65.356  90.344  0.00  0.00    +0.000 C 
ATOM      3  C   UNL     1      87.462  64.502  90.934  0.00  0.00    +0.000 C 
ATOM      4  C   UNL     1      86.413  63.405  91.272  0.00  0.00    +0.000 C 
ATOM      5  C   UNL     1      85.620  63.966  90.044  0.00  0.00    +0.000 C 
ATOM      6  C   UNL     1      86.128  63.272  88.766  0.00  0.00    +0.000 C 
ATOM      7  C   UNL     1      86.224  64.031  87.443  0.00  0.00    +0.000 C 
ATOM      8  C   UNL     1      87.732  63.572  87.313  0.00  0.00    +0.000 C 
ATOM      9  C   UNL     1      87.684  63.257  88.884  0.00  0.00    +0.000 C 
ATOM     10  C   UNL     1      88.490  64.075  89.899  0.00  0.00    +0.000 C 
ATOM     11  C   UNL     1      85.449  61.907  88.603  0.00  0.00    +0.000 C 
ATOM     12  C   UNL     1      86.683  66.463  89.367  0.00  0.00    +0.000 C 
ENDROOT
BRANCH   8  13
ATOM     13  C   UNL     1      88.810  64.636  86.771  0.00  0.00    +0.000 A 
ATOM     14  C   UNL     1      89.911  64.214  85.994  0.00  0.00    +0.000 A 
ATOM     15  C   UNL     1      90.851  65.110  85.479  0.00  0.00    +0.000 A 
ATOM     16  C   UNL     1      90.710  66.472  85.715  0.00  0.00    +0.000 A 
ATOM     17  C   UNL     1      89.627  66.933  86.454  0.00  0.00    +0.000 A 
ATOM     18  C   UNL     1      88.689  66.028  86.964  0.00  0.00    +0.000 A 
ENDBRANCH   8  13
BRANCH   8  19
ATOM     19  O   UNL     1      87.862  62.353  86.525  0.00  0.00    +0.000 OA
ATOM     20  H   UNL     1      87.173  61.722  86.787  0.00  0.00    +0.000 HD
ENDBRANCH   8  19
TORSDOF 2
ENDMDL
