MODEL 1
REMARK VINA RESULT:      -5.2      0.000      0.000
REMARK  Name = *****
REMARK  1 active torsions:
REMARK  status: ('A' for Active; 'I' for Inactive)
REMARK    1  A    between atoms: C_2  and  C_13
REMARK                            x       y       z     vdW  Elec       q    Type
REMARK                         _______ _______ _______ _____ _____    ______ ____
ROOT
ATOM      1  C   UNL     1     100.568 126.353  82.023  0.00  0.00    +0.000 C 
ATOM      2  C   UNL     1     101.807 126.298  82.905  0.00  0.00    +0.000 C 
ATOM      3  O   UNL     1     102.364 127.609  83.097  0.00  0.00    +0.000 OA
ATOM      4  C   UNL     1     101.464 128.505  83.607  0.00  0.00    +0.000 A 
ATOM      5  C   UNL     1     100.081 128.370  83.471  0.00  0.00    +0.000 A 
ATOM      6  C   UNL     1      99.553 127.228  82.698  0.00  0.00    +0.000 C 
ATOM      7  O   UNL     1      98.345 127.057  82.575  0.00  0.00    +0.000 OA
ATOM      8  C   UNL     1      99.214 129.318  84.021  0.00  0.00    +0.000 A 
ATOM      9  C   UNL     1      99.748 130.413  84.694  0.00  0.00    +0.000 A 
ATOM     10  C   UNL     1     101.130 130.568  84.816  0.00  0.00    +0.000 A 
ATOM     11  C   UNL     1     101.990 129.614  84.266  0.00  0.00    +0.000 A 
ATOM     12 CL   UNL     1      98.697 131.593  85.375  0.00  0.00    +0.000 Cl
ENDROOT
BRANCH   2  13
ATOM     13  C   UNL     1     102.864 125.400  82.282  0.00  0.00    +0.000 A 
ATOM     14  C   UNL     1     103.589 124.478  83.055  0.00  0.00    +0.000 A 
ATOM     15  C   UNL     1     104.574 123.678  82.471  0.00  0.00    +0.000 A 
ATOM     16  C   UNL     1     104.847 123.797  81.111  0.00  0.00    +0.000 A 
ATOM     17  C   UNL     1     104.144 124.711  80.330  0.00  0.00    +0.000 A 
ATOM     18  C   UNL     1     103.157 125.511  80.912  0.00  0.00    +0.000 A 
ATOM     19 CL   UNL     1     106.061 122.813  80.391  0.00  0.00    +0.000 Cl
ENDBRANCH   2  13
TORSDOF 1
ENDMDL
