MODEL 1
REMARK VINA RESULT:      -4.4      0.000      0.000
REMARK  Name = *****
REMARK  5 active torsions:
REMARK  status: ('A' for Active; 'I' for Inactive)
REMARK    1  A    between atoms: C_1  and  O_2
REMARK    2  A    between atoms: O_2  and  C_3
REMARK    3  A    between atoms: C_5  and  C_13
REMARK    4  A    between atoms: C_5  and  O_20
REMARK    5  A    between atoms: O_20  and  C_21
REMARK                            x       y       z     vdW  Elec       q    Type
REMARK                         _______ _______ _______ _____ _____    ______ ____
ROOT
ATOM      1  C   UNL     1      87.773  66.454  87.022  0.00  0.00    +0.000 C 
ATOM      2  C   UNL     1      86.991  65.466  87.882  0.00  0.00    +0.000 C 
ATOM      3  C   UNL     1      86.829  64.148  87.114  0.00  0.00    +0.000 C 
ATOM      4  O   UNL     1      88.118  63.566  86.840  0.00  0.00    +0.000 OA
ATOM      5  C   UNL     1      89.090  64.410  86.381  0.00  0.00    +0.000 A 
ATOM      6  C   UNL     1      90.225  63.795  85.849  0.00  0.00    +0.000 A 
ATOM      7  C   UNL     1      91.265  64.567  85.333  0.00  0.00    +0.000 A 
ATOM      8  C   UNL     1      91.171  65.956  85.349  0.00  0.00    +0.000 A 
ATOM      9  C   UNL     1      90.043  66.572  85.894  0.00  0.00    +0.000 A 
ATOM     10  C   UNL     1      89.001  65.803  86.436  0.00  0.00    +0.000 A 
ENDROOT
BRANCH   3  11
ATOM     11  C   UNL     1      86.023  63.194  88.018  0.00  0.00    +0.000 A 
ATOM     12  C   UNL     1      84.664  63.445  88.288  0.00  0.00    +0.000 A 
ATOM     13  C   UNL     1      83.928  62.602  89.125  0.00  0.00    +0.000 A 
ATOM     14  C   UNL     1      84.546  61.500  89.709  0.00  0.00    +0.000 A 
ATOM     15  C   UNL     1      85.891  61.236  89.467  0.00  0.00    +0.000 A 
ATOM     16  C   UNL     1      86.626  62.079  88.630  0.00  0.00    +0.000 A 
ATOM     17 BR   UNL     1      83.553  60.359  90.842  0.00  0.00    +0.000 Br
ENDBRANCH   3  11
BRANCH   1  19
ATOM     18  C   UNL     1      86.957  68.322  88.337  0.00  0.00    +0.000 C 
ATOM     19  O   UNL     1      88.057  67.690  87.697  0.00  0.00    +0.000 OA
ENDBRANCH   1  19
BRANCH   3  20
ATOM     20  O   UNL     1      86.083  64.419  85.911  0.00  0.00    +0.000 OA
ATOM     21  C   UNL     1      86.086  63.349  84.972  0.00  0.00    +0.000 C 
ENDBRANCH   3  20
TORSDOF 3
ENDMDL
