REMARK  Name = *****
REMARK  3 active torsions:
REMARK  status: ('A' for Active; 'I' for Inactive)
REMARK    1  A    between atoms: C_1  and  C_2
REMARK    2  A    between atoms: C_9  and  C_11
REMARK    3  A    between atoms: C_11  and  C_12
REMARK                            x       y       z     vdW  Elec       q    Type
REMARK                         _______ _______ _______ _____ _____    ______ ____
ROOT
ATOM      1  C   UNL     1       1.119  -0.084   0.063  0.00  0.00    +0.000 C 
ATOM      2  C   UNL     1       2.613   0.055   0.092  0.00  0.00    +0.000 A 
ATOM      3  C   UNL     1       3.214   1.284  -0.218  0.00  0.00    +0.000 A 
ATOM      4  C   UNL     1       4.596   1.365  -0.216  0.00  0.00    +0.000 A 
ATOM      5  C   UNL     1       5.374   0.256   0.062  0.00  0.00    +0.000 A 
ATOM      6  C   UNL     1       4.815  -0.971   0.348  0.00  0.00    +0.000 A 
ATOM      7  C   UNL     1       3.422  -1.070   0.361  0.00  0.00    +0.000 A 
ATOM      8  O   UNL     1       6.720   0.493   0.002  0.00  0.00    +0.000 OA
ATOM      9  C   UNL     1       6.838   1.940  -0.122  0.00  0.00    +0.000 C 
ATOM     10  C   UNL     1       5.473   2.507  -0.558  0.00  0.00    +0.000 C 
ENDROOT
BRANCH   9  11
ATOM     11  C   UNL     1       7.310   2.531   1.220  0.00  0.00    +0.000 C 
BRANCH  11  12
ATOM     12  C   UNL     1       8.779   2.275   1.474  0.00  0.00    +0.000 A 
ATOM     13  C   UNL     1       9.743   3.221   1.099  0.00  0.00    +0.000 A 
ATOM     14  C   UNL     1      11.099   2.972   1.318  0.00  0.00    +0.000 A 
ATOM     15  C   UNL     1      11.504   1.777   1.909  0.00  0.00    +0.000 A 
ATOM     16  C   UNL     1      10.554   0.828   2.280  0.00  0.00    +0.000 A 
ATOM     17  C   UNL     1       9.197   1.074   2.062  0.00  0.00    +0.000 A 
ENDBRANCH  11  12
ENDBRANCH   9  11
TORSDOF 2
