MODEL 1
REMARK VINA RESULT:      -4.7      0.000      0.000
REMARK  Name = *****
REMARK  1 active torsions:
REMARK  status: ('A' for Active; 'I' for Inactive)
REMARK    1  A    between atoms: C_2  and  C_11
REMARK                            x       y       z     vdW  Elec       q    Type
REMARK                         _______ _______ _______ _____ _____    ______ ____
ROOT
ATOM      1  C   UNL     1      86.998  70.644  84.875  0.00  0.00    +0.000 C 
ATOM      2  C   UNL     1      87.869  70.012  85.970  0.00  0.00    +0.000 C 
ATOM      3  C   UNL     1      89.337  70.033  85.527  0.00  0.00    +0.000 C 
ATOM      4  O   UNL     1      89.827  71.341  85.220  0.00  0.00    +0.000 OA
ATOM      5  C   UNL     1      89.031  72.058  84.369  0.00  0.00    +0.000 A 
ATOM      6  C   UNL     1      89.636  73.142  83.732  0.00  0.00    +0.000 A 
ATOM      7  C   UNL     1      88.898  73.944  82.863  0.00  0.00    +0.000 A 
ATOM      8  C   UNL     1      87.551  73.668  82.638  0.00  0.00    +0.000 A 
ATOM      9  C   UNL     1      86.941  72.593  83.289  0.00  0.00    +0.000 A 
ATOM     10  C   UNL     1      87.675  71.786  84.170  0.00  0.00    +0.000 A 
ENDROOT
BRANCH   2  11
ATOM     11  C   UNL     1      87.685  70.590  87.369  0.00  0.00    +0.000 A 
ATOM     12  C   UNL     1      88.664  70.489  88.370  0.00  0.00    +0.000 A 
ATOM     13  C   UNL     1      88.445  71.024  89.644  0.00  0.00    +0.000 A 
ATOM     14  C   UNL     1      87.243  71.662  89.932  0.00  0.00    +0.000 A 
ATOM     15  C   UNL     1      86.254  71.768  88.958  0.00  0.00    +0.000 A 
ATOM     16  C   UNL     1      86.474  71.232  87.686  0.00  0.00    +0.000 A 
ATOM     17 CL   UNL     1      86.975  72.320  91.499  0.00  0.00    +0.000 Cl
ENDBRANCH   2  11
TORSDOF 1
ENDMDL
