MODEL 1
REMARK VINA RESULT:      -4.8      0.000      0.000
REMARK  Name = *****
REMARK  1 active torsions:
REMARK  status: ('A' for Active; 'I' for Inactive)
REMARK    1  A    between atoms: C_3  and  C_12
REMARK                            x       y       z     vdW  Elec       q    Type
REMARK                         _______ _______ _______ _____ _____    ______ ____
ROOT
ATOM      1  C   UNL     1     104.786 127.281  83.278  0.00  0.00    +0.000 C 
ATOM      2  C   UNL     1     103.540 127.346  82.785  0.00  0.00    +0.000 C 
ATOM      3  C   UNL     1     102.972 126.527  81.633  0.00  0.00    +0.000 C 
ATOM      4  O   UNL     1     101.668 126.000  81.948  0.00  0.00    +0.000 OA
ATOM      5  C   UNL     1     100.844 126.951  82.481  0.00  0.00    +0.000 A 
ATOM      6  C   UNL     1      99.471 126.743  82.374  0.00  0.00    +0.000 A 
ATOM      7  C   UNL     1      98.584 127.683  82.903  0.00  0.00    +0.000 A 
ATOM      8  C   UNL     1      99.073 128.820  83.549  0.00  0.00    +0.000 A 
ATOM      9  C   UNL     1     100.450 129.016  83.673  0.00  0.00    +0.000 A 
ATOM     10  C   UNL     1     101.333 128.077  83.142  0.00  0.00    +0.000 A 
ATOM     11  O   UNL     1     102.673 128.286  83.341  0.00  0.00    +0.000 OA
ENDROOT
BRANCH   3  12
ATOM     12  C   UNL     1     103.839 125.363  81.171  0.00  0.00    +0.000 A 
ATOM     13  C   UNL     1     104.580 125.436  79.979  0.00  0.00    +0.000 A 
ATOM     14  C   UNL     1     105.352 124.354  79.553  0.00  0.00    +0.000 A 
ATOM     15  C   UNL     1     105.392 123.185  80.310  0.00  0.00    +0.000 A 
ATOM     16  C   UNL     1     104.660 123.094  81.492  0.00  0.00    +0.000 A 
ATOM     17  C   UNL     1     103.886 124.175  81.921  0.00  0.00    +0.000 A 
ENDBRANCH   3  12
TORSDOF 1
ENDMDL
