MODEL 1
REMARK VINA RESULT:      -5.3      0.000      0.000
REMARK  Name = *****
REMARK  2 active torsions:
REMARK  status: ('A' for Active; 'I' for Inactive)
REMARK    1  A    between atoms: C_4  and  C_7
REMARK    2  A    between atoms: C_7  and  C_19
REMARK                            x       y       z     vdW  Elec       q    Type
REMARK                         _______ _______ _______ _____ _____    ______ ____
ROOT
ATOM      1  C   UNL     1     101.562 126.523  83.088  0.00  0.00    +0.000 C 
ATOM      2  O   UNL     1     101.299 125.883  84.358  0.00  0.00    +0.000 OA
ATOM      3  C   UNL     1     100.095 126.211  84.899  0.00  0.00    +0.000 A 
ATOM      4  C   UNL     1      99.049 126.731  84.151  0.00  0.00    +0.000 A 
ATOM      5  C   UNL     1      97.832 127.055  84.762  0.00  0.00    +0.000 A 
ATOM      6  C   UNL     1      97.680 126.844  86.131  0.00  0.00    +0.000 A 
ATOM      7  C   UNL     1      98.723 126.307  86.884  0.00  0.00    +0.000 A 
ATOM      8  C   UNL     1      99.933 125.985  86.265  0.00  0.00    +0.000 A 
ATOM      9 CL   UNL     1      96.190 127.237  86.895  0.00  0.00    +0.000 Cl
ATOM     10  C   UNL     1      99.212 126.892  82.701  0.00  0.00    +0.000 C 
ATOM     11  O   UNL     1      98.300 127.272  81.985  0.00  0.00    +0.000 OA
ATOM     12  O   UNL     1     100.411 126.520  82.212  0.00  0.00    +0.000 OA
ENDROOT
BRANCH   1  16
ATOM     13  C   UNL     1     104.602 124.108  81.101  0.00  0.00    +0.000 A 
ATOM     14  C   UNL     1     104.411 123.997  82.475  0.00  0.00    +0.000 A 
ATOM     15  C   UNL     1     103.444 124.776  83.113  0.00  0.00    +0.000 A 
ATOM     16  C   UNL     1     102.651 125.688  82.389  0.00  0.00    +0.000 A 
ATOM     17  C   UNL     1     102.854 125.774  80.997  0.00  0.00    +0.000 A 
ATOM     18  C   UNL     1     103.824 124.994  80.362  0.00  0.00    +0.000 A 
ENDBRANCH   1  16
BRANCH   1  19
ATOM     19  C   UNL     1     102.102 127.979  83.295  0.00  0.00    +0.000 C 
ATOM     20  F   UNL     1     103.043 128.310  82.377  0.00  0.00    +0.000 F 
ATOM     21  F   UNL     1     101.119 128.909  83.225  0.00  0.00    +0.000 F 
ATOM     22  F   UNL     1     102.683 128.122  84.514  0.00  0.00    +0.000 F 
ENDBRANCH   1  19
TORSDOF 2
ENDMDL
