REMARK  Name = *****
REMARK  2 active torsions:
REMARK  status: ('A' for Active; 'I' for Inactive)
REMARK    1  A    between atoms: C_4  and  C_7
REMARK    2  A    between atoms: C_4  and  O_17
REMARK                            x       y       z     vdW  Elec       q    Type
REMARK                         _______ _______ _______ _____ _____    ______ ____
ROOT
ATOM      1  C   UNL     1       0.848  -0.759  -1.712  0.00  0.00    +0.000 C 
ATOM      2  C   UNL     1      -0.298  -1.603  -2.325  0.00  0.00    +0.000 C 
ATOM      3  C   UNL     1      -0.024  -2.927  -2.349  0.00  0.00    +0.000 C 
ATOM      4  C   UNL     1       1.206  -3.140  -1.552  0.00  0.00    +0.000 C 
ATOM      5  C   UNL     1       1.924  -1.825  -1.903  0.00  0.00    +0.000 C 
ATOM      6  C   UNL     1       3.343  -2.064  -1.354  0.00  0.00    +0.000 C 
ATOM      7  C   UNL     1       4.115  -2.729  -2.528  0.00  0.00    +0.000 C 
ATOM      8  C   UNL     1       3.320  -4.044  -2.744  0.00  0.00    +0.000 C 
ATOM      9  C   UNL     1       2.391  -4.112  -1.515  0.00  0.00    +0.000 C 
ATOM     10  C   UNL     1       3.223  -3.320  -0.471  0.00  0.00    +0.000 C 
ENDROOT
BRANCH   1  14
ATOM     11  C   UNL     1       0.334   2.817  -0.663  0.00  0.00    +0.000 C 
ATOM     12  C   UNL     1      -0.795   1.862  -1.040  0.00  0.00    +0.000 C 
ATOM     13  C   UNL     1      -0.748   0.588  -0.202  0.00  0.00    +0.000 C 
ATOM     14  C   UNL     1       0.608  -0.148  -0.297  0.00  0.00    +0.000 C 
ATOM     15  C   UNL     1       1.727   0.847   0.091  0.00  0.00    +0.000 C 
ATOM     16  C   UNL     1       1.702   2.144  -0.716  0.00  0.00    +0.000 C 
BRANCH  14  17
ATOM     17  O   UNL     1       0.617  -1.182   0.693  0.00  0.00    +0.000 OA
ATOM     18  H   UNL     1       0.467  -0.792   1.569  0.00  0.00    +0.000 HD
ENDBRANCH  14  17
ENDBRANCH   1  14
TORSDOF 2
