REMARK  Name = *****
REMARK  2 active torsions:
REMARK  status: ('A' for Active; 'I' for Inactive)
REMARK    1  A    between atoms: C_13  and  C_14
REMARK    2  A    between atoms: C_13  and  O_22
REMARK                            x       y       z     vdW  Elec       q    Type
REMARK                         _______ _______ _______ _____ _____    ______ ____
ROOT
ATOM      1  C   UNL     1      -3.057   0.961   0.052  0.00  0.00    +0.000 C 
ATOM      2  C   UNL     1      -3.002  -0.557   0.282  0.00  0.00    +0.000 C 
ATOM      3  N   UNL     1      -1.606  -0.827   0.019  0.00  0.00    +0.000 NA
ATOM      4  C   UNL     1      -0.923   0.363  -0.034  0.00  0.00    +0.000 C 
ATOM      5  N   UNL     1      -1.648   1.451   0.004  0.00  0.00    +0.000 NA
ATOM      6  C   UNL     1       0.554   0.381  -0.085  0.00  0.00    +0.000 A 
ATOM      7  C   UNL     1       1.262   1.581  -0.008  0.00  0.00    +0.000 A 
ATOM      8  C   UNL     1       2.656   1.559  -0.042  0.00  0.00    +0.000 A 
ATOM      9  C   UNL     1       3.334   0.343  -0.156  0.00  0.00    +0.000 A 
ATOM     10  C   UNL     1       2.623  -0.856  -0.237  0.00  0.00    +0.000 A 
ATOM     11  C   UNL     1       1.224  -0.848  -0.190  0.00  0.00    +0.000 A 
ATOM     12  C   UNL     1       0.433  -2.130  -0.332  0.00  0.00    +0.000 C 
ATOM     13  C   UNL     1      -0.971  -2.089   0.350  0.00  0.00    +0.000 C 
ATOM     14  H   UNL     1      -1.334   2.385   0.001  0.00  0.00    +0.000 HD
ENDROOT
BRANCH  13  15
ATOM     15  C   UNL     1      -0.859  -2.379   1.857  0.00  0.00    +0.000 A 
ATOM     16  C   UNL     1      -0.623  -3.677   2.367  0.00  0.00    +0.000 A 
ATOM     17  C   UNL     1      -0.509  -3.911   3.746  0.00  0.00    +0.000 A 
ATOM     18  C   UNL     1      -0.609  -2.858   4.644  0.00  0.00    +0.000 A 
ATOM     19  C   UNL     1      -0.813  -1.567   4.181  0.00  0.00    +0.000 A 
ATOM     20  C   UNL     1      -0.930  -1.333   2.807  0.00  0.00    +0.000 A 
ATOM     21 CL   UNL     1      -0.463  -3.151   6.332  0.00  0.00    +0.000 Cl
ATOM     22 CL   UNL     1      -0.412  -5.075   1.363  0.00  0.00    +0.000 Cl
ENDBRANCH  13  15
BRANCH  13  23
ATOM     23  O   UNL     1      -1.796  -3.067  -0.264  0.00  0.00    +0.000 OA
ATOM     24  H   UNL     1      -1.865  -2.882  -1.213  0.00  0.00    +0.000 HD
ENDBRANCH  13  23
TORSDOF 2
