MODEL 1
REMARK VINA RESULT:      -5.2      0.000      0.000
REMARK  Name = *****
REMARK  5 active torsions:
REMARK  status: ('A' for Active; 'I' for Inactive)
REMARK    1  A    between atoms: C_1  and  C_2
REMARK    2  A    between atoms: C_5  and  C_8
REMARK    3  A    between atoms: C_8  and  C_19
REMARK    4  A    between atoms: C_15  and  O_17
REMARK    5  A    between atoms: O_17  and  C_18
REMARK                            x       y       z     vdW  Elec       q    Type
REMARK                         _______ _______ _______ _____ _____    ______ ____
ROOT
ATOM      1  C   UNL     1      87.514  70.140  87.692  0.00  0.00    +0.000 C 
ATOM      2  C   UNL     1      88.653  70.126  86.636  0.00  0.00    +0.000 C 
ATOM      3  C   UNL     1      89.002  68.687  86.635  0.00  0.00    +0.000 A 
ATOM      4  C   UNL     1      88.052  67.979  87.343  0.00  0.00    +0.000 A 
ATOM      5  O   UNL     1      87.073  68.758  87.897  0.00  0.00    +0.000 OA
ATOM      6  C   UNL     1      88.103  66.606  87.457  0.00  0.00    +0.000 A 
ATOM      7  C   UNL     1      89.159  65.931  86.831  0.00  0.00    +0.000 A 
ATOM      8  C   UNL     1      90.130  66.640  86.103  0.00  0.00    +0.000 A 
ATOM      9  C   UNL     1      90.047  68.034  86.004  0.00  0.00    +0.000 A 
ATOM     10  C   UNL     1      88.023  70.625  89.064  0.00  0.00    +0.000 C 
ENDROOT
BRANCH   1  15
ATOM     11  C   UNL     1      83.038  73.455  85.861  0.00  0.00    +0.000 C 
ATOM     12  C   UNL     1      84.171  72.590  86.325  0.00  0.00    +0.000 A 
ATOM     13  C   UNL     1      84.345  72.326  87.686  0.00  0.00    +0.000 A 
ATOM     14  C   UNL     1      85.416  71.543  88.129  0.00  0.00    +0.000 A 
ATOM     15  C   UNL     1      86.348  71.014  87.222  0.00  0.00    +0.000 A 
ATOM     16  C   UNL     1      86.170  71.296  85.856  0.00  0.00    +0.000 A 
ATOM     17  C   UNL     1      85.100  72.079  85.415  0.00  0.00    +0.000 A 
ENDBRANCH   1  15
BRANCH   8  18
ATOM     18  O   UNL     1      91.196  66.088  85.446  0.00  0.00    +0.000 OA
ATOM     19  C   UNL     1      91.203  64.673  85.306  0.00  0.00    +0.000 C 
ENDBRANCH   8  18
TORSDOF 2
ENDMDL
