MODEL 1
REMARK VINA RESULT:      -4.6      0.000      0.000
REMARK  Name = *****
REMARK  3 active torsions:
REMARK  status: ('A' for Active; 'I' for Inactive)
REMARK    1  A    between atoms: C_8  and  C_10
REMARK    2  A    between atoms: C_10  and  O_11
REMARK    3  A    between atoms: O_11  and  C_12
REMARK                            x       y       z     vdW  Elec       q    Type
REMARK                         _______ _______ _______ _____ _____    ______ ____
ROOT
ATOM      1  C   UNL     1      84.660  72.348  86.775  0.00  0.00    +0.000 A 
ATOM      2  C   UNL     1      84.881  72.192  88.140  0.00  0.00    +0.000 A 
ATOM      3  C   UNL     1      85.990  71.481  88.610  0.00  0.00    +0.000 A 
ATOM      4  C   UNL     1      86.875  70.930  87.667  0.00  0.00    +0.000 A 
ATOM      5  C   UNL     1      86.674  71.075  86.294  0.00  0.00    +0.000 A 
ATOM      6  C   UNL     1      85.548  71.796  85.846  0.00  0.00    +0.000 A 
ATOM      7  N   UNL     1      87.630  70.481  85.487  0.00  0.00    +0.000 NA
ATOM      8  C   UNL     1      88.537  69.881  86.230  0.00  0.00    +0.000 A 
ATOM      9  S   UNL     1      88.314  70.023  87.930  0.00  0.00    +0.000 S 
ENDROOT
BRANCH   8  10
ATOM     10  C   UNL     1      89.731  69.156  85.682  0.00  0.00    +0.000 C 
BRANCH  10  11
ATOM     11  O   UNL     1      90.163  68.222  86.673  0.00  0.00    +0.000 OA
BRANCH  11  12
ATOM     12  C   UNL     1      90.038  66.894  86.373  0.00  0.00    +0.000 A 
ATOM     13  C   UNL     1      89.095  66.014  86.911  0.00  0.00    +0.000 A 
ATOM     14  C   UNL     1      89.083  64.673  86.512  0.00  0.00    +0.000 A 
ATOM     15  C   UNL     1      90.009  64.221  85.582  0.00  0.00    +0.000 A 
ATOM     16  C   UNL     1      90.953  65.083  85.040  0.00  0.00    +0.000 A 
ATOM     17  C   UNL     1      90.967  66.420  85.438  0.00  0.00    +0.000 A 
ATOM     18  F   UNL     1      89.992  62.936  85.203  0.00  0.00    +0.000 F 
ENDBRANCH  11  12
ENDBRANCH  10  11
ENDBRANCH   8  10
TORSDOF 3
ENDMDL
