MODEL 1
REMARK VINA RESULT:      -5.4      0.000      0.000
REMARK  Name = *****
REMARK  1 active torsions:
REMARK  status: ('A' for Active; 'I' for Inactive)
REMARK    1  A    between atoms: C_2  and  C_13
REMARK                            x       y       z     vdW  Elec       q    Type
REMARK                         _______ _______ _______ _____ _____    ______ ____
ROOT
ATOM      1  C   UNL     1     102.628 125.508  83.755  0.00  0.00    +0.000 C 
ATOM      2  C   UNL     1     101.903 125.906  82.476  0.00  0.00    +0.000 C 
ATOM      3  O   UNL     1     102.833 126.333  81.466  0.00  0.00    +0.000 OA
ATOM      4  C   UNL     1     103.791 125.395  81.187  0.00  0.00    +0.000 A 
ATOM      5  C   UNL     1     104.178 124.400  82.088  0.00  0.00    +0.000 A 
ATOM      6  C   UNL     1     103.562 124.378  83.430  0.00  0.00    +0.000 C 
ATOM      7  O   UNL     1     103.858 123.509  84.243  0.00  0.00    +0.000 OA
ATOM      8  C   UNL     1     105.160 123.470  81.739  0.00  0.00    +0.000 A 
ATOM      9  C   UNL     1     105.767 123.549  80.483  0.00  0.00    +0.000 A 
ATOM     10  C   UNL     1     105.394 124.559  79.595  0.00  0.00    +0.000 A 
ATOM     11  C   UNL     1     104.412 125.486  79.942  0.00  0.00    +0.000 A 
ATOM     12 CL   UNL     1     106.154 124.659  78.054  0.00  0.00    +0.000 Cl
ENDROOT
BRANCH   2  13
ATOM     13  C   UNL     1     100.921 127.030  82.751  0.00  0.00    +0.000 A 
ATOM     14  C   UNL     1     101.328 128.220  83.376  0.00  0.00    +0.000 A 
ATOM     15  C   UNL     1     100.406 129.233  83.646  0.00  0.00    +0.000 A 
ATOM     16  C   UNL     1      99.067 129.069  83.301  0.00  0.00    +0.000 A 
ATOM     17  C   UNL     1      98.647 127.891  82.686  0.00  0.00    +0.000 A 
ATOM     18  C   UNL     1      99.567 126.876  82.415  0.00  0.00    +0.000 A 
ENDBRANCH   2  13
TORSDOF 1
ENDMDL
