REMARK  Name = *****
REMARK  5 active torsions:
REMARK  status: ('A' for Active; 'I' for Inactive)
REMARK    1  A    between atoms: C_1  and  O_2
REMARK    2  A    between atoms: O_2  and  C_3
REMARK    3  A    between atoms: C_5  and  C_14
REMARK    4  A    between atoms: C_5  and  O_20
REMARK    5  A    between atoms: O_20  and  C_21
REMARK                            x       y       z     vdW  Elec       q    Type
REMARK                         _______ _______ _______ _____ _____    ______ ____
ROOT
ATOM      1  C   UNL     1       3.145  -1.240  -0.721  0.00  0.00    +0.000 C 
ATOM      2  C   UNL     1       2.092  -2.323  -0.900  0.00  0.00    +0.000 C 
ATOM      3  C   UNL     1       1.598  -2.884   0.446  0.00  0.00    +0.000 C 
ATOM      4  O   UNL     1       2.706  -3.409   1.206  0.00  0.00    +0.000 OA
ATOM      5  C   UNL     1       3.871  -2.696   1.204  0.00  0.00    +0.000 A 
ATOM      6  C   UNL     1       4.137  -1.640   0.333  0.00  0.00    +0.000 A 
ATOM      7  C   UNL     1       5.355  -0.948   0.452  0.00  0.00    +0.000 A 
ATOM      8  C   UNL     1       6.291  -1.331   1.412  0.00  0.00    +0.000 A 
ATOM      9  C   UNL     1       6.031  -2.404   2.259  0.00  0.00    +0.000 A 
ATOM     10  C   UNL     1       4.819  -3.087   2.153  0.00  0.00    +0.000 A 
ATOM     11 CL   UNL     1       7.779  -0.477   1.543  0.00  0.00    +0.000 Cl
ENDROOT
BRANCH   3  12
ATOM     12  C   UNL     1       0.726  -1.891   1.234  0.00  0.00    +0.000 A 
ATOM     13  C   UNL     1      -0.454  -1.376   0.661  0.00  0.00    +0.000 A 
ATOM     14  C   UNL     1      -1.266  -0.480   1.360  0.00  0.00    +0.000 A 
ATOM     15  C   UNL     1      -0.921  -0.087   2.650  0.00  0.00    +0.000 A 
ATOM     16  C   UNL     1       0.232  -0.594   3.242  0.00  0.00    +0.000 A 
ATOM     17  C   UNL     1       1.046  -1.490   2.543  0.00  0.00    +0.000 A 
ENDBRANCH   3  12
BRANCH   1  19
ATOM     18  C   UNL     1       2.099   0.780  -1.424  0.00  0.00    +0.000 C 
ATOM     19  O   UNL     1       2.586   0.013  -0.332  0.00  0.00    +0.000 OA
ENDBRANCH   1  19
BRANCH   3  20
ATOM     20  O   UNL     1       0.742  -3.992   0.048  0.00  0.00    +0.000 OA
ATOM     21  C   UNL     1       0.363  -4.852   1.115  0.00  0.00    +0.000 C 
ENDBRANCH   3  20
TORSDOF 3
