MODEL 1
REMARK VINA RESULT:      -5.5      0.000      0.000
REMARK  Name = *****
REMARK  3 active torsions:
REMARK  status: ('A' for Active; 'I' for Inactive)
REMARK    1  A    between atoms: C_10  and  C_11
REMARK    2  A    between atoms: C_11  and  C_12
REMARK    3  A    between atoms: C_11  and  O_19
REMARK                            x       y       z     vdW  Elec       q    Type
REMARK                         _______ _______ _______ _____ _____    ______ ____
ROOT
ATOM      1  C   UNL     1      84.116  72.403  88.561  0.00  0.00    +0.000 A 
ATOM      2  C   UNL     1      85.214  71.899  89.242  0.00  0.00    +0.000 A 
ATOM      3  C   UNL     1      86.329  71.447  88.529  0.00  0.00    +0.000 A 
ATOM      4  C   UNL     1      86.382  71.483  87.115  0.00  0.00    +0.000 A 
ATOM      5  C   UNL     1      85.246  72.005  86.440  0.00  0.00    +0.000 A 
ATOM      6  C   UNL     1      84.133  72.456  87.170  0.00  0.00    +0.000 A 
ATOM      7  C   UNL     1      85.228  72.073  85.041  0.00  0.00    +0.000 A 
ATOM      8  C   UNL     1      86.315  71.636  84.291  0.00  0.00    +0.000 A 
ATOM      9  C   UNL     1      87.434  71.121  84.935  0.00  0.00    +0.000 A 
ATOM     10  C   UNL     1      87.496  71.032  86.340  0.00  0.00    +0.000 A 
ENDROOT
BRANCH  10  11
ATOM     11  C   UNL     1      88.743  70.442  86.995  0.00  0.00    +0.000 C 
BRANCH  11  12
ATOM     12  C   UNL     1      88.833  68.922  86.958  0.00  0.00    +0.000 A 
ATOM     13  C   UNL     1      87.817  68.112  87.495  0.00  0.00    +0.000 A 
ATOM     14  C   UNL     1      87.905  66.720  87.422  0.00  0.00    +0.000 A 
ATOM     15  C   UNL     1      89.000  66.134  86.800  0.00  0.00    +0.000 A 
ATOM     16  C   UNL     1      90.007  66.912  86.245  0.00  0.00    +0.000 A 
ATOM     17  C   UNL     1      89.924  68.303  86.318  0.00  0.00    +0.000 A 
ATOM     18  F   UNL     1      89.081  64.799  86.727  0.00  0.00    +0.000 F 
ENDBRANCH  11  12
BRANCH  11  19
ATOM     19  O   UNL     1      89.941  70.974  86.417  0.00  0.00    +0.000 OA
ATOM     20  H   UNL     1      90.597  71.126  87.116  0.00  0.00    +0.000 HD
ENDBRANCH  11  19
ENDBRANCH  10  11
TORSDOF 3
ENDMDL
