MODEL 1
REMARK VINA RESULT:      -4.5      0.000      0.000
REMARK  Name = *****
REMARK  6 active torsions:
REMARK  status: ('A' for Active; 'I' for Inactive)
REMARK    1  A    between atoms: C_1  and  C_2
REMARK    2  A    between atoms: C_2  and  C_3
REMARK    3  A    between atoms: C_2  and  S_11
REMARK    4  A    between atoms: C_3  and  C_4
REMARK    5  A    between atoms: C_3  and  O_10
REMARK    6  A    between atoms: S_11  and  C_12
REMARK                            x       y       z     vdW  Elec       q    Type
REMARK                         _______ _______ _______ _____ _____    ______ ____
ROOT
ATOM      1  C   UNL     1     105.918 127.097  80.273  0.00  0.00    +0.000 C 
ATOM      2  C   UNL     1     104.906 126.026  80.690  0.00  0.00    +0.000 C 
ENDROOT
BRANCH   2   3
ATOM      3  C   UNL     1     103.449 126.483  80.426  0.00  0.00    +0.000 C 
BRANCH   3   4
ATOM      4  C   UNL     1     102.697 126.890  81.681  0.00  0.00    +0.000 A 
ATOM      5  C   UNL     1     102.982 128.101  82.334  0.00  0.00    +0.000 A 
ATOM      6  C   UNL     1     102.289 128.467  83.488  0.00  0.00    +0.000 A 
ATOM      7  C   UNL     1     101.303 127.630  84.003  0.00  0.00    +0.000 A 
ATOM      8  C   UNL     1     101.009 126.426  83.367  0.00  0.00    +0.000 A 
ATOM      9  C   UNL     1     101.701 126.057  82.211  0.00  0.00    +0.000 A 
ENDBRANCH   3   4
BRANCH   3  10
ATOM     10  O   UNL     1     103.441 127.602  79.527  0.00  0.00    +0.000 OA
ATOM     11  H   UNL     1     103.661 127.300  78.632  0.00  0.00    +0.000 HD
ENDBRANCH   3  10
ENDBRANCH   2   3
BRANCH   2  12
ATOM     12  S   UNL     1     105.287 124.480  79.749  0.00  0.00    +0.000 S 
BRANCH  12  13
ATOM     13  C   UNL     1     104.912 123.262  80.993  0.00  0.00    +0.000 A 
ATOM     14  C   UNL     1     104.849 121.904  80.665  0.00  0.00    +0.000 A 
ATOM     15  C   UNL     1     104.565 120.955  81.652  0.00  0.00    +0.000 A 
ATOM     16  C   UNL     1     104.354 121.366  82.966  0.00  0.00    +0.000 A 
ATOM     17  C   UNL     1     104.429 122.716  83.304  0.00  0.00    +0.000 A 
ATOM     18  C   UNL     1     104.713 123.664  82.317  0.00  0.00    +0.000 A 
ATOM     19 CL   UNL     1     104.004 120.200  84.181  0.00  0.00    +0.000 Cl
ENDBRANCH  12  13
ENDBRANCH   2  12
TORSDOF 5
ENDMDL
