MODEL 1
REMARK VINA RESULT:      -4.6      0.000      0.000
REMARK  Name = *****
REMARK  3 active torsions:
REMARK  status: ('A' for Active; 'I' for Inactive)
REMARK    1  A    between atoms: C_1  and  N_2
REMARK    2  A    between atoms: C_6  and  S_13
REMARK    3  A    between atoms: S_13  and  C_14
REMARK                            x       y       z     vdW  Elec       q    Type
REMARK                         _______ _______ _______ _____ _____    ______ ____
ROOT
ATOM      1  C   UNL     1      84.172  64.249  90.710  0.00  0.00    +0.000 C 
ATOM      2  N   UNL     1      85.217  63.753  89.827  0.00  0.00    +0.000 N 
ATOM      3  C   UNL     1      84.843  63.232  88.590  0.00  0.00    +0.000 C 
ATOM      4  O   UNL     1      83.680  63.199  88.186  0.00  0.00    +0.000 OA
ATOM      5  C   UNL     1      85.935  62.560  87.798  0.00  0.00    +0.000 C 
ATOM      6  C   UNL     1      87.235  63.342  87.845  0.00  0.00    +0.000 C 
ATOM      7  C   UNL     1      87.597  63.611  89.286  0.00  0.00    +0.000 A 
ATOM      8  C   UNL     1      88.948  63.700  89.666  0.00  0.00    +0.000 A 
ATOM      9  C   UNL     1      89.292  63.998  90.982  0.00  0.00    +0.000 A 
ATOM     10  C   UNL     1      88.293  64.221  91.923  0.00  0.00    +0.000 A 
ATOM     11  C   UNL     1      86.948  64.143  91.551  0.00  0.00    +0.000 A 
ATOM     12  C   UNL     1      86.583  63.830  90.233  0.00  0.00    +0.000 A 
ENDROOT
BRANCH   6  13
ATOM     13  S   UNL     1      87.158  64.933  86.912  0.00  0.00    +0.000 S 
BRANCH  13  14
ATOM     14  C   UNL     1      88.826  65.017  86.295  0.00  0.00    +0.000 A 
ATOM     15  C   UNL     1      89.480  66.250  86.239  0.00  0.00    +0.000 A 
ATOM     16  C   UNL     1      90.787  66.332  85.755  0.00  0.00    +0.000 A 
ATOM     17  C   UNL     1      91.449  65.179  85.334  0.00  0.00    +0.000 A 
ATOM     18  C   UNL     1      90.806  63.944  85.401  0.00  0.00    +0.000 A 
ATOM     19  C   UNL     1      89.498  63.862  85.882  0.00  0.00    +0.000 A 
ENDBRANCH  13  14
ENDBRANCH   6  13
TORSDOF 2
ENDMDL
