MODEL 1
REMARK VINA RESULT:      -5.2      0.000      0.000
REMARK  Name = *****
REMARK  2 active torsions:
REMARK  status: ('A' for Active; 'I' for Inactive)
REMARK    1  A    between atoms: C_2  and  C_10
REMARK    2  A    between atoms: C_10  and  C_12
REMARK                            x       y       z     vdW  Elec       q    Type
REMARK                         _______ _______ _______ _____ _____    ______ ____
ROOT
ATOM      1  C   UNL     1     102.671 127.686  83.510  0.00  0.00    +0.000 C 
ATOM      2  C   UNL     1     102.779 126.406  82.660  0.00  0.00    +0.000 C 
ATOM      3  O   UNL     1     101.451 125.857  82.486  0.00  0.00    +0.000 OA
ATOM      4  C   UNL     1     100.610 126.910  82.730  0.00  0.00    +0.000 A 
ATOM      5  C   UNL     1      99.256 126.899  82.471  0.00  0.00    +0.000 A 
ATOM      6  C   UNL     1      98.524 128.046  82.782  0.00  0.00    +0.000 A 
ATOM      7  C   UNL     1      99.159 129.164  83.351  0.00  0.00    +0.000 A 
ATOM      8  C   UNL     1     100.530 129.146  83.617  0.00  0.00    +0.000 A 
ATOM      9  C   UNL     1     101.242 128.005  83.291  0.00  0.00    +0.000 A 
ENDROOT
BRANCH   2  10
ATOM     10  C   UNL     1     103.459 126.652  81.303  0.00  0.00    +0.000 C 
ATOM     11  O   UNL     1     103.379 127.728  80.709  0.00  0.00    +0.000 OA
BRANCH  10  12
ATOM     12  C   UNL     1     104.313 125.582  80.704  0.00  0.00    +0.000 A 
ATOM     13  C   UNL     1     104.133 124.226  80.997  0.00  0.00    +0.000 A 
ATOM     14  C   UNL     1     104.973 123.276  80.414  0.00  0.00    +0.000 A 
ATOM     15  C   UNL     1     105.996 123.661  79.549  0.00  0.00    +0.000 A 
ATOM     16  C   UNL     1     106.186 125.011  79.262  0.00  0.00    +0.000 A 
ATOM     17  C   UNL     1     105.350 125.968  79.841  0.00  0.00    +0.000 A 
ATOM     18 CL   UNL     1     104.749 121.608  80.775  0.00  0.00    +0.000 Cl
ENDBRANCH  10  12
ENDBRANCH   2  10
TORSDOF 2
ENDMDL
