MODEL 1
REMARK VINA RESULT:      -5.3      0.000      0.000
REMARK  Name = *****
REMARK  3 active torsions:
REMARK  status: ('A' for Active; 'I' for Inactive)
REMARK    1  A    between atoms: C_6  and  C_7
REMARK    2  A    between atoms: C_7  and  C_8
REMARK    3  A    between atoms: C_7  and  O_18
REMARK                            x       y       z     vdW  Elec       q    Type
REMARK                         _______ _______ _______ _____ _____    ______ ____
ROOT
ATOM      1  C   UNL     1      88.130  70.694  87.435  0.00  0.00    +0.000 A 
ATOM      2  C   UNL     1      88.565  70.438  88.753  0.00  0.00    +0.000 A 
ATOM      3  C   UNL     1      87.775  70.766  89.848  0.00  0.00    +0.000 A 
ATOM      4  C   UNL     1      86.527  71.346  89.649  0.00  0.00    +0.000 A 
ATOM      5  C   UNL     1      86.043  71.588  88.355  0.00  0.00    +0.000 A 
ATOM      6  C   UNL     1      84.768  72.154  88.185  0.00  0.00    +0.000 A 
ATOM      7  C   UNL     1      84.250  72.390  86.914  0.00  0.00    +0.000 A 
ATOM      8  C   UNL     1      85.000  72.057  85.796  0.00  0.00    +0.000 A 
ATOM      9  C   UNL     1      86.271  71.497  85.948  0.00  0.00    +0.000 A 
ATOM     10  C   UNL     1      86.834  71.255  87.225  0.00  0.00    +0.000 A 
ENDROOT
BRANCH   1  11
ATOM     11  C   UNL     1      89.045  70.315  86.278  0.00  0.00    +0.000 C 
BRANCH  11  17
ATOM     12  C   UNL     1      90.382  66.630  85.967  0.00  0.00    +0.000 C 
ATOM     13  C   UNL     1      89.145  66.438  86.836  0.00  0.00    +0.000 C 
ATOM     14  C   UNL     1      88.385  67.683  86.477  0.00  0.00    +0.000 C 
ATOM     15  C   UNL     1      88.550  68.156  85.026  0.00  0.00    +0.000 C 
ATOM     16  C   UNL     1      90.037  67.938  85.315  0.00  0.00    +0.000 C 
ATOM     17  C   UNL     1      89.245  68.847  86.177  0.00  0.00    +0.000 C 
ENDBRANCH  11  17
BRANCH  11  18
ATOM     18  O   UNL     1      90.304  70.993  86.350  0.00  0.00    +0.000 OA
ATOM     19  H   UNL     1      90.621  71.182  85.453  0.00  0.00    +0.000 HD
ENDBRANCH  11  18
ENDBRANCH   1  11
TORSDOF 3
ENDMDL
