MODEL 1
REMARK VINA RESULT:      -5.2      0.000      0.000
REMARK  Name = *****
REMARK  1 active torsions:
REMARK  status: ('A' for Active; 'I' for Inactive)
REMARK    1  A    between atoms: C_2  and  C_12
REMARK                            x       y       z     vdW  Elec       q    Type
REMARK                         _______ _______ _______ _____ _____    ______ ____
ROOT
ATOM      1  C   UNL     1     102.607 125.517  83.687  0.00  0.00    +0.000 C 
ATOM      2  C   UNL     1     101.754 125.906  82.477  0.00  0.00    +0.000 C 
ATOM      3  O   UNL     1     102.601 126.231  81.359  0.00  0.00    +0.000 OA
ATOM      4  C   UNL     1     103.611 125.318  81.201  0.00  0.00    +0.000 A 
ATOM      5  C   UNL     1     103.970 124.392  82.189  0.00  0.00    +0.000 A 
ATOM      6  O   UNL     1     103.363 124.328  83.414  0.00  0.00    +0.000 OA
ATOM      7  C   UNL     1     104.985 123.469  81.944  0.00  0.00    +0.000 A 
ATOM      8  C   UNL     1     105.665 123.490  80.725  0.00  0.00    +0.000 A 
ATOM      9  C   UNL     1     105.322 124.434  79.757  0.00  0.00    +0.000 A 
ATOM     10  C   UNL     1     104.298 125.351  79.989  0.00  0.00    +0.000 A 
ATOM     11 CL   UNL     1     106.170 124.463  78.259  0.00  0.00    +0.000 Cl
ENDROOT
BRANCH   2  12
ATOM     12  C   UNL     1     100.860 127.087  82.801  0.00  0.00    +0.000 A 
ATOM     13  C   UNL     1     101.357 128.232  83.440  0.00  0.00    +0.000 A 
ATOM     14  C   UNL     1     100.510 129.296  83.757  0.00  0.00    +0.000 A 
ATOM     15  C   UNL     1      99.155 129.225  83.446  0.00  0.00    +0.000 A 
ATOM     16  C   UNL     1      98.644 128.092  82.817  0.00  0.00    +0.000 A 
ATOM     17  C   UNL     1      99.490 127.027  82.498  0.00  0.00    +0.000 A 
ENDBRANCH   2  12
TORSDOF 1
ENDMDL
