MODEL 1
REMARK VINA RESULT:      -4.8      0.000      0.000
REMARK  Name = *****
REMARK  3 active torsions:
REMARK  status: ('A' for Active; 'I' for Inactive)
REMARK    1  A    between atoms: C_4  and  C_7
REMARK    2  A    between atoms: C_7  and  O_8
REMARK    3  A    between atoms: O_8  and  C_9
REMARK                            x       y       z     vdW  Elec       q    Type
REMARK                         _______ _______ _______ _____ _____    ______ ____
ROOT
ATOM      1  C   UNL     1      88.744  68.540  86.938  0.00  0.00    +0.000 A 
ATOM      2  C   UNL     1      89.900  68.090  86.291  0.00  0.00    +0.000 A 
ATOM      3  C   UNL     1      90.063  66.730  86.081  0.00  0.00    +0.000 A 
ATOM      4  C   UNL     1      89.107  65.816  86.501  0.00  0.00    +0.000 A 
ATOM      5  C   UNL     1      87.958  66.243  87.145  0.00  0.00    +0.000 A 
ATOM      6  C   UNL     1      87.778  67.615  87.364  0.00  0.00    +0.000 A 
ATOM      7  S   UNL     1      89.590  64.183  86.098  0.00  0.00    +0.000 S 
ATOM      8  C   UNL     1      91.066  64.848  85.382  0.00  0.00    +0.000 A 
ATOM      9  O   UNL     1      91.913  64.129  84.869  0.00  0.00    +0.000 OA
ATOM     10  O   UNL     1      91.196  66.234  85.440  0.00  0.00    +0.000 OA
ENDROOT
BRANCH   1  11
ATOM     11  O   UNL     1      88.679  69.897  87.094  0.00  0.00    +0.000 OA
BRANCH  11  12
ATOM     12  C   UNL     1      88.065  70.649  86.051  0.00  0.00    +0.000 C 
BRANCH  12  16
ATOM     13  C   UNL     1      84.405  72.338  87.584  0.00  0.00    +0.000 A 
ATOM     14  C   UNL     1      84.628  72.293  86.210  0.00  0.00    +0.000 A 
ATOM     15  C   UNL     1      85.812  71.747  85.711  0.00  0.00    +0.000 A 
ATOM     16  C   UNL     1      86.779  71.229  86.584  0.00  0.00    +0.000 A 
ATOM     17  C   UNL     1      86.550  71.292  87.966  0.00  0.00    +0.000 A 
ATOM     18  C   UNL     1      85.365  71.840  88.462  0.00  0.00    +0.000 A 
ENDBRANCH  12  16
ENDBRANCH  11  12
ENDBRANCH   1  11
TORSDOF 3
ENDMDL
