MODEL 1
REMARK VINA RESULT:      -5.2      0.000      0.000
REMARK  Name = *****
REMARK  1 active torsions:
REMARK  status: ('A' for Active; 'I' for Inactive)
REMARK    1  A    between atoms: C_6  and  C_11
REMARK                            x       y       z     vdW  Elec       q    Type
REMARK                         _______ _______ _______ _____ _____    ______ ____
ROOT
ATOM      1  C   UNL     1      84.181  72.284  86.839  0.00  0.00    +0.000 A 
ATOM      2  C   UNL     1      84.883  71.859  87.899  0.00  0.00    +0.000 A 
ATOM      3  C   UNL     1      86.240  71.384  87.741  0.00  0.00    +0.000 A 
ATOM      4  C   UNL     1      87.033  71.059  88.769  0.00  0.00    +0.000 C 
ATOM      5  C   UNL     1      88.450  70.627  88.576  0.00  0.00    +0.000 C 
ATOM      6  C   UNL     1      88.799  70.168  87.137  0.00  0.00    +0.000 C 
ATOM      7  N   UNL     1      87.982  70.775  86.061  0.00  0.00    +0.000 NA
ATOM      8  C   UNL     1      86.842  71.291  86.368  0.00  0.00    +0.000 A 
ATOM      9  C   UNL     1      85.995  71.838  85.271  0.00  0.00    +0.000 A 
ATOM     10  C   UNL     1      84.757  72.290  85.515  0.00  0.00    +0.000 A 
ATOM     11  F   UNL     1      89.264  71.676  88.906  0.00  0.00    +0.000 F 
ENDROOT
BRANCH   6  12
ATOM     12  C   UNL     1      88.814  68.647  87.030  0.00  0.00    +0.000 A 
ATOM     13  C   UNL     1      89.905  68.001  86.423  0.00  0.00    +0.000 A 
ATOM     14  C   UNL     1      89.951  66.607  86.338  0.00  0.00    +0.000 A 
ATOM     15  C   UNL     1      88.908  65.846  86.861  0.00  0.00    +0.000 A 
ATOM     16  C   UNL     1      87.820  66.468  87.468  0.00  0.00    +0.000 A 
ATOM     17  C   UNL     1      87.774  67.862  87.554  0.00  0.00    +0.000 A 
ATOM     18 CL   UNL     1      88.965  64.129  86.757  0.00  0.00    +0.000 Cl
ENDBRANCH   6  12
TORSDOF 1
ENDMDL
