MODEL 1
REMARK VINA RESULT:      -4.8      0.000      0.000
REMARK  Name = *****
REMARK  3 active torsions:
REMARK  status: ('A' for Active; 'I' for Inactive)
REMARK    1  A    between atoms: C_1  and  O_2
REMARK    2  A    between atoms: O_2  and  C_3
REMARK    3  A    between atoms: C_6  and  C_9
REMARK                            x       y       z     vdW  Elec       q    Type
REMARK                         _______ _______ _______ _____ _____    ______ ____
ROOT
ATOM      1  C   UNL     1     102.941 125.880  82.983  0.00  0.00    +0.000 C 
ATOM      2  C   UNL     1     103.754 127.158  82.779  0.00  0.00    +0.000 C 
ATOM      3  S   UNL     1     102.977 128.520  83.693  0.00  0.00    +0.000 S 
ATOM      4  C   UNL     1     101.274 128.156  83.306  0.00  0.00    +0.000 A 
ATOM      5  C   UNL     1     100.313 129.120  83.639  0.00  0.00    +0.000 A 
ATOM      6  C   UNL     1      98.965 128.919  83.336  0.00  0.00    +0.000 A 
ATOM      7  C   UNL     1      98.564 127.752  82.692  0.00  0.00    +0.000 A 
ATOM      8  C   UNL     1      99.511 126.784  82.359  0.00  0.00    +0.000 A 
ATOM      9  C   UNL     1     100.860 126.973  82.677  0.00  0.00    +0.000 A 
ATOM     10  O   UNL     1     101.683 125.944  82.294  0.00  0.00    +0.000 OA
ENDROOT
BRANCH   1  14
ATOM     11  C   UNL     1     105.075 122.451  81.386  0.00  0.00    +0.000 A 
ATOM     12  C   UNL     1     104.671 123.487  80.546  0.00  0.00    +0.000 A 
ATOM     13  C   UNL     1     103.992 124.595  81.067  0.00  0.00    +0.000 A 
ATOM     14  C   UNL     1     103.709 124.685  82.437  0.00  0.00    +0.000 A 
ATOM     15  C   UNL     1     104.118 123.637  83.276  0.00  0.00    +0.000 A 
ATOM     16  C   UNL     1     104.795 122.534  82.751  0.00  0.00    +0.000 A 
BRANCH  11  18
ATOM     17  C   UNL     1     107.159 121.356  81.057  0.00  0.00    +0.000 C 
ATOM     18  O   UNL     1     105.739 121.317  81.006  0.00  0.00    +0.000 OA
ENDBRANCH  11  18
ENDBRANCH   1  14
TORSDOF 2
ENDMDL
