MODEL 1
REMARK VINA RESULT:      -4.6      0.000      0.000
REMARK  Name = *****
REMARK  1 active torsions:
REMARK  status: ('A' for Active; 'I' for Inactive)
REMARK    1  A    between atoms: C_2  and  C_12
REMARK                            x       y       z     vdW  Elec       q    Type
REMARK                         _______ _______ _______ _____ _____    ______ ____
ROOT
ATOM      1  C   UNL     1      88.702  65.973  85.639  0.00  0.00    +0.000 C 
ATOM      2  C   UNL     1      87.324  65.992  86.292  0.00  0.00    +0.000 C 
ATOM      3  O   UNL     1      86.719  67.294  86.159  0.00  0.00    +0.000 OA
ATOM      4  C   UNL     1      87.502  68.326  86.605  0.00  0.00    +0.000 A 
ATOM      5  C   UNL     1      86.843  69.505  86.951  0.00  0.00    +0.000 A 
ATOM      6  C   UNL     1      87.571  70.597  87.428  0.00  0.00    +0.000 A 
ATOM      7  C   UNL     1      88.960  70.516  87.549  0.00  0.00    +0.000 A 
ATOM      8  C   UNL     1      89.625  69.346  87.185  0.00  0.00    +0.000 A 
ATOM      9  C   UNL     1      88.891  68.256  86.706  0.00  0.00    +0.000 A 
ATOM     10  C   UNL     1      89.572  67.027  86.264  0.00  0.00    +0.000 C 
ATOM     11  O   UNL     1      90.789  66.904  86.352  0.00  0.00    +0.000 OA
ENDROOT
BRANCH   2  12
ATOM     12  C   UNL     1      87.186  65.487  87.727  0.00  0.00    +0.000 A 
ATOM     13  C   UNL     1      85.935  65.605  88.365  0.00  0.00    +0.000 A 
ATOM     14  C   UNL     1      85.750  65.153  89.673  0.00  0.00    +0.000 A 
ATOM     15  C   UNL     1      86.797  64.565  90.373  0.00  0.00    +0.000 A 
ATOM     16  C   UNL     1      88.033  64.432  89.750  0.00  0.00    +0.000 A 
ATOM     17  C   UNL     1      88.233  64.882  88.441  0.00  0.00    +0.000 A 
ATOM     18 CL   UNL     1      89.337  63.699  90.603  0.00  0.00    +0.000 Cl
ATOM     19 CL   UNL     1      84.210  65.322  90.422  0.00  0.00    +0.000 Cl
ENDBRANCH   2  12
TORSDOF 1
ENDMDL
