REMARK  Name = *****
REMARK  2 active torsions:
REMARK  status: ('A' for Active; 'I' for Inactive)
REMARK    1  A    between atoms: N_5  and  S_8
REMARK    2  A    between atoms: S_8  and  C_9
REMARK                            x       y       z     vdW  Elec       q    Type
REMARK                         _______ _______ _______ _____ _____    ______ ____
ROOT
ATOM      1  C   UNL     1       2.964  -2.143   1.739  0.00  0.00    +0.000 A 
ATOM      2  N   UNL     1       2.121  -1.989   2.736  0.00  0.00    +0.000 NA
ATOM      3  C   UNL     1       2.765  -2.231   3.935  0.00  0.00    +0.000 A 
ATOM      4  C   UNL     1       2.180  -2.158   5.215  0.00  0.00    +0.000 A 
ATOM      5  C   UNL     1       2.954  -2.421   6.350  0.00  0.00    +0.000 A 
ATOM      6  C   UNL     1       4.299  -2.755   6.223  0.00  0.00    +0.000 A 
ATOM      7  C   UNL     1       4.902  -2.837   4.965  0.00  0.00    +0.000 A 
ATOM      8  C   UNL     1       4.115  -2.572   3.831  0.00  0.00    +0.000 A 
ATOM      9  S   UNL     1       4.559  -2.597   2.168  0.00  0.00    +0.000 S 
ENDROOT
BRANCH   1  10
ATOM     10  S   UNL     1       2.494  -1.904   0.052  0.00  0.00    +0.000 S 
BRANCH  10  15
ATOM     11  C   UNL     1      -0.687   1.375  -0.661  0.00  0.00    +0.000 C 
ATOM     12  C   UNL     1      -1.739   0.293  -0.441  0.00  0.00    +0.000 C 
ATOM     13  C   UNL     1      -1.198  -1.131  -0.375  0.00  0.00    +0.000 C 
ATOM     14  C   UNL     1      -0.102  -1.362   0.667  0.00  0.00    +0.000 C 
ATOM     15  N   UNL     1       1.194  -0.858   0.201  0.00  0.00    +0.000 NA
ATOM     16  C   UNL     1       1.450   0.555   0.501  0.00  0.00    +0.000 C 
ATOM     17  C   UNL     1       0.259   1.518   0.527  0.00  0.00    +0.000 C 
ENDBRANCH  10  15
ENDBRANCH   1  10
TORSDOF 2
