MODEL 1
REMARK VINA RESULT:      -4.6      0.000      0.000
REMARK  Name = *****
REMARK  4 active torsions:
REMARK  status: ('A' for Active; 'I' for Inactive)
REMARK    1  A    between atoms: C_1  and  C_2
REMARK    2  A    between atoms: C_2  and  O_4
REMARK    3  A    between atoms: O_4  and  C_5
REMARK    4  A    between atoms: C_5  and  C_15
REMARK                            x       y       z     vdW  Elec       q    Type
REMARK                         _______ _______ _______ _____ _____    ______ ____
ROOT
ATOM      1  C   UNL     1      96.743 116.933  79.859  0.00  0.00    +0.000 C 
ATOM      2  C   UNL     1      97.795 116.680  78.759  0.00  0.00    +0.000 C 
ATOM      3  C   UNL     1      97.149 115.997  77.560  0.00  0.00    +0.000 C 
ATOM      4  C   UNL     1      96.251 114.883  78.004  0.00  0.00    +0.000 A 
ATOM      5  C   UNL     1      95.797 113.933  77.079  0.00  0.00    +0.000 A 
ATOM      6  C   UNL     1      94.957 112.896  77.487  0.00  0.00    +0.000 A 
ATOM      7  C   UNL     1      94.561 112.802  78.819  0.00  0.00    +0.000 A 
ATOM      8  C   UNL     1      95.001 113.749  79.742  0.00  0.00    +0.000 A 
ATOM      9  C   UNL     1      95.831 114.793  79.333  0.00  0.00    +0.000 A 
ATOM     10  O   UNL     1      96.216 115.671  80.308  0.00  0.00    +0.000 OA
ENDROOT
BRANCH   1  11
ATOM     11  C   UNL     1      97.457 117.663  81.010  0.00  0.00    +0.000 A 
ATOM     12  C   UNL     1      98.163 118.858  80.793  0.00  0.00    +0.000 A 
ATOM     13  C   UNL     1      98.789 119.523  81.850  0.00  0.00    +0.000 A 
ATOM     14  C   UNL     1      98.717 119.008  83.142  0.00  0.00    +0.000 A 
ATOM     15  C   UNL     1      98.020 117.827  83.380  0.00  0.00    +0.000 A 
ATOM     16  C   UNL     1      97.395 117.160  82.324  0.00  0.00    +0.000 A 
ENDBRANCH   1  11
BRANCH   1  17
ATOM     17  O   UNL     1      95.724 117.791  79.290  0.00  0.00    +0.000 OA
BRANCH  17  19
ATOM     18  C   UNL     1      93.437 117.406  79.057  0.00  0.00    +0.000 C 
ATOM     19  C   UNL     1      94.542 117.882  79.953  0.00  0.00    +0.000 C 
ATOM     20  O   UNL     1      94.363 118.285  81.092  0.00  0.00    +0.000 OA
ENDBRANCH  17  19
ENDBRANCH   1  17
TORSDOF 3
ENDMDL
