MODEL 1
REMARK VINA RESULT:      -5.4      0.000      0.000
REMARK  Name = *****
REMARK  5 active torsions:
REMARK  status: ('A' for Active; 'I' for Inactive)
REMARK    1  A    between atoms: C_1  and  C_2
REMARK    2  A    between atoms: C_4  and  C_8
REMARK    3  A    between atoms: C_8  and  O_21
REMARK    4  A    between atoms: C_9  and  C_19
REMARK    5  A    between atoms: C_9  and  C_20
REMARK                            x       y       z     vdW  Elec       q    Type
REMARK                         _______ _______ _______ _____ _____    ______ ____
ROOT
ATOM      1  C   UNL     1      89.658  71.886  84.061  0.00  0.00    +0.000 C 
ATOM      2  C   UNL     1      90.368  71.252  82.828  0.00  0.00    +0.000 C 
ATOM      3  C   UNL     1      90.002  69.778  82.788  0.00  0.00    +0.000 C 
ATOM      4  O   UNL     1      89.892  69.140  81.745  0.00  0.00    +0.000 OA
ATOM      5  C   UNL     1      89.838  69.099  84.090  0.00  0.00    +0.000 A 
ATOM      6  C   UNL     1      89.661  67.713  84.152  0.00  0.00    +0.000 A 
ATOM      7  C   UNL     1      89.550  67.086  85.393  0.00  0.00    +0.000 A 
ATOM      8  C   UNL     1      89.620  67.840  86.565  0.00  0.00    +0.000 A 
ATOM      9  C   UNL     1      89.792  69.225  86.498  0.00  0.00    +0.000 A 
ATOM     10  C   UNL     1      89.886  69.857  85.259  0.00  0.00    +0.000 A 
ATOM     11  O   UNL     1      90.049  71.215  85.278  0.00  0.00    +0.000 OA
ATOM     12  C   UNL     1      90.010  71.958  81.505  0.00  0.00    +0.000 C 
ATOM     13  C   UNL     1      91.912  71.309  82.959  0.00  0.00    +0.000 C 
ENDROOT
BRANCH   1  17
ATOM     14  C   UNL     1      85.085  71.364  86.312  0.00  0.00    +0.000 C 
ATOM     15  C   UNL     1      85.919  71.819  85.149  0.00  0.00    +0.000 A 
ATOM     16  C   UNL     1      87.310  71.615  85.158  0.00  0.00    +0.000 A 
ATOM     17  C   UNL     1      88.129  72.046  84.097  0.00  0.00    +0.000 A 
ATOM     18  C   UNL     1      87.495  72.727  83.037  0.00  0.00    +0.000 A 
ATOM     19  C   UNL     1      86.116  72.950  83.025  0.00  0.00    +0.000 A 
ATOM     20  C   UNL     1      85.331  72.498  84.080  0.00  0.00    +0.000 A 
ENDBRANCH   1  17
BRANCH   1  21
ATOM     21  O   UNL     1      90.176  73.222  84.191  0.00  0.00    +0.000 OA
ATOM     22  H   UNL     1      91.097  73.243  83.883  0.00  0.00    +0.000 HD
ENDBRANCH   1  21
TORSDOF 2
ENDMDL
