REMARK  Name = *****
REMARK  4 active torsions:
REMARK  status: ('A' for Active; 'I' for Inactive)
REMARK    1  A    between atoms: C_1  and  C_2
REMARK    2  A    between atoms: C_9  and  C_19
REMARK    3  A    between atoms: C_10  and  C_11
REMARK    4  A    between atoms: C_10  and  O_12
REMARK                            x       y       z     vdW  Elec       q    Type
REMARK                         _______ _______ _______ _____ _____    ______ ____
ROOT
ATOM      1  C   UNL     1       1.014  -0.044   0.041  0.00  0.00    +0.000 C 
ATOM      2  C   UNL     1       2.524  -0.019   0.141  0.00  0.00    +0.000 C 
ATOM      3  C   UNL     1       3.197  -1.238   0.788  0.00  0.00    +0.000 A 
ATOM      4  C   UNL     1       2.710  -2.210   1.637  0.00  0.00    +0.000 A 
ATOM      5  C   UNL     1       3.601  -3.199   2.062  0.00  0.00    +0.000 A 
ATOM      6  C   UNL     1       4.948  -3.198   1.646  0.00  0.00    +0.000 A 
ATOM      7  C   UNL     1       5.441  -2.207   0.792  0.00  0.00    +0.000 A 
ATOM      8  C   UNL     1       4.557  -1.236   0.368  0.00  0.00    +0.000 A 
ATOM      9  C   UNL     1       4.745  -0.017  -0.546  0.00  0.00    +0.000 C 
ATOM     10  C   UNL     1       3.317  -0.033  -1.230  0.00  0.00    +0.000 C 
ATOM     11  C   UNL     1       3.021   1.138  -2.183  0.00  0.00    +0.000 C 
ATOM     12  C   UNL     1       4.548   1.215   0.344  0.00  0.00    +0.000 A 
ATOM     13  C   UNL     1       5.426   2.195   0.758  0.00  0.00    +0.000 A 
ATOM     14  C   UNL     1       4.926   3.191   1.600  0.00  0.00    +0.000 A 
ATOM     15  C   UNL     1       3.579   3.190   2.017  0.00  0.00    +0.000 A 
ATOM     16  C   UNL     1       2.693   2.191   1.603  0.00  0.00    +0.000 A 
ATOM     17  C   UNL     1       3.186   1.213   0.765  0.00  0.00    +0.000 A 
ATOM     18  C   UNL     1       5.935  -0.039  -1.481  0.00  0.00    +0.000 C 
ENDROOT
BRANCH  10  19
ATOM     19  O   UNL     1       3.067  -1.201  -2.042  0.00  0.00    +0.000 OA
ATOM     20  H   UNL     1       3.230  -2.000  -1.518  0.00  0.00    +0.000 HD
ENDBRANCH  10  19
TORSDOF 1
