MODEL 1
REMARK VINA RESULT:      -4.1      0.000      0.000
REMARK  Name = *****
REMARK  3 active torsions:
REMARK  status: ('A' for Active; 'I' for Inactive)
REMARK    1  A    between atoms: C_8  and  C_10
REMARK    2  A    between atoms: C_10  and  S_11
REMARK    3  A    between atoms: S_11  and  C_12
REMARK                            x       y       z     vdW  Elec       q    Type
REMARK                         _______ _______ _______ _____ _____    ______ ____
ROOT
ATOM      1  C   UNL     1      99.032 128.788  83.577  0.00  0.00    +0.000 A 
ATOM      2  C   UNL     1      98.581 127.631  82.936  0.00  0.00    +0.000 A 
ATOM      3  C   UNL     1      99.478 126.723  82.368  0.00  0.00    +0.000 A 
ATOM      4  C   UNL     1     100.832 127.034  82.478  0.00  0.00    +0.000 A 
ATOM      5  C   UNL     1     101.321 128.172  83.107  0.00  0.00    +0.000 A 
ATOM      6  C   UNL     1     100.402 129.074  83.673  0.00  0.00    +0.000 A 
ATOM      7  C   UNL     1     102.733 128.099  82.994  0.00  0.00    +0.000 A 
ATOM      8  C   UNL     1     103.016 126.930  82.313  0.00  0.00    +0.000 A 
ATOM      9  O   UNL     1     101.858 126.283  81.993  0.00  0.00    +0.000 OA
ENDROOT
BRANCH   8  10
ATOM     10  C   UNL     1     104.279 126.289  81.870  0.00  0.00    +0.000 C 
BRANCH  10  11
ATOM     11  S   UNL     1     103.952 125.062  80.567  0.00  0.00    +0.000 S 
BRANCH  11  12
ATOM     12  C   UNL     1     104.384 123.582  81.407  0.00  0.00    +0.000 A 
ATOM     13  C   UNL     1     104.309 123.391  82.769  0.00  0.00    +0.000 A 
ATOM     14  C   UNL     1     104.740 122.089  83.158  0.00  0.00    +0.000 A 
ATOM     15  C   UNL     1     105.141 121.336  82.077  0.00  0.00    +0.000 A 
ATOM     16  S   UNL     1     104.999 122.200  80.608  0.00  0.00    +0.000 S 
ENDBRANCH  11  12
ENDBRANCH  10  11
ENDBRANCH   8  10
TORSDOF 3
ENDMDL
