MODEL 1
REMARK VINA RESULT:      -4.8      0.000      0.000
REMARK  Name = *****
REMARK  1 active torsions:
REMARK  status: ('A' for Active; 'I' for Inactive)
REMARK    1  A    between atoms: C_2  and  C_13
REMARK                            x       y       z     vdW  Elec       q    Type
REMARK                         _______ _______ _______ _____ _____    ______ ____
ROOT
ATOM      1  C   UNL     1     102.867 125.306  82.482  0.00  0.00    +0.000 C 
ATOM      2  C   UNL     1     102.435 126.342  83.515  0.00  0.00    +0.000 C 
ATOM      3  O   UNL     1     103.512 127.268  83.772  0.00  0.00    +0.000 OA
ATOM      4  C   UNL     1     104.016 127.867  82.649  0.00  0.00    +0.000 A 
ATOM      5  C   UNL     1     103.915 127.321  81.370  0.00  0.00    +0.000 A 
ATOM      6  C   UNL     1     103.281 125.999  81.215  0.00  0.00    +0.000 C 
ATOM      7  O   UNL     1     103.166 125.477  80.111  0.00  0.00    +0.000 OA
ATOM      8  C   UNL     1     104.439 127.992  80.263  0.00  0.00    +0.000 A 
ATOM      9  C   UNL     1     105.082 129.213  80.453  0.00  0.00    +0.000 A 
ATOM     10  C   UNL     1     105.208 129.758  81.732  0.00  0.00    +0.000 A 
ATOM     11  C   UNL     1     104.678 129.080  82.834  0.00  0.00    +0.000 A 
ATOM     12 CL   UNL     1     105.738 130.054  79.102  0.00  0.00    +0.000 Cl
ENDROOT
BRANCH   2  13
ATOM     13  C   UNL     1     101.123 127.089  83.291  0.00  0.00    +0.000 A 
ATOM     14  C   UNL     1     100.050 126.561  82.556  0.00  0.00    +0.000 A 
ATOM     15  C   UNL     1      98.865 127.288  82.397  0.00  0.00    +0.000 A 
ATOM     16  C   UNL     1      98.731 128.548  82.975  0.00  0.00    +0.000 A 
ATOM     17  C   UNL     1      99.778 129.083  83.717  0.00  0.00    +0.000 A 
ATOM     18  C   UNL     1     100.960 128.359  83.877  0.00  0.00    +0.000 A 
ENDBRANCH   2  13
TORSDOF 1
ENDMDL
