REMARK  Name = *****
REMARK  6 active torsions:
REMARK  status: ('A' for Active; 'I' for Inactive)
REMARK    1  A    between atoms: C_1  and  C_2
REMARK    2  A    between atoms: C_3  and  C_12
REMARK    3  A    between atoms: C_3  and  O_20
REMARK    4  A    between atoms: C_14  and  O_18
REMARK    5  A    between atoms: O_18  and  C_19
REMARK    6  A    between atoms: O_20  and  C_21
REMARK                            x       y       z     vdW  Elec       q    Type
REMARK                         _______ _______ _______ _____ _____    ______ ____
ROOT
ATOM      1  C   UNL     1       1.137   0.375   0.308  0.00  0.00    +0.000 C 
ATOM      2  C   UNL     1       2.651   0.179   0.252  0.00  0.00    +0.000 C 
ATOM      3  C   UNL     1       3.211  -0.973   1.150  0.00  0.00    +0.000 C 
ATOM      4  O   UNL     1       4.650  -1.047   1.009  0.00  0.00    +0.000 OA
ATOM      5  C   UNL     1       5.284   0.129   0.716  0.00  0.00    +0.000 A 
ATOM      6  C   UNL     1       6.677   0.085   0.665  0.00  0.00    +0.000 A 
ATOM      7  C   UNL     1       7.405   1.253   0.432  0.00  0.00    +0.000 A 
ATOM      8  C   UNL     1       6.739   2.466   0.257  0.00  0.00    +0.000 A 
ATOM      9  C   UNL     1       5.345   2.510   0.303  0.00  0.00    +0.000 A 
ATOM     10  C   UNL     1       4.621   1.339   0.516  0.00  0.00    +0.000 A 
ATOM     11  O   UNL     1       3.259   1.449   0.543  0.00  0.00    +0.000 OA
ENDROOT
BRANCH   3  12
ATOM     12  C   UNL     1       2.795  -0.843   2.630  0.00  0.00    +0.000 A 
ATOM     13  C   UNL     1       1.558  -1.356   3.075  0.00  0.00    +0.000 A 
ATOM     14  C   UNL     1       1.144  -1.249   4.407  0.00  0.00    +0.000 A 
ATOM     15  C   UNL     1       1.972  -0.615   5.328  0.00  0.00    +0.000 A 
ATOM     16  C   UNL     1       3.201  -0.097   4.916  0.00  0.00    +0.000 A 
ATOM     17  C   UNL     1       3.607  -0.210   3.584  0.00  0.00    +0.000 A 
BRANCH  14  18
ATOM     18  O   UNL     1      -0.080  -1.800   4.670  0.00  0.00    +0.000 OA
ATOM     19  C   UNL     1      -0.545  -1.721   6.011  0.00  0.00    +0.000 C 
ENDBRANCH  14  18
ENDBRANCH   3  12
BRANCH   3  20
ATOM     20  O   UNL     1       2.637  -2.192   0.601  0.00  0.00    +0.000 OA
ATOM     21  C   UNL     1       3.307  -3.382   0.999  0.00  0.00    +0.000 C 
ENDBRANCH   3  20
TORSDOF 3
