MODEL 1
REMARK VINA RESULT:      -4.7      0.000      0.000
REMARK  Name = *****
REMARK  5 active torsions:
REMARK  status: ('A' for Active; 'I' for Inactive)
REMARK    1  A    between atoms: C_1  and  O_2
REMARK    2  A    between atoms: O_2  and  C_3
REMARK    3  A    between atoms: C_12  and  C_13
REMARK    4  A    between atoms: C_12  and  O_19
REMARK    5  A    between atoms: O_19  and  C_20
REMARK                            x       y       z     vdW  Elec       q    Type
REMARK                         _______ _______ _______ _____ _____    ______ ____
ROOT
ATOM      1  C   UNL     1     102.880 125.938  84.204  0.00  0.00    +0.000 C 
ATOM      2  C   UNL     1     103.447 124.731  84.043  0.00  0.00    +0.000 C 
ATOM      3  C   UNL     1     103.927 124.351  82.723  0.00  0.00    +0.000 A 
ATOM      4  C   UNL     1     104.631 123.154  82.535  0.00  0.00    +0.000 A 
ATOM      5  C   UNL     1     105.071 122.788  81.261  0.00  0.00    +0.000 A 
ATOM      6  C   UNL     1     104.804 123.610  80.169  0.00  0.00    +0.000 A 
ATOM      7  C   UNL     1     104.101 124.800  80.353  0.00  0.00    +0.000 A 
ATOM      8  C   UNL     1     103.671 125.172  81.629  0.00  0.00    +0.000 A 
ATOM      9  O   UNL     1     102.971 126.338  81.708  0.00  0.00    +0.000 OA
ATOM     10  C   UNL     1     102.710 126.912  83.013  0.00  0.00    +0.000 C 
ENDROOT
BRANCH  10  11
ATOM     11  C   UNL     1     101.258 127.443  82.975  0.00  0.00    +0.000 A 
ATOM     12  C   UNL     1     100.214 126.659  82.449  0.00  0.00    +0.000 A 
ATOM     13  C   UNL     1      98.898 127.128  82.432  0.00  0.00    +0.000 A 
ATOM     14  C   UNL     1      98.599 128.384  82.953  0.00  0.00    +0.000 A 
ATOM     15  C   UNL     1      99.611 129.170  83.497  0.00  0.00    +0.000 A 
ATOM     16  C   UNL     1     100.928 128.702  83.513  0.00  0.00    +0.000 A 
ENDBRANCH  10  11
BRANCH   1  18
ATOM     17  C   UNL     1     101.565 125.631  86.207  0.00  0.00    +0.000 C 
ATOM     18  O   UNL     1     102.429 126.438  85.420  0.00  0.00    +0.000 OA
ENDBRANCH   1  18
BRANCH  10  19
ATOM     19  O   UNL     1     103.637 127.995  83.273  0.00  0.00    +0.000 OA
ATOM     20  C   UNL     1     104.164 128.604  82.103  0.00  0.00    +0.000 C 
ENDBRANCH  10  19
TORSDOF 3
ENDMDL
