MODEL 1
REMARK VINA RESULT:      -4.8      0.000      0.000
REMARK  Name = *****
REMARK  3 active torsions:
REMARK  status: ('A' for Active; 'I' for Inactive)
REMARK    1  A    between atoms: C_1  and  O_2
REMARK    2  A    between atoms: O_2  and  C_3
REMARK    3  A    between atoms: C_4  and  C_13
REMARK                            x       y       z     vdW  Elec       q    Type
REMARK                         _______ _______ _______ _____ _____    ______ ____
ROOT
ATOM      1  C   UNL     1      89.658  69.959  85.548  0.00  0.00    +0.000 C 
ATOM      2  C   UNL     1      88.165  69.897  85.936  0.00  0.00    +0.000 C 
ATOM      3  C   UNL     1      87.313  70.428  84.778  0.00  0.00    +0.000 C 
ATOM      4  C   UNL     1      87.907  71.660  84.161  0.00  0.00    +0.000 A 
ATOM      5  C   UNL     1      87.114  72.486  83.351  0.00  0.00    +0.000 A 
ATOM      6  C   UNL     1      87.656  73.626  82.756  0.00  0.00    +0.000 A 
ATOM      7  C   UNL     1      88.996  73.945  82.960  0.00  0.00    +0.000 A 
ATOM      8  C   UNL     1      89.792  73.121  83.754  0.00  0.00    +0.000 A 
ATOM      9  C   UNL     1      89.253  71.975  84.342  0.00  0.00    +0.000 A 
ATOM     10  O   UNL     1      90.111  71.248  85.118  0.00  0.00    +0.000 OA
ENDROOT
BRANCH   2  11
ATOM     11  C   UNL     1      87.785  70.534  87.271  0.00  0.00    +0.000 A 
ATOM     12  C   UNL     1      86.535  71.118  87.519  0.00  0.00    +0.000 A 
ATOM     13  C   UNL     1      86.240  71.675  88.766  0.00  0.00    +0.000 A 
ATOM     14  C   UNL     1      87.187  71.655  89.787  0.00  0.00    +0.000 A 
ATOM     15  C   UNL     1      88.429  71.071  89.563  0.00  0.00    +0.000 A 
ATOM     16  C   UNL     1      88.725  70.514  88.317  0.00  0.00    +0.000 A 
ENDBRANCH   2  11
BRANCH   1  18
ATOM     17  C   UNL     1      89.844  67.639  85.084  0.00  0.00    +0.000 C 
ATOM     18  O   UNL     1      89.901  68.953  84.546  0.00  0.00    +0.000 OA
ENDBRANCH   1  18
TORSDOF 2
ENDMDL
