MODEL 1
REMARK VINA RESULT:      -5.0      0.000      0.000
REMARK  Name = *****
REMARK  2 active torsions:
REMARK  status: ('A' for Active; 'I' for Inactive)
REMARK    1  A    between atoms: C_2  and  C_12
REMARK    2  A    between atoms: C_12  and  C_13
REMARK                            x       y       z     vdW  Elec       q    Type
REMARK                         _______ _______ _______ _____ _____    ______ ____
ROOT
ATOM      1  C   UNL     1      89.966  68.074  86.194  0.00  0.00    +0.000 C 
ATOM      2  C   UNL     1      89.250  69.425  86.173  0.00  0.00    +0.000 C 
ATOM      3  C   UNL     1      89.720  70.207  84.968  0.00  0.00    +0.000 A 
ATOM      4  C   UNL     1      89.674  71.604  84.879  0.00  0.00    +0.000 A 
ATOM      5  C   UNL     1      90.102  72.264  83.721  0.00  0.00    +0.000 A 
ATOM      6  C   UNL     1      90.551  71.537  82.620  0.00  0.00    +0.000 A 
ATOM      7  C   UNL     1      90.556  70.148  82.669  0.00  0.00    +0.000 A 
ATOM      8  C   UNL     1      90.133  69.502  83.831  0.00  0.00    +0.000 A 
ATOM      9  O   UNL     1      90.067  68.097  83.764  0.00  0.00    +0.000 OA
ATOM     10  C   UNL     1      89.796  67.345  84.895  0.00  0.00    +0.000 C 
ATOM     11  O   UNL     1      89.541  66.147  84.831  0.00  0.00    +0.000 OA
ENDROOT
BRANCH   2  12
ATOM     12  C   UNL     1      89.333  70.117  87.559  0.00  0.00    +0.000 C 
BRANCH  12  13
ATOM     13  C   UNL     1      88.051  70.715  88.097  0.00  0.00    +0.000 A 
ATOM     14  C   UNL     1      86.946  70.940  87.267  0.00  0.00    +0.000 A 
ATOM     15  C   UNL     1      85.774  71.504  87.778  0.00  0.00    +0.000 A 
ATOM     16  C   UNL     1      85.693  71.849  89.125  0.00  0.00    +0.000 A 
ATOM     17  C   UNL     1      86.782  71.626  89.963  0.00  0.00    +0.000 A 
ATOM     18  C   UNL     1      87.952  71.061  89.454  0.00  0.00    +0.000 A 
ENDBRANCH  12  13
ENDBRANCH   2  12
TORSDOF 2
ENDMDL
