MODEL 1
REMARK VINA RESULT:      -5.2      0.000      0.000
REMARK  Name = *****
REMARK  4 active torsions:
REMARK  status: ('A' for Active; 'I' for Inactive)
REMARK    1  A    between atoms: C_1  and  C_2
REMARK    2  A    between atoms: C_4  and  C_18
REMARK    3  A    between atoms: C_9  and  C_11
REMARK    4  A    between atoms: C_11  and  C_12
REMARK                            x       y       z     vdW  Elec       q    Type
REMARK                         _______ _______ _______ _____ _____    ______ ____
ROOT
ATOM      1  C   UNL     1      91.169  65.354  85.285  0.00  0.00    +0.000 C 
ATOM      2  C   UNL     1      90.188  66.265  85.966  0.00  0.00    +0.000 A 
ATOM      3  C   UNL     1      89.022  65.741  86.564  0.00  0.00    +0.000 A 
ATOM      4  C   UNL     1      88.092  66.577  87.200  0.00  0.00    +0.000 A 
ATOM      5  C   UNL     1      88.359  67.936  87.201  0.00  0.00    +0.000 A 
ATOM      6  C   UNL     1      89.491  68.465  86.604  0.00  0.00    +0.000 A 
ATOM      7  C   UNL     1      90.419  67.647  85.984  0.00  0.00    +0.000 A 
ATOM      8  C   UNL     1      89.526  69.928  86.819  0.00  0.00    +0.000 C 
ATOM      9  C   UNL     1      88.099  70.159  87.349  0.00  0.00    +0.000 C 
ATOM     10  O   UNL     1      87.560  68.881  87.789  0.00  0.00    +0.000 OA
ATOM     11  C   UNL     1      86.859  66.032  87.848  0.00  0.00    +0.000 C 
ENDROOT
BRANCH   9  12
ATOM     12  C   UNL     1      87.172  70.764  86.278  0.00  0.00    +0.000 C 
BRANCH  12  13
ATOM     13  C   UNL     1      85.981  71.471  86.886  0.00  0.00    +0.000 A 
ATOM     14  C   UNL     1      85.846  71.572  88.277  0.00  0.00    +0.000 A 
ATOM     15  C   UNL     1      84.734  72.205  88.836  0.00  0.00    +0.000 A 
ATOM     16  C   UNL     1      83.748  72.740  88.010  0.00  0.00    +0.000 A 
ATOM     17  C   UNL     1      83.870  72.641  86.625  0.00  0.00    +0.000 A 
ATOM     18  C   UNL     1      84.981  72.009  86.066  0.00  0.00    +0.000 A 
ENDBRANCH  12  13
ENDBRANCH   9  12
TORSDOF 2
ENDMDL
