MODEL 1
REMARK VINA RESULT:      -4.6      0.000      0.000
REMARK  Name = *****
REMARK  3 active torsions:
REMARK  status: ('A' for Active; 'I' for Inactive)
REMARK    1  A    between atoms: C_4  and  C_7
REMARK    2  A    between atoms: C_7  and  C_8
REMARK    3  A    between atoms: C_7  and  O_17
REMARK                            x       y       z     vdW  Elec       q    Type
REMARK                         _______ _______ _______ _____ _____    ______ ____
ROOT
ATOM      1  C   UNL     1      88.009  69.785  87.896  0.00  0.00    +0.000 C 
ENDROOT
BRANCH   1   2
ATOM      2  C   UNL     1      88.210  68.611  86.897  0.00  0.00    +0.000 C 
ATOM      3  S   UNL     1      87.712  66.978  87.582  0.00  0.00    +0.000 S 
ATOM      4  C   UNL     1      88.941  66.032  86.721  0.00  0.00    +0.000 A 
ATOM      5  C   UNL     1      88.934  64.638  86.695  0.00  0.00    +0.000 A 
ATOM      6  C   UNL     1      89.938  63.958  86.005  0.00  0.00    +0.000 A 
ATOM      7  C   UNL     1      90.946  64.669  85.350  0.00  0.00    +0.000 A 
ATOM      8  C   UNL     1      90.957  66.065  85.383  0.00  0.00    +0.000 A 
ATOM      9  C   UNL     1      89.949  66.742  86.067  0.00  0.00    +0.000 A 
ATOM     10  S   UNL     1      89.891  68.513  86.172  0.00  0.00    +0.000 S 
ENDBRANCH   1   2
BRANCH   1  14
ATOM     11  C   UNL     1      84.671  72.444  87.122  0.00  0.00    +0.000 A 
ATOM     12  C   UNL     1      85.437  71.948  86.072  0.00  0.00    +0.000 A 
ATOM     13  C   UNL     1      86.508  71.089  86.332  0.00  0.00    +0.000 A 
ATOM     14  C   UNL     1      86.832  70.715  87.647  0.00  0.00    +0.000 A 
ATOM     15  C   UNL     1      86.045  71.223  88.692  0.00  0.00    +0.000 A 
ATOM     16  C   UNL     1      84.973  72.081  88.432  0.00  0.00    +0.000 A 
ENDBRANCH   1  14
BRANCH   1  17
ATOM     17  O   UNL     1      89.219  70.556  88.010  0.00  0.00    +0.000 OA
ATOM     18  H   UNL     1      89.963  70.046  87.654  0.00  0.00    +0.000 HD
ENDBRANCH   1  17
TORSDOF 3
ENDMDL
