MODEL 1
REMARK VINA RESULT:      -4.9      0.000      0.000
REMARK  Name = *****
REMARK  6 active torsions:
REMARK  status: ('A' for Active; 'I' for Inactive)
REMARK    1  A    between atoms: C_1  and  C_2
REMARK    2  A    between atoms: C_2  and  C_22
REMARK    3  A    between atoms: C_12  and  C_13
REMARK    4  A    between atoms: C_12  and  O_21
REMARK    5  A    between atoms: C_16  and  O_19
REMARK    6  A    between atoms: O_19  and  C_20
REMARK                            x       y       z     vdW  Elec       q    Type
REMARK                         _______ _______ _______ _____ _____    ______ ____
ROOT
ATOM      1  C   UNL     1      85.071  63.557  86.918  0.00  0.00    +0.000 C 
ATOM      2  C   UNL     1      86.347  64.234  86.381  0.00  0.00    +0.000 C 
ATOM      3  C   UNL     1      86.240  65.747  86.439  0.00  0.00    +0.000 C 
ATOM      4  O   UNL     1      85.168  66.346  86.448  0.00  0.00    +0.000 OA
ATOM      5  C   UNL     1      87.508  66.504  86.423  0.00  0.00    +0.000 A 
ATOM      6  C   UNL     1      87.503  67.897  86.314  0.00  0.00    +0.000 A 
ATOM      7  C   UNL     1      88.713  68.591  86.259  0.00  0.00    +0.000 A 
ATOM      8  C   UNL     1      89.920  67.892  86.306  0.00  0.00    +0.000 A 
ATOM      9  C   UNL     1      89.920  66.500  86.418  0.00  0.00    +0.000 A 
ATOM     10  C   UNL     1      88.713  65.806  86.492  0.00  0.00    +0.000 A 
ATOM     11  O   UNL     1      88.798  64.445  86.607  0.00  0.00    +0.000 OA
ATOM     12  C   UNL     1      87.627  63.814  87.164  0.00  0.00    +0.000 C 
ATOM     13  C   UNL     1      86.445  63.867  84.877  0.00  0.00    +0.000 C 
ENDROOT
BRANCH  12  14
ATOM     14  C   UNL     1      87.704  63.975  88.691  0.00  0.00    +0.000 A 
ATOM     15  C   UNL     1      86.664  64.470  89.491  0.00  0.00    +0.000 A 
ATOM     16  C   UNL     1      86.826  64.630  90.875  0.00  0.00    +0.000 A 
ATOM     17  C   UNL     1      88.030  64.313  91.501  0.00  0.00    +0.000 A 
ATOM     18  C   UNL     1      89.081  63.833  90.727  0.00  0.00    +0.000 A 
ATOM     19  C   UNL     1      88.919  63.673  89.345  0.00  0.00    +0.000 A 
BRANCH  17  20
ATOM     20  O   UNL     1      88.049  64.520  92.851  0.00  0.00    +0.000 OA
ATOM     21  C   UNL     1      87.136  65.482  93.364  0.00  0.00    +0.000 C 
ENDBRANCH  17  20
ENDBRANCH  12  14
BRANCH  12  22
ATOM     22  O   UNL     1      87.814  62.407  86.929  0.00  0.00    +0.000 OA
ATOM     23  H   UNL     1      87.120  61.907  87.387  0.00  0.00    +0.000 HD
ENDBRANCH  12  22
TORSDOF 3
ENDMDL
