REMARK  Name = *****
REMARK  1 active torsions:
REMARK  status: ('A' for Active; 'I' for Inactive)
REMARK    1  A    between atoms: C_2  and  C_12
REMARK                            x       y       z     vdW  Elec       q    Type
REMARK                         _______ _______ _______ _____ _____    ______ ____
ROOT
ATOM      1  C   UNL     1      -1.216   1.555   0.082  0.00  0.00    +0.000 C 
ATOM      2  C   UNL     1      -2.426   0.693  -0.297  0.00  0.00    +0.000 C 
ATOM      3  C   UNL     1      -2.306  -0.651   0.427  0.00  0.00    +0.000 C 
ATOM      4  O   UNL     1      -1.144  -1.380   0.012  0.00  0.00    +0.000 OA
ATOM      5  C   UNL     1       0.015  -0.651   0.003  0.00  0.00    +0.000 A 
ATOM      6  C   UNL     1       0.052   0.748   0.023  0.00  0.00    +0.000 A 
ATOM      7  C   UNL     1       1.295   1.398   0.016  0.00  0.00    +0.000 A 
ATOM      8  C   UNL     1       2.474   0.655  -0.039  0.00  0.00    +0.000 A 
ATOM      9  C   UNL     1       2.431  -0.736  -0.085  0.00  0.00    +0.000 A 
ATOM     10  C   UNL     1       1.198  -1.389  -0.067  0.00  0.00    +0.000 A 
ATOM     11 CL   UNL     1       3.993   1.464  -0.054  0.00  0.00    +0.000 Cl
ENDROOT
BRANCH   2  12
ATOM     12  C   UNL     1      -3.742   1.394  -0.023  0.00  0.00    +0.000 A 
ATOM     13  C   UNL     1      -4.595   1.713  -1.091  0.00  0.00    +0.000 A 
ATOM     14  C   UNL     1      -5.813   2.356  -0.864  0.00  0.00    +0.000 A 
ATOM     15  C   UNL     1      -6.195   2.691   0.433  0.00  0.00    +0.000 A 
ATOM     16  C   UNL     1      -5.359   2.383   1.503  0.00  0.00    +0.000 A 
ATOM     17  C   UNL     1      -4.141   1.738   1.278  0.00  0.00    +0.000 A 
ENDBRANCH   2  12
TORSDOF 1
