MODEL 1
REMARK VINA RESULT:      -4.8      0.000      0.000
REMARK  Name = *****
REMARK  2 active torsions:
REMARK  status: ('A' for Active; 'I' for Inactive)
REMARK    1  A    between atoms: C_4  and  C_7
REMARK    2  A    between atoms: C_7  and  C_9
REMARK                            x       y       z     vdW  Elec       q    Type
REMARK                         _______ _______ _______ _____ _____    ______ ____
ROOT
ATOM      1  C   UNL     1     103.896 127.463  82.936  0.00  0.00    +0.000 C 
ATOM      2  C   UNL     1     103.566 128.229  81.662  0.00  0.00    +0.000 C 
ATOM      3  C   UNL     1     103.565 127.451  80.569  0.00  0.00    +0.000 C 
ATOM      4  C   UNL     1     103.884 126.099  80.992  0.00  0.00    +0.000 A 
ATOM      5  C   UNL     1     104.002 124.952  80.226  0.00  0.00    +0.000 A 
ATOM      6  C   UNL     1     104.315 123.756  80.874  0.00  0.00    +0.000 A 
ATOM      7  C   UNL     1     104.505 123.725  82.266  0.00  0.00    +0.000 A 
ATOM      8  C   UNL     1     104.384 124.888  83.031  0.00  0.00    +0.000 A 
ATOM      9  C   UNL     1     104.071 126.072  82.382  0.00  0.00    +0.000 A 
ENDROOT
BRANCH   1  10
ATOM     10  C   UNL     1     102.764 127.582  83.957  0.00  0.00    +0.000 C 
ATOM     11  O   UNL     1     102.963 127.595  85.174  0.00  0.00    +0.000 OA
BRANCH  10  15
ATOM     12  C   UNL     1      98.682 127.981  82.635  0.00  0.00    +0.000 A 
ATOM     13  C   UNL     1      99.355 126.782  82.409  0.00  0.00    +0.000 A 
ATOM     14  C   UNL     1     100.683 126.628  82.825  0.00  0.00    +0.000 A 
ATOM     15  C   UNL     1     101.347 127.677  83.472  0.00  0.00    +0.000 A 
ATOM     16  C   UNL     1     100.657 128.881  83.692  0.00  0.00    +0.000 A 
ATOM     17  C   UNL     1      99.332 129.032  83.277  0.00  0.00    +0.000 A 
ENDBRANCH  10  15
ENDBRANCH   1  10
TORSDOF 2
ENDMDL
