MODEL 1
REMARK VINA RESULT:      -4.4      0.000      0.000
REMARK  Name = *****
REMARK  5 active torsions:
REMARK  status: ('A' for Active; 'I' for Inactive)
REMARK    1  A    between atoms: C_1  and  C_2
REMARK    2  A    between atoms: C_3  and  C_4
REMARK    3  A    between atoms: C_3  and  C_10
REMARK    4  A    between atoms: C_10  and  C_11
REMARK    5  A    between atoms: C_10  and  O_17
REMARK                            x       y       z     vdW  Elec       q    Type
REMARK                         _______ _______ _______ _____ _____    ______ ____
ROOT
ATOM      1  C   UNL     1     107.069 125.538  80.967  0.00  0.00    +0.000 C 
ATOM      2  C   UNL     1     105.651 126.014  80.890  0.00  0.00    +0.000 C 
ATOM      3  C   UNL     1     104.525 125.306  81.120  0.00  0.00    +0.000 C 
ENDROOT
BRANCH   3   4
ATOM      4  C   UNL     1     104.570 123.893  81.544  0.00  0.00    +0.000 A 
ATOM      5  C   UNL     1     104.463 123.551  82.899  0.00  0.00    +0.000 A 
ATOM      6  C   UNL     1     104.492 122.212  83.293  0.00  0.00    +0.000 A 
ATOM      7  C   UNL     1     104.624 121.207  82.337  0.00  0.00    +0.000 A 
ATOM      8  C   UNL     1     104.727 121.537  80.987  0.00  0.00    +0.000 A 
ATOM      9  C   UNL     1     104.698 122.876  80.590  0.00  0.00    +0.000 A 
ENDBRANCH   3   4
BRANCH   3  10
ATOM     10  C   UNL     1     103.121 125.877  80.958  0.00  0.00    +0.000 C 
BRANCH  10  11
ATOM     11  C   UNL     1     102.495 126.498  82.237  0.00  0.00    +0.000 C 
ATOM     12  C   UNL     1     100.960 126.375  82.237  0.00  0.00    +0.000 C 
ATOM     13  C   UNL     1     100.331 127.041  83.458  0.00  0.00    +0.000 C 
ATOM     14  C   UNL     1     100.755 128.499  83.587  0.00  0.00    +0.000 C 
ATOM     15  C   UNL     1     102.273 128.636  83.603  0.00  0.00    +0.000 C 
ATOM     16  C   UNL     1     102.910 127.977  82.381  0.00  0.00    +0.000 C 
ENDBRANCH  10  11
BRANCH  10  17
ATOM     17  O   UNL     1     103.162 126.865  79.922  0.00  0.00    +0.000 OA
ATOM     18  H   UNL     1     103.622 127.655  80.246  0.00  0.00    +0.000 HD
ENDBRANCH  10  17
ENDBRANCH   3  10
TORSDOF 4
ENDMDL
