MODEL 1
REMARK VINA RESULT:      -4.7      0.000      0.000
REMARK  Name = *****
REMARK  5 active torsions:
REMARK  status: ('A' for Active; 'I' for Inactive)
REMARK    1  A    between atoms: C_4  and  C_7
REMARK    2  A    between atoms: C_7  and  C_8
REMARK    3  A    between atoms: C_7  and  O_17
REMARK    4  A    between atoms: C_8  and  C_9
REMARK    5  A    between atoms: C_9  and  C_10
REMARK                            x       y       z     vdW  Elec       q    Type
REMARK                         _______ _______ _______ _____ _____    ______ ____
ROOT
ATOM      1  C   UNL     1     103.732 126.756  80.718  0.00  0.00    +0.000 C 
ENDROOT
BRANCH   1   5
ATOM      2  C   UNL     1     100.951 127.824  83.850  0.00  0.00    +0.000 A 
ATOM      3  C   UNL     1     100.728 126.681  83.084  0.00  0.00    +0.000 A 
ATOM      4  C   UNL     1     101.625 126.334  82.073  0.00  0.00    +0.000 A 
ATOM      5  C   UNL     1     102.755 127.125  81.815  0.00  0.00    +0.000 A 
ATOM      6  C   UNL     1     102.967 128.272  82.594  0.00  0.00    +0.000 A 
ATOM      7  C   UNL     1     102.069 128.618  83.605  0.00  0.00    +0.000 A 
ENDBRANCH   1   5
BRANCH   1   8
ATOM      8  O   UNL     1     103.601 127.671  79.630  0.00  0.00    +0.000 OA
ATOM      9  H   UNL     1     103.653 128.580  79.964  0.00  0.00    +0.000 HD
ENDBRANCH   1   8
BRANCH   1  10
ATOM     10  C   UNL     1     103.526 125.324  80.212  0.00  0.00    +0.000 C 
BRANCH  10  11
ATOM     11  C   UNL     1     104.824 124.511  80.274  0.00  0.00    +0.000 C 
BRANCH  11  12
ATOM     12  C   UNL     1     104.689 123.321  81.191  0.00  0.00    +0.000 A 
ATOM     13  C   UNL     1     104.511 123.505  82.570  0.00  0.00    +0.000 A 
ATOM     14  C   UNL     1     104.405 122.407  83.424  0.00  0.00    +0.000 A 
ATOM     15  C   UNL     1     104.480 121.117  82.903  0.00  0.00    +0.000 A 
ATOM     16  C   UNL     1     104.662 120.916  81.536  0.00  0.00    +0.000 A 
ATOM     17  C   UNL     1     104.769 122.017  80.683  0.00  0.00    +0.000 A 
ATOM     18 BR   UNL     1     104.336 119.628  84.059  0.00  0.00    +0.000 Br
ENDBRANCH  11  12
ENDBRANCH  10  11
ENDBRANCH   1  10
TORSDOF 5
ENDMDL
