MODEL 1
REMARK VINA RESULT:      -5.0      0.000      0.000
REMARK  Name = *****
REMARK  0 active torsions:
REMARK  status: ('A' for Active; 'I' for Inactive)
REMARK                            x       y       z     vdW  Elec       q    Type
REMARK                         _______ _______ _______ _____ _____    ______ ____
ROOT
ATOM      1  C   UNL     1      85.488  62.447  91.130  0.00  0.00    +0.000 A 
ATOM      2  C   UNL     1      85.465  61.405  90.187  0.00  0.00    +0.000 A 
ATOM      3  C   UNL     1      86.195  61.504  89.002  0.00  0.00    +0.000 A 
ATOM      4  C   UNL     1      86.939  62.647  88.798  0.00  0.00    +0.000 A 
ATOM      5  C   UNL     1      86.963  63.685  89.719  0.00  0.00    +0.000 A 
ATOM      6  C   UNL     1      86.238  63.603  90.898  0.00  0.00    +0.000 A 
ATOM      7  C   UNL     1      87.801  64.791  89.183  0.00  0.00    +0.000 C 
ATOM      8  C   UNL     1      88.519  64.014  88.074  0.00  0.00    +0.000 C 
ATOM      9  O   UNL     1      87.702  62.882  87.685  0.00  0.00    +0.000 OA
ATOM     10  C   UNL     1      88.990  64.792  86.852  0.00  0.00    +0.000 C 
ATOM     11  O   UNL     1      89.487  64.227  85.876  0.00  0.00    +0.000 OA
ATOM     12  C   UNL     1      88.938  66.275  86.852  0.00  0.00    +0.000 A 
ATOM     13  C   UNL     1      89.844  66.970  86.034  0.00  0.00    +0.000 A 
ATOM     14  C   UNL     1      89.817  68.363  85.978  0.00  0.00    +0.000 A 
ATOM     15  C   UNL     1      88.878  69.067  86.726  0.00  0.00    +0.000 A 
ATOM     16  C   UNL     1      87.965  68.378  87.528  0.00  0.00    +0.000 A 
ATOM     17  C   UNL     1      87.993  66.980  87.602  0.00  0.00    +0.000 A 
ATOM     18  S   UNL     1      86.776  66.170  88.607  0.00  0.00    +0.000 S 
ENDROOT
TORSDOF 0
ENDMDL
