REMARK  Name = *****
REMARK  3 active torsions:
REMARK  status: ('A' for Active; 'I' for Inactive)
REMARK    1  A    between atoms: C_8  and  C_10
REMARK    2  A    between atoms: C_10  and  O_12
REMARK    3  A    between atoms: O_12  and  C_13
REMARK                            x       y       z     vdW  Elec       q    Type
REMARK                         _______ _______ _______ _____ _____    ______ ____
ROOT
ATOM      1  C   UNL     1      -3.465  -0.063  -1.043  0.00  0.00    +0.000 C 
ATOM      2  O   UNL     1      -4.305  -0.952  -0.947  0.00  0.00    +0.000 OA
ENDROOT
BRANCH   1  10
ATOM      3  C   UNL     1       2.224  -0.603   0.864  0.00  0.00    +0.000 A 
ATOM      4  C   UNL     1       2.244   0.714   0.395  0.00  0.00    +0.000 A 
ATOM      5  C   UNL     1       1.103   1.302  -0.162  0.00  0.00    +0.000 A 
ATOM      6  C   UNL     1      -0.038   0.507  -0.218  0.00  0.00    +0.000 A 
ATOM      7  C   UNL     1      -0.100  -0.804   0.239  0.00  0.00    +0.000 A 
ATOM      8  C   UNL     1       1.057  -1.378   0.794  0.00  0.00    +0.000 A 
ATOM      9  C   UNL     1      -1.429  -1.233  -0.004  0.00  0.00    +0.000 A 
ATOM     10  C   UNL     1      -2.098  -0.173  -0.591  0.00  0.00    +0.000 A 
ATOM     11  O   UNL     1      -1.243   0.891  -0.720  0.00  0.00    +0.000 OA
ENDBRANCH   1  10
BRANCH   1  12
ATOM     12  O   UNL     1      -3.677   1.198  -1.597  0.00  0.00    +0.000 OA
BRANCH  12  13
ATOM     13  C   UNL     1      -4.961   1.448  -2.098  0.00  0.00    +0.000 A 
ATOM     14  C   UNL     1      -5.481   0.708  -3.160  0.00  0.00    +0.000 A 
ATOM     15  C   UNL     1      -6.742   1.033  -3.662  0.00  0.00    +0.000 A 
ATOM     16  C   UNL     1      -7.456   2.100  -3.111  0.00  0.00    +0.000 A 
ATOM     17  C   UNL     1      -6.919   2.851  -2.064  0.00  0.00    +0.000 A 
ATOM     18  C   UNL     1      -5.659   2.528  -1.557  0.00  0.00    +0.000 A 
ATOM     19 CL   UNL     1      -9.008   2.502  -3.737  0.00  0.00    +0.000 Cl
ENDBRANCH  12  13
ENDBRANCH   1  12
TORSDOF 3
