MODEL 1
REMARK VINA RESULT:      -4.9      0.000      0.000
REMARK  Name = *****
REMARK  4 active torsions:
REMARK  status: ('A' for Active; 'I' for Inactive)
REMARK    1  A    between atoms: C_1  and  C_2
REMARK    2  A    between atoms: C_5  and  S_8
REMARK    3  A    between atoms: S_8  and  N_11
REMARK    4  A    between atoms: C_12  and  C_14
REMARK                            x       y       z     vdW  Elec       q    Type
REMARK                         _______ _______ _______ _____ _____    ______ ____
ROOT
ATOM      1  S   UNL     1      88.997  70.496  85.963  0.00  0.00    +0.000 S 
ATOM      2  O   UNL     1      89.538  70.863  84.667  0.00  0.00    +0.000 OA
ATOM      3  O   UNL     1      89.697  70.873  87.177  0.00  0.00    +0.000 OA
ENDROOT
BRANCH   1   8
ATOM      4  C   UNL     1      83.365  72.733  86.326  0.00  0.00    +0.000 C 
ATOM      5  C   UNL     1      84.766  72.201  86.239  0.00  0.00    +0.000 A 
ATOM      6  C   UNL     1      85.437  71.779  87.396  0.00  0.00    +0.000 A 
ATOM      7  C   UNL     1      86.728  71.255  87.314  0.00  0.00    +0.000 A 
ATOM      8  C   UNL     1      87.343  71.134  86.066  0.00  0.00    +0.000 A 
ATOM      9  C   UNL     1      86.688  71.549  84.904  0.00  0.00    +0.000 A 
ATOM     10  C   UNL     1      85.396  72.072  84.993  0.00  0.00    +0.000 A 
ENDBRANCH   1   8
BRANCH   1  11
ATOM     11  N   UNL     1      88.692  68.814  85.939  0.00  0.00    +0.000 NA
ATOM     12  C   UNL     1      89.719  68.034  86.644  0.00  0.00    +0.000 C 
ATOM     13  O   UNL     1      88.483  68.410  87.287  0.00  0.00    +0.000 OA
BRANCH  12  14
ATOM     14  C   UNL     1      89.913  66.585  86.295  0.00  0.00    +0.000 A 
ATOM     15  C   UNL     1      89.031  65.596  86.764  0.00  0.00    +0.000 A 
ATOM     16  C   UNL     1      89.220  64.247  86.453  0.00  0.00    +0.000 A 
ATOM     17  C   UNL     1      90.301  63.858  85.666  0.00  0.00    +0.000 A 
ATOM     18  C   UNL     1      91.190  64.818  85.191  0.00  0.00    +0.000 A 
ATOM     19  C   UNL     1      90.997  66.165  85.505  0.00  0.00    +0.000 A 
ENDBRANCH  12  14
ENDBRANCH   1  11
TORSDOF 3
ENDMDL
