MODEL 1
REMARK VINA RESULT:      -4.8      0.000      0.000
REMARK  Name = *****
REMARK  2 active torsions:
REMARK  status: ('A' for Active; 'I' for Inactive)
REMARK    1  A    between atoms: C_10  and  C_11
REMARK    2  A    between atoms: C_10  and  O_17
REMARK                            x       y       z     vdW  Elec       q    Type
REMARK                         _______ _______ _______ _____ _____    ______ ____
ROOT
ATOM      1  C   UNL     1      89.941  68.111  84.967  0.00  0.00    +0.000 C 
ATOM      2  C   UNL     1      88.962  67.191  84.255  0.00  0.00    +0.000 C 
ATOM      3  C   UNL     1      89.019  65.887  85.054  0.00  0.00    +0.000 C 
ATOM      4  C   UNL     1      89.533  66.273  86.461  0.00  0.00    +0.000 C 
ATOM      5  C   UNL     1      89.716  67.793  86.437  0.00  0.00    +0.000 C 
ATOM      6  C   UNL     1      88.409  65.752  87.391  0.00  0.00    +0.000 C 
ATOM      7  C   UNL     1      87.150  66.045  86.561  0.00  0.00    +0.000 C 
ATOM      8  C   UNL     1      87.648  65.248  85.353  0.00  0.00    +0.000 C 
ATOM      9  C   UNL     1      87.873  63.855  85.986  0.00  0.00    +0.000 C 
ATOM     10  C   UNL     1      88.403  64.186  87.418  0.00  0.00    +0.000 C 
ENDROOT
BRANCH  10  11
ATOM     11  C   UNL     1      87.555  63.508  88.490  0.00  0.00    +0.000 A 
ATOM     12  C   UNL     1      86.906  62.296  88.179  0.00  0.00    +0.000 A 
ATOM     13  C   UNL     1      86.111  61.633  89.118  0.00  0.00    +0.000 A 
ATOM     14  C   UNL     1      85.954  62.166  90.393  0.00  0.00    +0.000 A 
ATOM     15  C   UNL     1      86.594  63.355  90.728  0.00  0.00    +0.000 A 
ATOM     16  C   UNL     1      87.390  64.018  89.786  0.00  0.00    +0.000 A 
ENDBRANCH  10  11
BRANCH  10  17
ATOM     17  O   UNL     1      89.728  63.689  87.605  0.00  0.00    +0.000 OA
ATOM     18  H   UNL     1      90.261  63.881  86.818  0.00  0.00    +0.000 HD
ENDBRANCH  10  17
TORSDOF 2
ENDMDL
