MODEL 1
REMARK VINA RESULT:      -5.5      0.000      0.000
REMARK  Name = *****
REMARK  5 active torsions:
REMARK  status: ('A' for Active; 'I' for Inactive)
REMARK    1  A    between atoms: C_1  and  C_2
REMARK    2  A    between atoms: C_4  and  O_9
REMARK    3  A    between atoms: C_5  and  C_8
REMARK    4  A    between atoms: O_9  and  C_10
REMARK    5  A    between atoms: C_10  and  C_12
REMARK                            x       y       z     vdW  Elec       q    Type
REMARK                         _______ _______ _______ _____ _____    ______ ____
ROOT
ATOM      1  C   UNL     1      89.648  69.001  85.941  0.00  0.00    +0.000 C 
ATOM      2  O   UNL     1      90.088  69.212  84.818  0.00  0.00    +0.000 OA
ENDROOT
BRANCH   1   3
ATOM      3  C   UNL     1      88.524  69.782  86.538  0.00  0.00    +0.000 A 
ATOM      4  N   UNL     1      87.589  70.301  85.699  0.00  0.00    +0.000 NA
ATOM      5  C   UNL     1      86.581  71.008  86.235  0.00  0.00    +0.000 A 
ATOM      6  C   UNL     1      85.614  71.552  85.402  0.00  0.00    +0.000 A 
ATOM      7  C   UNL     1      84.544  72.299  85.906  0.00  0.00    +0.000 A 
ATOM      8  C   UNL     1      84.433  72.511  87.276  0.00  0.00    +0.000 A 
ATOM      9  C   UNL     1      85.390  71.976  88.136  0.00  0.00    +0.000 A 
ATOM     10  C   UNL     1      86.464  71.227  87.625  0.00  0.00    +0.000 A 
ATOM     11  C   UNL     1      87.442  70.679  88.464  0.00  0.00    +0.000 A 
ATOM     12  C   UNL     1      88.489  69.946  87.916  0.00  0.00    +0.000 A 
ENDBRANCH   1   3
BRANCH   1  13
ATOM     13  O   UNL     1      90.073  68.045  86.847  0.00  0.00    +0.000 OA
BRANCH  13  17
ATOM     14  C   UNL     1      92.041  64.275  84.346  0.00  0.00    +0.000 C 
ATOM     15  C   UNL     1      90.944  64.860  85.184  0.00  0.00    +0.000 A 
ATOM     16  C   UNL     1      91.008  66.194  85.601  0.00  0.00    +0.000 A 
ATOM     17  C   UNL     1      89.985  66.723  86.393  0.00  0.00    +0.000 A 
ATOM     18  C   UNL     1      88.912  65.936  86.829  0.00  0.00    +0.000 A 
ATOM     19  C   UNL     1      88.866  64.598  86.422  0.00  0.00    +0.000 A 
ATOM     20  C   UNL     1      89.873  64.065  85.609  0.00  0.00    +0.000 A 
ATOM     21  C   UNL     1      87.843  66.505  87.714  0.00  0.00    +0.000 C 
ENDBRANCH  13  17
ENDBRANCH   1  13
TORSDOF 3
ENDMDL
