MODEL 1
REMARK VINA RESULT:      -4.8      0.000      0.000
REMARK  Name = *****
REMARK  3 active torsions:
REMARK  status: ('A' for Active; 'I' for Inactive)
REMARK    1  A    between atoms: C_1  and  O_2
REMARK    2  A    between atoms: O_2  and  C_3
REMARK    3  A    between atoms: C_12  and  C_13
REMARK                            x       y       z     vdW  Elec       q    Type
REMARK                         _______ _______ _______ _____ _____    ______ ____
ROOT
ATOM      1  C   UNL     1      89.525  69.703  85.503  0.00  0.00    +0.000 C 
ATOM      2  C   UNL     1      90.117  71.086  85.226  0.00  0.00    +0.000 C 
ATOM      3  C   UNL     1      89.189  71.920  84.390  0.00  0.00    +0.000 A 
ATOM      4  C   UNL     1      89.668  73.077  83.757  0.00  0.00    +0.000 A 
ATOM      5  C   UNL     1      88.818  73.857  82.971  0.00  0.00    +0.000 A 
ATOM      6  C   UNL     1      87.485  73.487  82.811  0.00  0.00    +0.000 A 
ATOM      7  C   UNL     1      87.000  72.344  83.446  0.00  0.00    +0.000 A 
ATOM      8  C   UNL     1      87.845  71.572  84.245  0.00  0.00    +0.000 A 
ATOM      9  O   UNL     1      87.268  70.484  84.842  0.00  0.00    +0.000 OA
ATOM     10  C   UNL     1      88.030  69.852  85.893  0.00  0.00    +0.000 C 
ENDROOT
BRANCH  10  11
ATOM     11  C   UNL     1      87.766  70.486  87.264  0.00  0.00    +0.000 A 
ATOM     12  C   UNL     1      86.552  71.137  87.545  0.00  0.00    +0.000 A 
ATOM     13  C   UNL     1      86.301  71.691  88.802  0.00  0.00    +0.000 A 
ATOM     14  C   UNL     1      87.255  71.592  89.812  0.00  0.00    +0.000 A 
ATOM     15  C   UNL     1      88.452  70.929  89.565  0.00  0.00    +0.000 A 
ATOM     16  C   UNL     1      88.702  70.371  88.308  0.00  0.00    +0.000 A 
ENDBRANCH  10  11
BRANCH   1  18
ATOM     17  C   UNL     1      89.633  67.501  84.540  0.00  0.00    +0.000 C 
ATOM     18  O   UNL     1      89.735  68.900  84.320  0.00  0.00    +0.000 OA
ENDBRANCH   1  18
TORSDOF 2
ENDMDL
