MODEL 1
REMARK VINA RESULT:      -5.3      0.000      0.000
REMARK  Name = *****
REMARK  1 active torsions:
REMARK  status: ('A' for Active; 'I' for Inactive)
REMARK    1  A    between atoms: C_2  and  C_12
REMARK                            x       y       z     vdW  Elec       q    Type
REMARK                         _______ _______ _______ _____ _____    ______ ____
ROOT
ATOM      1  C   UNL     1     102.983 126.560  81.293  0.00  0.00    +0.000 C 
ATOM      2  C   UNL     1     102.007 126.144  82.399  0.00  0.00    +0.000 C 
ATOM      3  C   UNL     1     102.794 125.392  83.476  0.00  0.00    +0.000 C 
ATOM      4  O   UNL     1     103.369 124.181  82.970  0.00  0.00    +0.000 OA
ATOM      5  C   UNL     1     104.041 124.318  81.785  0.00  0.00    +0.000 A 
ATOM      6  C   UNL     1     103.895 125.420  80.933  0.00  0.00    +0.000 A 
ATOM      7  C   UNL     1     104.633 125.463  79.741  0.00  0.00    +0.000 A 
ATOM      8  C   UNL     1     105.478 124.406  79.401  0.00  0.00    +0.000 A 
ATOM      9  C   UNL     1     105.600 123.302  80.240  0.00  0.00    +0.000 A 
ATOM     10  C   UNL     1     104.878 123.258  81.432  0.00  0.00    +0.000 A 
ATOM     11 CL   UNL     1     106.372 124.467  77.932  0.00  0.00    +0.000 Cl
ENDROOT
BRANCH   2  12
ATOM     12  C   UNL     1     101.223 127.323  82.944  0.00  0.00    +0.000 A 
ATOM     13  C   UNL     1     101.892 128.332  83.656  0.00  0.00    +0.000 A 
ATOM     14  C   UNL     1     101.193 129.427  84.170  0.00  0.00    +0.000 A 
ATOM     15  C   UNL     1      99.818 129.521  83.980  0.00  0.00    +0.000 A 
ATOM     16  C   UNL     1      99.136 128.530  83.280  0.00  0.00    +0.000 A 
ATOM     17  C   UNL     1      99.835 127.435  82.765  0.00  0.00    +0.000 A 
ATOM     18 CL   UNL     1      98.956 130.868  84.613  0.00  0.00    +0.000 Cl
ENDBRANCH   2  12
TORSDOF 1
ENDMDL
