REMARK  Name = *****
REMARK  5 active torsions:
REMARK  status: ('A' for Active; 'I' for Inactive)
REMARK    1  A    between atoms: C_1  and  C_2
REMARK    2  A    between atoms: C_2  and  O_3
REMARK    3  A    between atoms: O_3  and  C_4
REMARK    4  A    between atoms: C_4  and  C_15
REMARK    5  A    between atoms: C_7  and  C_9
REMARK                            x       y       z     vdW  Elec       q    Type
REMARK                         _______ _______ _______ _____ _____    ______ ____
ROOT
ATOM      1  C   UNL     1       4.502  -1.204   0.377  0.00  0.00    +0.000 C 
ATOM      2  C   UNL     1       5.172   0.032   0.986  0.00  0.00    +0.000 C 
ATOM      3  C   UNL     1       6.498   0.064   0.274  0.00  0.00    +0.000 C 
ATOM      4  C   UNL     1       6.089  -0.350  -1.133  0.00  0.00    +0.000 C 
ATOM      5  O   UNL     1       4.970  -1.245  -0.990  0.00  0.00    +0.000 OA
ENDROOT
BRANCH   4   6
ATOM      6  C   UNL     1       7.226  -0.949  -1.930  0.00  0.00    +0.000 A 
ATOM      7  C   UNL     1       7.226  -2.291  -2.335  0.00  0.00    +0.000 A 
ATOM      8  C   UNL     1       8.290  -2.816  -3.073  0.00  0.00    +0.000 A 
ATOM      9  C   UNL     1       9.369  -2.005  -3.417  0.00  0.00    +0.000 A 
ATOM     10  C   UNL     1       9.385  -0.669  -3.025  0.00  0.00    +0.000 A 
ATOM     11  C   UNL     1       8.321  -0.144  -2.288  0.00  0.00    +0.000 A 
ENDBRANCH   4   6
BRANCH   1  12
ATOM     12  C   UNL     1       4.840  -2.556   1.008  0.00  0.00    +0.000 A 
ATOM     13  C   UNL     1       4.576  -3.734   0.279  0.00  0.00    +0.000 A 
ATOM     14  C   UNL     1       4.853  -4.998   0.806  0.00  0.00    +0.000 A 
ATOM     15  C   UNL     1       5.386  -5.113   2.085  0.00  0.00    +0.000 A 
ATOM     16  C   UNL     1       5.633  -3.967   2.836  0.00  0.00    +0.000 A 
ATOM     17  C   UNL     1       5.358  -2.702   2.305  0.00  0.00    +0.000 A 
ENDBRANCH   1  12
BRANCH   1  18
ATOM     18  O   UNL     1       3.081  -1.076   0.493  0.00  0.00    +0.000 OA
BRANCH  18  20
ATOM     19  C   UNL     1       0.990  -0.218  -0.254  0.00  0.00    +0.000 C 
ATOM     20  C   UNL     1       2.454  -0.412  -0.599  0.00  0.00    +0.000 C 
ENDBRANCH  18  20
ENDBRANCH   1  18
TORSDOF 4
