MODEL 1
REMARK VINA RESULT:      -4.7      0.000      0.000
REMARK  Name = *****
REMARK  2 active torsions:
REMARK  status: ('A' for Active; 'I' for Inactive)
REMARK    1  A    between atoms: C_2  and  C_10
REMARK    2  A    between atoms: C_10  and  C_12
REMARK                            x       y       z     vdW  Elec       q    Type
REMARK                         _______ _______ _______ _____ _____    ______ ____
ROOT
ATOM      1  C   UNL     1      88.148  69.508  84.403  0.00  0.00    +0.000 C 
ATOM      2  C   UNL     1      89.322  68.521  84.541  0.00  0.00    +0.000 C 
ATOM      3  O   UNL     1      90.485  69.090  83.893  0.00  0.00    +0.000 OA
ATOM      4  C   UNL     1      90.213  70.430  83.813  0.00  0.00    +0.000 A 
ATOM      5  C   UNL     1      91.134  71.389  83.447  0.00  0.00    +0.000 A 
ATOM      6  C   UNL     1      90.707  72.717  83.398  0.00  0.00    +0.000 A 
ATOM      7  C   UNL     1      89.376  73.051  83.706  0.00  0.00    +0.000 A 
ATOM      8  C   UNL     1      88.459  72.060  84.064  0.00  0.00    +0.000 A 
ATOM      9  C   UNL     1      88.902  70.750  84.117  0.00  0.00    +0.000 A 
ENDROOT
BRANCH   2  10
ATOM     10  C   UNL     1      89.630  68.162  86.004  0.00  0.00    +0.000 C 
ATOM     11  O   UNL     1      90.509  67.359  86.316  0.00  0.00    +0.000 OA
BRANCH  10  12
ATOM     12  C   UNL     1      88.892  68.861  87.103  0.00  0.00    +0.000 A 
ATOM     13  C   UNL     1      89.334  70.066  87.664  0.00  0.00    +0.000 A 
ATOM     14  C   UNL     1      88.614  70.666  88.703  0.00  0.00    +0.000 A 
ATOM     15  C   UNL     1      87.456  70.061  89.189  0.00  0.00    +0.000 A 
ATOM     16  C   UNL     1      87.010  68.860  88.645  0.00  0.00    +0.000 A 
ATOM     17  C   UNL     1      87.727  68.260  87.606  0.00  0.00    +0.000 A 
ATOM     18 CL   UNL     1      86.578  70.800  90.469  0.00  0.00    +0.000 Cl
ENDBRANCH  10  12
ENDBRANCH   2  10
TORSDOF 2
ENDMDL
