MODEL 1
REMARK VINA RESULT:      -4.5      0.000      0.000
REMARK  Name = *****
REMARK  5 active torsions:
REMARK  status: ('A' for Active; 'I' for Inactive)
REMARK    1  A    between atoms: C_4  and  C_7
REMARK    2  A    between atoms: C_7  and  C_9
REMARK    3  A    between atoms: C_9  and  C_10
REMARK    4  A    between atoms: C_10  and  C_11
REMARK    5  A    between atoms: C_10  and  O_19
REMARK                            x       y       z     vdW  Elec       q    Type
REMARK                         _______ _______ _______ _____ _____    ______ ____
ROOT
ATOM      1  C   UNL     1     101.157 126.738  83.340  0.00  0.00    +0.000 C 
ENDROOT
BRANCH   1   2
ATOM      2  C   UNL     1     102.339 127.538  82.820  0.00  0.00    +0.000 A 
ATOM      3  C   UNL     1     102.926 128.585  83.552  0.00  0.00    +0.000 A 
ATOM      4  C   UNL     1     104.017 129.296  83.041  0.00  0.00    +0.000 A 
ATOM      5  C   UNL     1     104.529 128.975  81.788  0.00  0.00    +0.000 A 
ATOM      6  C   UNL     1     103.954 127.957  81.034  0.00  0.00    +0.000 A 
ATOM      7  C   UNL     1     102.866 127.249  81.545  0.00  0.00    +0.000 A 
ATOM      8 CL   UNL     1     105.876 129.844  81.164  0.00  0.00    +0.000 Cl
ATOM      9 CL   UNL     1     102.332 129.062  85.104  0.00  0.00    +0.000 Cl
ENDBRANCH   1   2
BRANCH   1  10
ATOM     10  O   UNL     1     101.624 125.425  83.683  0.00  0.00    +0.000 OA
ATOM     11  H   UNL     1     102.538 125.317  83.377  0.00  0.00    +0.000 HD
ENDBRANCH   1  10
BRANCH   1  12
ATOM     12  C   UNL     1     100.048 126.647  82.292  0.00  0.00    +0.000 C 
BRANCH  12  13
ATOM     13  C   UNL     1      98.810 127.315  82.849  0.00  0.00    +0.000 C 
ATOM     14  O   UNL     1      97.707 126.796  82.665  0.00  0.00    +0.000 OA
BRANCH  13  18
ATOM     15  C   UNL     1      99.046 130.943  85.135  0.00  0.00    +0.000 A 
ATOM     16  C   UNL     1      99.412 130.921  83.792  0.00  0.00    +0.000 A 
ATOM     17  C   UNL     1      99.343 129.727  83.072  0.00  0.00    +0.000 A 
ATOM     18  C   UNL     1      98.907 128.545  83.689  0.00  0.00    +0.000 A 
ATOM     19  C   UNL     1      98.543 128.576  85.039  0.00  0.00    +0.000 A 
ATOM     20  C   UNL     1      98.613 129.774  85.758  0.00  0.00    +0.000 A 
ENDBRANCH  13  18
ENDBRANCH  12  13
ENDBRANCH   1  12
TORSDOF 5
ENDMDL
