MODEL 1
REMARK VINA RESULT:      -5.5      0.000      0.000
REMARK  Name = *****
REMARK  1 active torsions:
REMARK  status: ('A' for Active; 'I' for Inactive)
REMARK    1  A    between atoms: C_2  and  C_13
REMARK                            x       y       z     vdW  Elec       q    Type
REMARK                         _______ _______ _______ _____ _____    ______ ____
ROOT
ATOM      1  C   UNL     1     102.617 125.492  83.773  0.00  0.00    +0.000 C 
ATOM      2  C   UNL     1     101.884 125.889  82.499  0.00  0.00    +0.000 C 
ATOM      3  O   UNL     1     102.809 126.305  81.479  0.00  0.00    +0.000 OA
ATOM      4  C   UNL     1     103.768 125.367  81.204  0.00  0.00    +0.000 A 
ATOM      5  C   UNL     1     104.155 124.373  82.105  0.00  0.00    +0.000 A 
ATOM      6  C   UNL     1     103.538 124.352  83.446  0.00  0.00    +0.000 C 
ATOM      7  O   UNL     1     103.823 123.477  84.257  0.00  0.00    +0.000 OA
ATOM      8  C   UNL     1     105.138 123.443  81.758  0.00  0.00    +0.000 A 
ATOM      9  C   UNL     1     105.747 123.523  80.503  0.00  0.00    +0.000 A 
ATOM     10  C   UNL     1     105.375 124.532  79.614  0.00  0.00    +0.000 A 
ATOM     11  C   UNL     1     104.391 125.458  79.959  0.00  0.00    +0.000 A 
ATOM     12 CL   UNL     1     106.139 124.634  78.075  0.00  0.00    +0.000 Cl
ENDROOT
BRANCH   2  13
ATOM     13  C   UNL     1     100.912 127.022  82.779  0.00  0.00    +0.000 A 
ATOM     14  C   UNL     1     101.324 128.204  83.417  0.00  0.00    +0.000 A 
ATOM     15  C   UNL     1     100.405 129.219  83.684  0.00  0.00    +0.000 A 
ATOM     16  C   UNL     1      99.066 129.071  83.333  0.00  0.00    +0.000 A 
ATOM     17  C   UNL     1      98.641 127.899  82.708  0.00  0.00    +0.000 A 
ATOM     18  C   UNL     1      99.557 126.881  82.434  0.00  0.00    +0.000 A 
ATOM     19 CL   UNL     1     100.930 130.663  84.460  0.00  0.00    +0.000 Cl
ENDBRANCH   2  13
TORSDOF 1
ENDMDL
