REMARK  Name = *****
REMARK  3 active torsions:
REMARK  status: ('A' for Active; 'I' for Inactive)
REMARK    1  A    between atoms: C_1  and  N_2
REMARK    2  A    between atoms: N_13  and  N_14
REMARK    3  A    between atoms: C_15  and  C_16
REMARK                            x       y       z     vdW  Elec       q    Type
REMARK                         _______ _______ _______ _____ _____    ______ ____
ROOT
ATOM      1  C   UNL     1       1.087  -0.120  -0.551  0.00  0.00    +0.000 C 
ATOM      2  N   UNL     1       2.525  -0.092  -0.336  0.00  0.00    +0.000 N 
ATOM      3  C   UNL     1       3.109   1.165  -0.173  0.00  0.00    +0.000 A 
ATOM      4  O   UNL     1       2.486   2.225  -0.184  0.00  0.00    +0.000 OA
ATOM      5  C   UNL     1       4.564   1.193   0.021  0.00  0.00    +0.000 A 
ATOM      6  C   UNL     1       5.256   2.400   0.186  0.00  0.00    +0.000 A 
ATOM      7  C   UNL     1       6.638   2.384   0.364  0.00  0.00    +0.000 A 
ATOM      8  C   UNL     1       7.320   1.168   0.376  0.00  0.00    +0.000 A 
ATOM      9  C   UNL     1       6.616  -0.029   0.211  0.00  0.00    +0.000 A 
ATOM     10  C   UNL     1       5.231  -0.024   0.032  0.00  0.00    +0.000 A 
ATOM     11  N   UNL     1       4.569  -1.241  -0.127  0.00  0.00    +0.000 NA
ATOM     12  C   UNL     1       3.278  -1.272  -0.296  0.00  0.00    +0.000 A 
ATOM     13  N   UNL     1       2.625  -2.486  -0.454  0.00  0.00    +0.000 N 
ATOM     14  H   UNL     1       1.674  -2.469  -0.708  0.00  0.00    +0.000 HD
ENDROOT
BRANCH  13  15
ATOM     15  N   UNL     1       3.217  -3.705  -0.278  0.00  0.00    +0.000 NA
ATOM     16  C   UNL     1       2.590  -4.764  -0.697  0.00  0.00    +0.000 C 
BRANCH  16  17
ATOM     17  C   UNL     1       1.343  -4.841  -1.480  0.00  0.00    +0.000 A 
ATOM     18  C   UNL     1       1.136  -4.019  -2.592  0.00  0.00    +0.000 A 
ATOM     19  C   UNL     1      -0.046  -4.133  -3.324  0.00  0.00    +0.000 A 
ATOM     20  C   UNL     1      -1.008  -5.074  -2.953  0.00  0.00    +0.000 A 
ATOM     21  C   UNL     1      -0.788  -5.909  -1.856  0.00  0.00    +0.000 A 
ATOM     22  C   UNL     1       0.393  -5.800  -1.121  0.00  0.00    +0.000 A 
ENDBRANCH  16  17
ENDBRANCH  13  15
TORSDOF 2
