MODEL 1
REMARK VINA RESULT:      -5.2      0.000      0.000
REMARK  Name = *****
REMARK  3 active torsions:
REMARK  status: ('A' for Active; 'I' for Inactive)
REMARK    1  A    between atoms: C_1  and  C_2
REMARK    2  A    between atoms: C_5  and  C_8
REMARK    3  A    between atoms: C_8  and  C_9
REMARK                            x       y       z     vdW  Elec       q    Type
REMARK                         _______ _______ _______ _____ _____    ______ ____
ROOT
ATOM      1  C   UNL     1     102.737 126.187  82.659  0.00  0.00    +0.000 C 
ATOM      2  C   UNL     1     102.737 127.679  83.038  0.00  0.00    +0.000 C 
ATOM      3  C   UNL     1     101.276 127.903  83.113  0.00  0.00    +0.000 A 
ATOM      4  C   UNL     1     100.574 128.983  83.618  0.00  0.00    +0.000 A 
ATOM      5  C   UNL     1      99.180 128.973  83.502  0.00  0.00    +0.000 A 
ATOM      6  C   UNL     1      98.520 127.901  82.877  0.00  0.00    +0.000 A 
ATOM      7  C   UNL     1      99.247 126.826  82.363  0.00  0.00    +0.000 A 
ATOM      8  C   UNL     1     100.618 126.849  82.500  0.00  0.00    +0.000 A 
ATOM      9  O   UNL     1     101.458 125.870  82.037  0.00  0.00    +0.000 OA
ENDROOT
BRANCH   1  10
ATOM     10  C   UNL     1     103.859 125.804  81.690  0.00  0.00    +0.000 C 
BRANCH  10  15
ATOM     11  C   UNL     1     105.231 120.147  81.887  0.00  0.00    +0.000 C 
ATOM     12  C   UNL     1     104.854 121.597  81.833  0.00  0.00    +0.000 A 
ATOM     13  C   UNL     1     104.891 122.295  80.621  0.00  0.00    +0.000 A 
ATOM     14  C   UNL     1     104.572 123.654  80.575  0.00  0.00    +0.000 A 
ATOM     15  C   UNL     1     104.221 124.342  81.744  0.00  0.00    +0.000 A 
ATOM     16  C   UNL     1     104.202 123.647  82.959  0.00  0.00    +0.000 A 
ATOM     17  C   UNL     1     104.521 122.288  83.004  0.00  0.00    +0.000 A 
ENDBRANCH  10  15
ENDBRANCH   1  10
TORSDOF 2
ENDMDL
