MODEL 1
REMARK VINA RESULT:      -4.3      0.000      0.000
REMARK  Name = *****
REMARK  5 active torsions:
REMARK  status: ('A' for Active; 'I' for Inactive)
REMARK    1  A    between atoms: C_1  and  C_2
REMARK    2  A    between atoms: C_2  and  C_3
REMARK    3  A    between atoms: C_2  and  N_9
REMARK    4  A    between atoms: N_9  and  S_10
REMARK    5  A    between atoms: S_10  and  C_13
REMARK                            x       y       z     vdW  Elec       q    Type
REMARK                         _______ _______ _______ _____ _____    ______ ____
ROOT
ATOM      1  N   UNL     1      87.106  69.718  86.057  0.00  0.00    +0.000 NA
ATOM      2 CL   UNL     1      85.645  68.818  85.915  0.00  0.00    +0.000 Cl
ENDROOT
BRANCH   1   3
ATOM      3  S   UNL     1      88.283  69.040  87.082  0.00  0.00    +0.000 S 
ATOM      4  O   UNL     1      88.084  67.606  87.148  0.00  0.00    +0.000 OA
ATOM      5  O   UNL     1      89.586  69.600  86.783  0.00  0.00    +0.000 OA
BRANCH   3   6
ATOM      6  C   UNL     1      87.811  69.716  88.663  0.00  0.00    +0.000 A 
ATOM      7  C   UNL     1      86.739  69.168  89.371  0.00  0.00    +0.000 A 
ATOM      8  C   UNL     1      86.382  69.716  90.603  0.00  0.00    +0.000 A 
ATOM      9  C   UNL     1      87.098  70.797  91.121  0.00  0.00    +0.000 A 
ATOM     10  C   UNL     1      88.177  71.332  90.415  0.00  0.00    +0.000 A 
ATOM     11  C   UNL     1      88.541  70.791  89.183  0.00  0.00    +0.000 A 
ENDBRANCH   3   6
ENDBRANCH   1   3
BRANCH   1  13
ATOM     12  C   UNL     1      87.537  71.620  84.584  0.00  0.00    +0.000 C 
ATOM     13  C   UNL     1      87.028  71.203  85.971  0.00  0.00    +0.000 C 
BRANCH  13  14
ATOM     14  C   UNL     1      85.674  71.806  86.333  0.00  0.00    +0.000 A 
ATOM     15  C   UNL     1      85.240  71.957  87.661  0.00  0.00    +0.000 A 
ATOM     16  C   UNL     1      83.993  72.518  87.950  0.00  0.00    +0.000 A 
ATOM     17  C   UNL     1      83.161  72.942  86.917  0.00  0.00    +0.000 A 
ATOM     18  C   UNL     1      83.576  72.810  85.596  0.00  0.00    +0.000 A 
ATOM     19  C   UNL     1      84.822  72.249  85.307  0.00  0.00    +0.000 A 
ENDBRANCH  13  14
ENDBRANCH   1  13
TORSDOF 4
ENDMDL
