MODEL 1
REMARK VINA RESULT:      -4.1      0.000      0.000
REMARK  Name = *****
REMARK  1 active torsions:
REMARK  status: ('A' for Active; 'I' for Inactive)
REMARK    1  A    between atoms: C_9  and  C_11
REMARK                            x       y       z     vdW  Elec       q    Type
REMARK                         _______ _______ _______ _____ _____    ______ ____
ROOT
ATOM      1  C   UNL     1      86.975  70.829  89.600  0.00  0.00    +0.000 C 
ATOM      2  C   UNL     1      86.103  71.632  88.636  0.00  0.00    +0.000 C 
ATOM      3  C   UNL     1      86.070  71.003  87.246  0.00  0.00    +0.000 C 
ATOM      4  C   UNL     1      87.481  70.797  86.691  0.00  0.00    +0.000 C 
ATOM      5  C   UNL     1      88.321  69.951  87.653  0.00  0.00    +0.000 C 
ATOM      6  C   UNL     1      88.378  70.595  89.042  0.00  0.00    +0.000 C 
ATOM      7  C   UNL     1      89.716  69.743  87.063  0.00  0.00    +0.000 C 
ATOM      8  C   UNL     1      89.616  69.177  85.647  0.00  0.00    +0.000 C 
ATOM      9  C   UNL     1      88.626  69.937  84.754  0.00  0.00    +0.000 C 
ATOM     10  O   UNL     1      87.372  70.146  85.425  0.00  0.00    +0.000 OA
ENDROOT
BRANCH   9  11
ATOM     11  C   UNL     1      89.119  71.253  84.190  0.00  0.00    +0.000 A 
ATOM     12  C   UNL     1      88.445  72.441  83.964  0.00  0.00    +0.000 A 
ATOM     13  C   UNL     1      89.283  73.460  83.425  0.00  0.00    +0.000 A 
ATOM     14  C   UNL     1      90.580  73.032  83.268  0.00  0.00    +0.000 A 
ATOM     15  S   UNL     1      90.786  71.415  83.777  0.00  0.00    +0.000 S 
ENDBRANCH   9  11
TORSDOF 1
ENDMDL
