REMARK  Name = *****
REMARK  4 active torsions:
REMARK  status: ('A' for Active; 'I' for Inactive)
REMARK    1  A    between atoms: C_1  and  C_2
REMARK    2  A    between atoms: C_2  and  C_21
REMARK    3  A    between atoms: C_12  and  C_13
REMARK    4  A    between atoms: C_12  and  O_20
REMARK                            x       y       z     vdW  Elec       q    Type
REMARK                         _______ _______ _______ _____ _____    ______ ____
ROOT
ATOM      1  C   UNL     1       1.021   0.181  -0.088  0.00  0.00    +0.000 C 
ATOM      2  C   UNL     1       2.558   0.089  -0.156  0.00  0.00    +0.000 C 
ATOM      3  C   UNL     1       3.207   1.442   0.081  0.00  0.00    +0.000 C 
ATOM      4  O   UNL     1       2.628   2.508  -0.104  0.00  0.00    +0.000 OA
ATOM      5  C   UNL     1       4.623   1.433   0.505  0.00  0.00    +0.000 A 
ATOM      6  C   UNL     1       5.348   2.625   0.586  0.00  0.00    +0.000 A 
ATOM      7  C   UNL     1       6.694   2.591   0.951  0.00  0.00    +0.000 A 
ATOM      8  C   UNL     1       7.311   1.370   1.227  0.00  0.00    +0.000 A 
ATOM      9  C   UNL     1       6.582   0.182   1.148  0.00  0.00    +0.000 A 
ATOM     10  C   UNL     1       5.232   0.214   0.802  0.00  0.00    +0.000 A 
ATOM     11  O   UNL     1       4.585  -0.991   0.754  0.00  0.00    +0.000 OA
ATOM     12  C   UNL     1       3.151  -0.910   0.881  0.00  0.00    +0.000 C 
ATOM     13  C   UNL     1       2.914  -0.310  -1.612  0.00  0.00    +0.000 C 
ENDROOT
BRANCH  12  14
ATOM     14  C   UNL     1       2.835  -0.771   2.382  0.00  0.00    +0.000 A 
ATOM     15  C   UNL     1       2.344   0.400   2.986  0.00  0.00    +0.000 A 
ATOM     16  C   UNL     1       2.119   0.467   4.368  0.00  0.00    +0.000 A 
ATOM     17  C   UNL     1       2.392  -0.632   5.175  0.00  0.00    +0.000 A 
ATOM     18  C   UNL     1       2.891  -1.800   4.614  0.00  0.00    +0.000 A 
ATOM     19  C   UNL     1       3.114  -1.864   3.235  0.00  0.00    +0.000 A 
ATOM     20 CL   UNL     1       2.119  -0.542   6.870  0.00  0.00    +0.000 Cl
ENDBRANCH  12  14
BRANCH  12  21
ATOM     21  O   UNL     1       2.667  -2.216   0.523  0.00  0.00    +0.000 OA
ATOM     22  H   UNL     1       2.834  -2.375  -0.419  0.00  0.00    +0.000 HD
ENDBRANCH  12  21
TORSDOF 2
