REMARK  Name = *****
REMARK  3 active torsions:
REMARK  status: ('A' for Active; 'I' for Inactive)
REMARK    1  A    between atoms: C_1  and  C_2
REMARK    2  A    between atoms: C_4  and  C_12
REMARK    3  A    between atoms: C_12  and  C_13
REMARK                            x       y       z     vdW  Elec       q    Type
REMARK                         _______ _______ _______ _____ _____    ______ ____
ROOT
ATOM      1  C   UNL     1      -1.744   2.280  -0.327  0.00  0.00    +0.000 C 
ATOM      2  C   UNL     1      -1.270   0.866  -0.134  0.00  0.00    +0.000 A 
ATOM      3  C   UNL     1      -2.217  -0.157  -0.029  0.00  0.00    +0.000 A 
ATOM      4  C   UNL     1      -1.787  -1.465   0.151  0.00  0.00    +0.000 A 
ATOM      5  N   UNL     1      -0.479  -1.797   0.222  0.00  0.00    +0.000 NA
ATOM      6  C   UNL     1       0.441  -0.824   0.121  0.00  0.00    +0.000 A 
ATOM      7  C   UNL     1       1.781  -1.179   0.197  0.00  0.00    +0.000 A 
ATOM      8  C   UNL     1       2.804  -0.233   0.101  0.00  0.00    +0.000 A 
ATOM      9  C   UNL     1       2.485   1.106  -0.075  0.00  0.00    +0.000 A 
ATOM     10  C   UNL     1       1.147   1.489  -0.155  0.00  0.00    +0.000 A 
ATOM     11  C   UNL     1       0.105   0.537  -0.059  0.00  0.00    +0.000 A 
ENDROOT
BRANCH   4  12
ATOM     12  C   UNL     1      -2.782  -2.594   0.243  0.00  0.00    +0.000 C 
BRANCH  12  13
ATOM     13  C   UNL     1      -3.274  -3.055  -1.130  0.00  0.00    +0.000 C 
ATOM     14  C   UNL     1      -4.338  -4.147  -1.032  0.00  0.00    +0.000 C 
ATOM     15  C   UNL     1      -4.369  -4.768  -2.424  0.00  0.00    +0.000 C 
ATOM     16  C   UNL     1      -2.996  -4.496  -3.040  0.00  0.00    +0.000 C 
ATOM     17  C   UNL     1      -2.203  -3.733  -1.985  0.00  0.00    +0.000 C 
ENDBRANCH  12  13
ENDBRANCH   4  12
TORSDOF 2
