REMARK  Name = *****
REMARK  4 active torsions:
REMARK  status: ('A' for Active; 'I' for Inactive)
REMARK    1  A    between atoms: C_1  and  C_2
REMARK    2  A    between atoms: C_3  and  C_14
REMARK    3  A    between atoms: N_4  and  S_5
REMARK    4  A    between atoms: S_5  and  C_8
REMARK                            x       y       z     vdW  Elec       q    Type
REMARK                         _______ _______ _______ _____ _____    ______ ____
ROOT
ATOM      1  C   UNL     1       1.047  -0.207   0.086  0.00  0.00    +0.000 C 
ATOM      2  C   UNL     1       2.526  -0.162  -0.053  0.00  0.00    +0.000 C 
ATOM      3  C   UNL     1       3.195   0.679  -1.127  0.00  0.00    +0.000 C 
ATOM      4  N   UNL     1       3.232  -0.793  -1.166  0.00  0.00    +0.000 NA
ENDROOT
BRANCH   3   5
ATOM      5  C   UNL     1       4.457   1.436  -0.796  0.00  0.00    +0.000 A 
ATOM      6  C   UNL     1       5.695   1.085  -1.361  0.00  0.00    +0.000 A 
ATOM      7  C   UNL     1       6.861   1.794  -1.060  0.00  0.00    +0.000 A 
ATOM      8  C   UNL     1       6.810   2.878  -0.189  0.00  0.00    +0.000 A 
ATOM      9  C   UNL     1       5.596   3.252   0.379  0.00  0.00    +0.000 A 
ATOM     10  C   UNL     1       4.433   2.538   0.076  0.00  0.00    +0.000 A 
ENDBRANCH   3   5
BRANCH   4  11
ATOM     11  S   UNL     1       2.348  -1.561  -2.399  0.00  0.00    +0.000 S 
ATOM     12  O   UNL     1       1.800  -2.794  -1.873  0.00  0.00    +0.000 OA
ATOM     13  O   UNL     1       1.503  -0.602  -3.083  0.00  0.00    +0.000 OA
BRANCH  11  14
ATOM     14  C   UNL     1       3.672  -1.999  -3.504  0.00  0.00    +0.000 A 
ATOM     15  C   UNL     1       4.539  -3.036  -3.147  0.00  0.00    +0.000 A 
ATOM     16  C   UNL     1       5.582  -3.384  -4.005  0.00  0.00    +0.000 A 
ATOM     17  C   UNL     1       5.748  -2.704  -5.213  0.00  0.00    +0.000 A 
ATOM     18  C   UNL     1       4.873  -1.676  -5.569  0.00  0.00    +0.000 A 
ATOM     19  C   UNL     1       3.828  -1.320  -4.715  0.00  0.00    +0.000 A 
ENDBRANCH  11  14
ENDBRANCH   4  11
TORSDOF 3
