REMARK  Name = *****
REMARK  4 active torsions:
REMARK  status: ('A' for Active; 'I' for Inactive)
REMARK    1  A    between atoms: C_1  and  C_2
REMARK    2  A    between atoms: C_4  and  C_20
REMARK    3  A    between atoms: C_6  and  C_8
REMARK    4  A    between atoms: C_8  and  C_19
REMARK                            x       y       z     vdW  Elec       q    Type
REMARK                         _______ _______ _______ _____ _____    ______ ____
ROOT
ATOM      1  C   UNL     1      -2.731   0.630  -0.843  0.00  0.00    +0.000 C 
ATOM      2  C   UNL     1      -1.977   0.213  -2.114  0.00  0.00    +0.000 C 
ATOM      3  C   UNL     1      -0.629   0.877  -2.139  0.00  0.00    +0.000 C 
ATOM      4  O   UNL     1       0.353   0.353  -2.654  0.00  0.00    +0.000 OA
ATOM      5  C   UNL     1      -0.576   2.246  -1.598  0.00  0.00    +0.000 A 
ATOM      6  C   UNL     1       0.584   3.016  -1.713  0.00  0.00    +0.000 A 
ATOM      7  C   UNL     1       0.585   4.332  -1.249  0.00  0.00    +0.000 A 
ATOM      8  C   UNL     1      -0.571   4.874  -0.683  0.00  0.00    +0.000 A 
ATOM      9  C   UNL     1      -1.726   4.098  -0.568  0.00  0.00    +0.000 A 
ATOM     10  C   UNL     1      -1.724   2.776  -1.011  0.00  0.00    +0.000 A 
ATOM     11  O   UNL     1      -2.889   2.072  -0.845  0.00  0.00    +0.000 OA
ATOM     12  C   UNL     1      -4.162   0.064  -0.940  0.00  0.00    +0.000 C 
ENDROOT
BRANCH   1  18
ATOM     13  C   UNL     1       0.167  -2.558   1.885  0.00  0.00    +0.000 C 
ATOM     14  C   UNL     1      -0.777  -1.393   1.822  0.00  0.00    +0.000 A 
ATOM     15  C   UNL     1      -1.101  -0.684   2.983  0.00  0.00    +0.000 A 
ATOM     16  C   UNL     1      -1.965   0.413   2.929  0.00  0.00    +0.000 A 
ATOM     17  C   UNL     1      -2.472   0.821   1.688  0.00  0.00    +0.000 A 
ATOM     18  C   UNL     1      -2.140   0.149   0.495  0.00  0.00    +0.000 A 
ATOM     19  C   UNL     1      -1.292  -0.968   0.588  0.00  0.00    +0.000 A 
ATOM     20  C   UNL     1      -2.290   1.187   4.172  0.00  0.00    +0.000 C 
ENDBRANCH   1  18
TORSDOF 1
