MODEL 1
REMARK VINA RESULT:      -5.3      0.000      0.000
REMARK  Name = *****
REMARK  2 active torsions:
REMARK  status: ('A' for Active; 'I' for Inactive)
REMARK    1  A    between atoms: C_1  and  C_2
REMARK    2  A    between atoms: C_9  and  C_13
REMARK                            x       y       z     vdW  Elec       q    Type
REMARK                         _______ _______ _______ _____ _____    ______ ____
ROOT
ATOM      1  C   UNL     1      98.679 131.359  85.321  0.00  0.00    +0.000 C 
ATOM      2  C   UNL     1      99.623 130.350  84.737  0.00  0.00    +0.000 A 
ATOM      3  C   UNL     1      99.132 129.233  84.049  0.00  0.00    +0.000 A 
ATOM      4  C   UNL     1     100.022 128.318  83.477  0.00  0.00    +0.000 A 
ATOM      5  C   UNL     1     101.399 128.504  83.588  0.00  0.00    +0.000 A 
ATOM      6  C   UNL     1     101.893 129.631  84.240  0.00  0.00    +0.000 A 
ATOM      7  C   UNL     1     101.009 130.550  84.812  0.00  0.00    +0.000 A 
ATOM      8  O   UNL     1     102.325 127.646  83.057  0.00  0.00    +0.000 OA
ATOM      9  C   UNL     1     101.813 126.315  82.874  0.00  0.00    +0.000 C 
ATOM     10  C   UNL     1     100.558 126.326  82.012  0.00  0.00    +0.000 C 
ATOM     11  C   UNL     1      99.521 127.163  82.707  0.00  0.00    +0.000 C 
ATOM     12  O   UNL     1      98.319 126.945  82.599  0.00  0.00    +0.000 OA
ENDROOT
BRANCH   9  13
ATOM     13  C   UNL     1     102.891 125.460  82.231  0.00  0.00    +0.000 A 
ATOM     14  C   UNL     1     103.576 124.502  82.996  0.00  0.00    +0.000 A 
ATOM     15  C   UNL     1     104.554 123.691  82.413  0.00  0.00    +0.000 A 
ATOM     16  C   UNL     1     104.850 123.829  81.060  0.00  0.00    +0.000 A 
ATOM     17  C   UNL     1     104.178 124.768  80.282  0.00  0.00    +0.000 A 
ATOM     18  C   UNL     1     103.200 125.578  80.865  0.00  0.00    +0.000 A 
ATOM     19 CL   UNL     1     106.054 122.829  80.342  0.00  0.00    +0.000 Cl
ENDBRANCH   9  13
TORSDOF 1
ENDMDL
