MODEL 1
REMARK VINA RESULT:      -5.3      0.000      0.000
REMARK  Name = *****
REMARK  2 active torsions:
REMARK  status: ('A' for Active; 'I' for Inactive)
REMARK    1  A    between atoms: C_1  and  C_2
REMARK    2  A    between atoms: C_5  and  C_8
REMARK                            x       y       z     vdW  Elec       q    Type
REMARK                         _______ _______ _______ _____ _____    ______ ____
ROOT
ATOM      1  C   UNL     1     102.231 125.756  82.002  0.00  0.00    +0.000 C 
ATOM      2  C   UNL     1     103.130 125.055  83.027  0.00  0.00    +0.000 C 
ATOM      3  C   UNL     1     104.017 124.045  82.353  0.00  0.00    +0.000 A 
ATOM      4  C   UNL     1     104.674 123.071  83.118  0.00  0.00    +0.000 A 
ATOM      5  C   UNL     1     105.498 122.127  82.502  0.00  0.00    +0.000 A 
ATOM      6  C   UNL     1     105.674 122.149  81.121  0.00  0.00    +0.000 A 
ATOM      7  C   UNL     1     105.032 123.122  80.354  0.00  0.00    +0.000 A 
ATOM      8  C   UNL     1     104.219 124.075  80.968  0.00  0.00    +0.000 A 
ATOM      9  O   UNL     1     103.628 124.986  80.133  0.00  0.00    +0.000 OA
ATOM     10  C   UNL     1     103.089 126.137  80.793  0.00  0.00    +0.000 C 
ENDROOT
BRANCH   1  15
ATOM     11  C   UNL     1      99.307 130.284  84.250  0.00  0.00    +0.000 C 
ATOM     12  C   UNL     1     100.062 129.109  83.702  0.00  0.00    +0.000 A 
ATOM     13  C   UNL     1     101.458 129.083  83.745  0.00  0.00    +0.000 A 
ATOM     14  C   UNL     1     102.165 128.006  83.204  0.00  0.00    +0.000 A 
ATOM     15  C   UNL     1     101.490 126.936  82.598  0.00  0.00    +0.000 A 
ATOM     16  C   UNL     1     100.089 126.974  82.547  0.00  0.00    +0.000 A 
ATOM     17  C   UNL     1      99.383 128.053  83.087  0.00  0.00    +0.000 A 
ENDBRANCH   1  15
TORSDOF 1
ENDMDL
