REMARK  Name = *****
REMARK  3 active torsions:
REMARK  status: ('A' for Active; 'I' for Inactive)
REMARK    1  A    between atoms: C_1  and  C_2
REMARK    2  A    between atoms: N_12  and  N_13
REMARK    3  A    between atoms: C_14  and  C_15
REMARK                            x       y       z     vdW  Elec       q    Type
REMARK                         _______ _______ _______ _____ _____    ______ ____
ROOT
ATOM      1  C   UNL     1       1.240   0.108   1.945  0.00  0.00    +0.000 C 
ATOM      2  C   UNL     1       2.490   0.062   1.097  0.00  0.00    +0.000 A 
ATOM      3  N   UNL     1       3.209   1.140   1.029  0.00  0.00    +0.000 NA
ATOM      4  C   UNL     1       4.392   1.097   0.280  0.00  0.00    +0.000 A 
ATOM      5  C   UNL     1       5.143   2.267   0.145  0.00  0.00    +0.000 A 
ATOM      6  C   UNL     1       6.346   2.265  -0.569  0.00  0.00    +0.000 A 
ATOM      7  C   UNL     1       6.810   1.086  -1.152  0.00  0.00    +0.000 A 
ATOM      8  C   UNL     1       6.071  -0.089  -1.024  0.00  0.00    +0.000 A 
ATOM      9  C   UNL     1       4.866  -0.075  -0.310  0.00  0.00    +0.000 A 
ATOM     10  C   UNL     1       4.054  -1.297  -0.169  0.00  0.00    +0.000 A 
ATOM     11  O   UNL     1       4.505  -2.367  -0.577  0.00  0.00    +0.000 OA
ATOM     12  N   UNL     1       2.803  -1.114   0.432  0.00  0.00    +0.000 N 
ENDROOT
BRANCH  12  13
ATOM     13  N   UNL     1       2.025  -2.241   0.577  0.00  0.00    +0.000 NA
ATOM     14  C   UNL     1       0.918  -2.335  -0.100  0.00  0.00    +0.000 C 
BRANCH  14  15
ATOM     15  C   UNL     1       0.300  -1.405  -1.063  0.00  0.00    +0.000 A 
ATOM     16  C   UNL     1      -1.077  -1.184  -0.934  0.00  0.00    +0.000 A 
ATOM     17  C   UNL     1      -1.733  -0.321  -1.816  0.00  0.00    +0.000 A 
ATOM     18  C   UNL     1      -1.020   0.308  -2.837  0.00  0.00    +0.000 A 
ATOM     19  C   UNL     1       0.346   0.066  -2.982  0.00  0.00    +0.000 A 
ATOM     20  C   UNL     1       0.998  -0.794  -2.101  0.00  0.00    +0.000 A 
ATOM     21  F   UNL     1       2.296  -1.042  -2.313  0.00  0.00    +0.000 F 
ENDBRANCH  14  15
ENDBRANCH  12  13
TORSDOF 2
