MODEL 1
REMARK VINA RESULT:      -4.8      0.000      0.000
REMARK  Name = *****
REMARK  1 active torsions:
REMARK  status: ('A' for Active; 'I' for Inactive)
REMARK    1  A    between atoms: C_9  and  C_11
REMARK                            x       y       z     vdW  Elec       q    Type
REMARK                         _______ _______ _______ _____ _____    ______ ____
ROOT
ATOM      1  C   UNL     1      99.041 129.054  83.295  0.00  0.00    +0.000 C 
ATOM      2  C   UNL     1      98.459 127.652  83.124  0.00  0.00    +0.000 C 
ATOM      3  C   UNL     1      99.398 126.740  82.341  0.00  0.00    +0.000 C 
ATOM      4  C   UNL     1     100.790 126.700  82.970  0.00  0.00    +0.000 C 
ATOM      5  C   UNL     1     101.372 128.116  83.084  0.00  0.00    +0.000 C 
ATOM      6  C   UNL     1     100.445 129.023  83.896  0.00  0.00    +0.000 C 
ATOM      7  C   UNL     1     102.781 128.048  83.681  0.00  0.00    +0.000 C 
ATOM      8  C   UNL     1     103.643 127.071  82.884  0.00  0.00    +0.000 C 
ATOM      9  C   UNL     1     102.941 125.715  82.733  0.00  0.00    +0.000 C 
ATOM     10  O   UNL     1     101.637 125.886  82.157  0.00  0.00    +0.000 OA
ENDROOT
BRANCH   9  11
ATOM     11  C   UNL     1     103.764 124.777  81.870  0.00  0.00    +0.000 A 
ATOM     12  C   UNL     1     104.167 123.532  82.378  0.00  0.00    +0.000 A 
ATOM     13  C   UNL     1     104.947 122.667  81.607  0.00  0.00    +0.000 A 
ATOM     14  C   UNL     1     105.340 123.038  80.323  0.00  0.00    +0.000 A 
ATOM     15  C   UNL     1     104.953 124.274  79.808  0.00  0.00    +0.000 A 
ATOM     16  C   UNL     1     104.173 125.138  80.578  0.00  0.00    +0.000 A 
ENDBRANCH   9  11
TORSDOF 1
ENDMDL
