MODEL 1
REMARK VINA RESULT:      -5.2      0.000      0.000
REMARK  Name = *****
REMARK  4 active torsions:
REMARK  status: ('A' for Active; 'I' for Inactive)
REMARK    1  A    between atoms: C_1  and  C_2
REMARK    2  A    between atoms: C_9  and  C_19
REMARK    3  A    between atoms: C_10  and  C_11
REMARK    4  A    between atoms: C_10  and  O_12
REMARK                            x       y       z     vdW  Elec       q    Type
REMARK                         _______ _______ _______ _____ _____    ______ ____
ROOT
ATOM      1  C   UNL     1      89.725  68.606  86.556  0.00  0.00    +0.000 C 
ATOM      2  C   UNL     1      88.630  69.635  86.379  0.00  0.00    +0.000 C 
ATOM      3  C   UNL     1      88.885  70.749  85.353  0.00  0.00    +0.000 A 
ATOM      4  C   UNL     1      90.051  71.240  84.803  0.00  0.00    +0.000 A 
ATOM      5  C   UNL     1      89.940  72.287  83.885  0.00  0.00    +0.000 A 
ATOM      6  C   UNL     1      88.684  72.827  83.540  0.00  0.00    +0.000 A 
ATOM      7  C   UNL     1      87.504  72.334  84.105  0.00  0.00    +0.000 A 
ATOM      8  C   UNL     1      87.617  71.295  85.006  0.00  0.00    +0.000 A 
ATOM      9  C   UNL     1      86.559  70.526  85.810  0.00  0.00    +0.000 C 
ATOM     10  C   UNL     1      87.259  69.105  85.790  0.00  0.00    +0.000 C 
ATOM     11  C   UNL     1      86.562  68.007  86.612  0.00  0.00    +0.000 C 
ATOM     12  C   UNL     1      86.810  70.873  87.282  0.00  0.00    +0.000 A 
ATOM     13  C   UNL     1      86.060  71.584  88.195  0.00  0.00    +0.000 A 
ATOM     14  C   UNL     1      86.590  71.741  89.478  0.00  0.00    +0.000 A 
ATOM     15  C   UNL     1      87.846  71.202  89.823  0.00  0.00    +0.000 A 
ATOM     16  C   UNL     1      88.608  70.489  88.893  0.00  0.00    +0.000 A 
ATOM     17  C   UNL     1      88.080  70.327  87.629  0.00  0.00    +0.000 A 
ATOM     18  C   UNL     1      85.136  70.578  85.297  0.00  0.00    +0.000 C 
ENDROOT
BRANCH  10  19
ATOM     19  O   UNL     1      87.370  68.522  84.474  0.00  0.00    +0.000 OA
ATOM     20  H   UNL     1      88.266  68.176  84.348  0.00  0.00    +0.000 HD
ENDBRANCH  10  19
TORSDOF 1
ENDMDL
