MODEL 1
REMARK VINA RESULT:      -4.9      0.000      0.000
REMARK  Name = *****
REMARK  3 active torsions:
REMARK  status: ('A' for Active; 'I' for Inactive)
REMARK    1  A    between atoms: C_9  and  C_11
REMARK    2  A    between atoms: C_11  and  O_12
REMARK    3  A    between atoms: O_12  and  C_13
REMARK                            x       y       z     vdW  Elec       q    Type
REMARK                         _______ _______ _______ _____ _____    ______ ____
ROOT
ATOM      1  C   UNL     1      86.308  62.303  89.650  0.00  0.00    +0.000 A 
ATOM      2  C   UNL     1      86.873  63.337  90.387  0.00  0.00    +0.000 A 
ATOM      3  C   UNL     1      87.705  64.260  89.752  0.00  0.00    +0.000 A 
ATOM      4  C   UNL     1      87.983  64.171  88.394  0.00  0.00    +0.000 A 
ATOM      5  C   UNL     1      87.406  63.118  87.642  0.00  0.00    +0.000 A 
ATOM      6  C   UNL     1      86.581  62.203  88.285  0.00  0.00    +0.000 A 
ATOM      7  N   UNL     1      87.643  62.987  86.322  0.00  0.00    +0.000 NA
ATOM      8  C   UNL     1      88.447  63.919  85.762  0.00  0.00    +0.000 A 
ATOM      9  C   UNL     1      89.014  64.958  86.485  0.00  0.00    +0.000 A 
ATOM     10  N   UNL     1      88.794  65.083  87.819  0.00  0.00    +0.000 NA
ENDROOT
BRANCH   9  11
ATOM     11  C   UNL     1      89.933  65.951  85.821  0.00  0.00    +0.000 C 
BRANCH  11  12
ATOM     12  O   UNL     1      90.183  67.040  86.712  0.00  0.00    +0.000 OA
BRANCH  12  13
ATOM     13  C   UNL     1      89.963  68.300  86.232  0.00  0.00    +0.000 A 
ATOM     14  C   UNL     1      89.683  69.435  86.997  0.00  0.00    +0.000 A 
ATOM     15  C   UNL     1      89.481  70.670  86.370  0.00  0.00    +0.000 A 
ATOM     16  C   UNL     1      89.559  70.771  84.983  0.00  0.00    +0.000 A 
ATOM     17  C   UNL     1      89.840  69.646  84.213  0.00  0.00    +0.000 A 
ATOM     18  C   UNL     1      90.044  68.414  84.841  0.00  0.00    +0.000 A 
ATOM     19 CL   UNL     1      89.307  72.291  84.218  0.00  0.00    +0.000 Cl
ENDBRANCH  12  13
ENDBRANCH  11  12
ENDBRANCH   9  11
TORSDOF 3
ENDMDL
