REMARK  Name = *****
REMARK  6 active torsions:
REMARK  status: ('A' for Active; 'I' for Inactive)
REMARK    1  A    between atoms: C_1  and  C_2
REMARK    2  A    between atoms: C_2  and  C_22
REMARK    3  A    between atoms: C_12  and  C_13
REMARK    4  A    between atoms: C_12  and  O_21
REMARK    5  A    between atoms: C_16  and  O_19
REMARK    6  A    between atoms: O_19  and  C_20
REMARK                            x       y       z     vdW  Elec       q    Type
REMARK                         _______ _______ _______ _____ _____    ______ ____
ROOT
ATOM      1  C   UNL     1       0.982   0.240  -0.108  0.00  0.00    +0.000 C 
ATOM      2  C   UNL     1       2.517   0.128  -0.180  0.00  0.00    +0.000 C 
ATOM      3  C   UNL     1       3.183   1.478   0.021  0.00  0.00    +0.000 C 
ATOM      4  O   UNL     1       2.620   2.546  -0.203  0.00  0.00    +0.000 OA
ATOM      5  C   UNL     1       4.596   1.464   0.452  0.00  0.00    +0.000 A 
ATOM      6  C   UNL     1       5.333   2.650   0.509  0.00  0.00    +0.000 A 
ATOM      7  C   UNL     1       6.678   2.611   0.879  0.00  0.00    +0.000 A 
ATOM      8  C   UNL     1       7.282   1.390   1.183  0.00  0.00    +0.000 A 
ATOM      9  C   UNL     1       6.541   0.208   1.128  0.00  0.00    +0.000 A 
ATOM     10  C   UNL     1       5.192   0.246   0.777  0.00  0.00    +0.000 A 
ATOM     11  O   UNL     1       4.534  -0.953   0.752  0.00  0.00    +0.000 OA
ATOM     12  C   UNL     1       3.100  -0.856   0.878  0.00  0.00    +0.000 C 
ATOM     13  C   UNL     1       2.863  -0.310  -1.627  0.00  0.00    +0.000 C 
ENDROOT
BRANCH  12  14
ATOM     14  C   UNL     1       2.784  -0.683   2.373  0.00  0.00    +0.000 A 
ATOM     15  C   UNL     1       2.319   0.506   2.954  0.00  0.00    +0.000 A 
ATOM     16  C   UNL     1       2.096   0.600   4.335  0.00  0.00    +0.000 A 
ATOM     17  C   UNL     1       2.339  -0.482   5.179  0.00  0.00    +0.000 A 
ATOM     18  C   UNL     1       2.813  -1.668   4.629  0.00  0.00    +0.000 A 
ATOM     19  C   UNL     1       3.036  -1.761   3.249  0.00  0.00    +0.000 A 
BRANCH  17  20
ATOM     20  O   UNL     1       2.081  -0.250   6.501  0.00  0.00    +0.000 OA
ATOM     21  C   UNL     1       2.308  -1.330   7.397  0.00  0.00    +0.000 C 
ENDBRANCH  17  20
ENDBRANCH  12  14
BRANCH  12  22
ATOM     22  O   UNL     1       2.607  -2.165   0.543  0.00  0.00    +0.000 OA
ATOM     23  H   UNL     1       2.774  -2.343  -0.396  0.00  0.00    +0.000 HD
ENDBRANCH  12  22
TORSDOF 3
