MODEL 1
REMARK VINA RESULT:      -4.5      0.000      0.000
REMARK  Name = *****
REMARK  3 active torsions:
REMARK  status: ('A' for Active; 'I' for Inactive)
REMARK    1  A    between atoms: C_4  and  S_7
REMARK    2  A    between atoms: S_7  and  C_8
REMARK    3  A    between atoms: C_8  and  C_9
REMARK                            x       y       z     vdW  Elec       q    Type
REMARK                         _______ _______ _______ _____ _____    ______ ____
ROOT
ATOM      1  C   UNL     1      89.337  68.569  86.825  0.00  0.00    +0.000 A 
ATOM      2  N   UNL     1      90.398  68.048  86.243  0.00  0.00    +0.000 NA
ATOM      3  C   UNL     1      90.220  66.686  86.063  0.00  0.00    +0.000 A 
ATOM      4  C   UNL     1      91.155  65.800  85.491  0.00  0.00    +0.000 A 
ATOM      5  C   UNL     1      90.840  64.442  85.363  0.00  0.00    +0.000 A 
ATOM      6  C   UNL     1      89.607  63.961  85.794  0.00  0.00    +0.000 A 
ATOM      7  C   UNL     1      88.663  64.820  86.366  0.00  0.00    +0.000 A 
ATOM      8  C   UNL     1      88.991  66.181  86.492  0.00  0.00    +0.000 A 
ATOM      9  S   UNL     1      88.054  67.468  87.146  0.00  0.00    +0.000 S 
ENDROOT
BRANCH   1  10
ATOM     10  C   UNL     1      89.190  70.021  87.163  0.00  0.00    +0.000 C 
BRANCH  10  11
ATOM     11  S   UNL     1      88.098  70.250  88.609  0.00  0.00    +0.000 S 
BRANCH  11  15
ATOM     12  C   UNL     1      84.536  72.410  86.660  0.00  0.00    +0.000 A 
ATOM     13  C   UNL     1      84.565  72.285  88.046  0.00  0.00    +0.000 A 
ATOM     14  C   UNL     1      85.633  71.637  88.675  0.00  0.00    +0.000 A 
ATOM     15  C   UNL     1      86.691  71.113  87.923  0.00  0.00    +0.000 A 
ATOM     16  C   UNL     1      86.645  71.239  86.527  0.00  0.00    +0.000 A 
ATOM     17  C   UNL     1      85.576  71.884  85.898  0.00  0.00    +0.000 A 
ENDBRANCH  11  15
ENDBRANCH  10  11
ENDBRANCH   1  10
TORSDOF 3
ENDMDL
