MODEL 1
REMARK VINA RESULT:      -4.6      0.000      0.000
REMARK  Name = *****
REMARK  5 active torsions:
REMARK  status: ('A' for Active; 'I' for Inactive)
REMARK    1  A    between atoms: C_4  and  C_7
REMARK    2  A    between atoms: C_7  and  C_8
REMARK    3  A    between atoms: C_7  and  O_18
REMARK    4  A    between atoms: C_8  and  S_9
REMARK    5  A    between atoms: S_9  and  C_11
REMARK                            x       y       z     vdW  Elec       q    Type
REMARK                         _______ _______ _______ _____ _____    ______ ____
ROOT
ATOM      1  C   UNL     1      88.675  65.729  86.187  0.00  0.00    +0.000 C 
ATOM      2 CL   UNL     1      87.529  66.100  84.857  0.00  0.00    +0.000 Cl
ENDROOT
BRANCH   1   3
ATOM      3  S   UNL     1      90.371  66.370  85.844  0.00  0.00    +0.000 S 
ATOM      4  O   UNL     1      90.790  65.915  84.476  0.00  0.00    +0.000 OA
BRANCH   3   5
ATOM      5  C   UNL     1      89.964  68.124  85.704  0.00  0.00    +0.000 A 
ATOM      6  C   UNL     1      89.645  68.854  86.855  0.00  0.00    +0.000 A 
ATOM      7  C   UNL     1      89.334  70.212  86.763  0.00  0.00    +0.000 A 
ATOM      8  C   UNL     1      89.349  70.848  85.522  0.00  0.00    +0.000 A 
ATOM      9  C   UNL     1      89.678  70.130  84.374  0.00  0.00    +0.000 A 
ATOM     10  C   UNL     1      89.990  68.772  84.464  0.00  0.00    +0.000 A 
ENDBRANCH   3   5
ENDBRANCH   1   3
BRANCH   1  11
ATOM     11  C   UNL     1      88.776  64.205  86.452  0.00  0.00    +0.000 C 
BRANCH  11  15
ATOM     12  C   UNL     1      86.592  63.141  90.119  0.00  0.00    +0.000 C 
ATOM     13  C   UNL     1      88.005  63.689  90.273  0.00  0.00    +0.000 C 
ATOM     14  C   UNL     1      88.446  64.441  89.014  0.00  0.00    +0.000 C 
ATOM     15  C   UNL     1      88.100  63.721  87.727  0.00  0.00    +0.000 C 
ATOM     16  C   UNL     1      87.231  62.692  87.712  0.00  0.00    +0.000 C 
ATOM     17  C   UNL     1      86.501  62.191  88.926  0.00  0.00    +0.000 C 
ENDBRANCH  11  15
BRANCH  11  18
ATOM     18  O   UNL     1      90.157  63.825  86.571  0.00  0.00    +0.000 OA
ATOM     19  H   UNL     1      90.426  63.869  87.501  0.00  0.00    +0.000 HD
ENDBRANCH  11  18
ENDBRANCH   1  11
TORSDOF 5
ENDMDL
