REMARK  Name = *****
REMARK  4 active torsions:
REMARK  status: ('A' for Active; 'I' for Inactive)
REMARK    1  A    between atoms: C_1  and  C_2
REMARK    2  A    between atoms: C_2  and  C_20
REMARK    3  A    between atoms: C_12  and  C_13
REMARK    4  A    between atoms: C_12  and  O_19
REMARK                            x       y       z     vdW  Elec       q    Type
REMARK                         _______ _______ _______ _____ _____    ______ ____
ROOT
ATOM      1  C   UNL     1       0.972   0.158  -0.071  0.00  0.00    +0.000 C 
ATOM      2  C   UNL     1       2.501   0.047  -0.214  0.00  0.00    +0.000 C 
ATOM      3  C   UNL     1       3.136   1.427  -0.174  0.00  0.00    +0.000 C 
ATOM      4  O   UNL     1       2.536   2.456  -0.472  0.00  0.00    +0.000 OA
ATOM      5  C   UNL     1       4.568   1.485   0.170  0.00  0.00    +0.000 A 
ATOM      6  C   UNL     1       5.286   2.676   0.016  0.00  0.00    +0.000 A 
ATOM      7  C   UNL     1       6.648   2.707   0.317  0.00  0.00    +0.000 A 
ATOM      8  C   UNL     1       7.286   1.552   0.768  0.00  0.00    +0.000 A 
ATOM      9  C   UNL     1       6.563   0.368   0.926  0.00  0.00    +0.000 A 
ATOM     10  C   UNL     1       5.198   0.337   0.639  0.00  0.00    +0.000 A 
ATOM     11  O   UNL     1       4.570  -0.857   0.841  0.00  0.00    +0.000 OA
ATOM     12  C   UNL     1       3.137  -0.834   0.903  0.00  0.00    +0.000 C 
ATOM     13  C   UNL     1       2.793  -0.513  -1.629  0.00  0.00    +0.000 C 
ENDROOT
BRANCH  12  14
ATOM     14  C   UNL     1       2.650  -0.604   2.381  0.00  0.00    +0.000 C 
ATOM     15  C   UNL     1       2.816   0.823   2.936  0.00  0.00    +0.000 C 
ATOM     16  C   UNL     1       2.270   0.951   4.359  0.00  0.00    +0.000 C 
ATOM     17  C   UNL     1       2.927  -0.047   5.304  0.00  0.00    +0.000 C 
ATOM     18  C   UNL     1       2.798  -1.471   4.781  0.00  0.00    +0.000 C 
ATOM     19  C   UNL     1       3.334  -1.599   3.355  0.00  0.00    +0.000 C 
ENDBRANCH  12  14
BRANCH  12  20
ATOM     20  O   UNL     1       2.749  -2.193   0.617  0.00  0.00    +0.000 OA
ATOM     21  H   UNL     1       3.015  -2.422  -0.287  0.00  0.00    +0.000 HD
ENDBRANCH  12  20
TORSDOF 2
