MODEL 1
REMARK VINA RESULT:      -5.1      0.000      0.000
REMARK  Name = *****
REMARK  1 active torsions:
REMARK  status: ('A' for Active; 'I' for Inactive)
REMARK    1  A    between atoms: C_2  and  C_12
REMARK                            x       y       z     vdW  Elec       q    Type
REMARK                         _______ _______ _______ _____ _____    ______ ____
ROOT
ATOM      1  C   UNL     1     102.605 125.564  83.803  0.00  0.00    +0.000 C 
ATOM      2  C   UNL     1     101.843 125.939  82.540  0.00  0.00    +0.000 C 
ATOM      3  O   UNL     1     102.743 126.339  81.493  0.00  0.00    +0.000 OA
ATOM      4  C   UNL     1     103.681 125.385  81.204  0.00  0.00    +0.000 A 
ATOM      5  C   UNL     1     104.257 125.435  79.937  0.00  0.00    +0.000 A 
ATOM      6  C   UNL     1     105.217 124.491  79.570  0.00  0.00    +0.000 A 
ATOM      7  C   UNL     1     105.609 123.499  80.471  0.00  0.00    +0.000 A 
ATOM      8  C   UNL     1     105.048 123.457  81.748  0.00  0.00    +0.000 A 
ATOM      9  C   UNL     1     104.089 124.406  82.112  0.00  0.00    +0.000 A 
ATOM     10  C   UNL     1     103.521 124.420  83.475  0.00  0.00    +0.000 C 
ATOM     11  O   UNL     1     103.838 123.570  84.301  0.00  0.00    +0.000 OA
ENDROOT
BRANCH   2  12
ATOM     12  C   UNL     1     100.879 127.079  82.817  0.00  0.00    +0.000 A 
ATOM     13  C   UNL     1     101.308 128.262  83.441  0.00  0.00    +0.000 A 
ATOM     14  C   UNL     1     100.405 129.290  83.713  0.00  0.00    +0.000 A 
ATOM     15  C   UNL     1      99.062 129.149  83.370  0.00  0.00    +0.000 A 
ATOM     16  C   UNL     1      98.621 127.979  82.756  0.00  0.00    +0.000 A 
ATOM     17  C   UNL     1      99.522 126.949  82.483  0.00  0.00    +0.000 A 
ENDBRANCH   2  12
TORSDOF 1
ENDMDL
