MODEL 1
REMARK VINA RESULT:      -4.4      0.000      0.000
REMARK  Name = *****
REMARK  2 active torsions:
REMARK  status: ('A' for Active; 'I' for Inactive)
REMARK    1  A    between atoms: C_4  and  S_7
REMARK    2  A    between atoms: S_7  and  C_8
REMARK                            x       y       z     vdW  Elec       q    Type
REMARK                         _______ _______ _______ _____ _____    ______ ____
ROOT
ATOM      1  C   UNL     1      89.258  68.526  86.815  0.00  0.00    +0.000 A 
ATOM      2  N   UNL     1      90.347  68.027  86.278  0.00  0.00    +0.000 NA
ATOM      3  C   UNL     1      90.189  66.665  86.083  0.00  0.00    +0.000 A 
ATOM      4  C   UNL     1      91.146  65.794  85.528  0.00  0.00    +0.000 A 
ATOM      5  C   UNL     1      90.854  64.432  85.395  0.00  0.00    +0.000 A 
ATOM      6  C   UNL     1      89.622  63.932  85.806  0.00  0.00    +0.000 A 
ATOM      7  C   UNL     1      88.655  64.777  86.359  0.00  0.00    +0.000 A 
ATOM      8  C   UNL     1      88.959  66.142  86.487  0.00  0.00    +0.000 A 
ATOM      9  S   UNL     1      87.988  67.419  87.113  0.00  0.00    +0.000 S 
ENDROOT
BRANCH   1  10
ATOM     10  S   UNL     1      89.106  70.229  87.196  0.00  0.00    +0.000 S 
BRANCH  10  14
ATOM     11  C   UNL     1      84.967  72.297  86.947  0.00  0.00    +0.000 C 
ATOM     12  C   UNL     1      85.492  71.624  85.683  0.00  0.00    +0.000 C 
ATOM     13  C   UNL     1      86.986  71.321  85.783  0.00  0.00    +0.000 C 
ATOM     14  C   UNL     1      87.302  70.482  87.030  0.00  0.00    +0.000 C 
ATOM     15  C   UNL     1      86.785  71.177  88.297  0.00  0.00    +0.000 C 
ATOM     16  C   UNL     1      85.290  71.478  88.193  0.00  0.00    +0.000 C 
ENDBRANCH  10  14
ENDBRANCH   1  10
TORSDOF 2
ENDMDL
