REMARK  Name = *****
REMARK  2 active torsions:
REMARK  status: ('A' for Active; 'I' for Inactive)
REMARK    1  A    between atoms: C_1  and  C_2
REMARK    2  A    between atoms: C_5  and  C_8
REMARK                            x       y       z     vdW  Elec       q    Type
REMARK                         _______ _______ _______ _____ _____    ______ ____
ROOT
ATOM      1  C   UNL     1      -3.437  -0.237  -0.082  0.00  0.00    +0.000 C 
ATOM      2  C   UNL     1      -4.127  -0.645   1.188  0.00  0.00    +0.000 C 
ATOM      3  C   UNL     1      -5.286  -0.105   1.576  0.00  0.00    +0.000 C 
ATOM      4  C   UNL     1      -5.903   0.909   0.718  0.00  0.00    +0.000 A 
ATOM      5  C   UNL     1      -7.192   1.422   0.932  0.00  0.00    +0.000 A 
ATOM      6  C   UNL     1      -7.721   2.407   0.091  0.00  0.00    +0.000 A 
ATOM      7  C   UNL     1      -6.966   2.896  -0.972  0.00  0.00    +0.000 A 
ATOM      8  C   UNL     1      -5.686   2.397  -1.197  0.00  0.00    +0.000 A 
ATOM      9  C   UNL     1      -5.164   1.402  -0.366  0.00  0.00    +0.000 A 
ATOM     10  O   UNL     1      -3.891   0.998  -0.662  0.00  0.00    +0.000 OA
ATOM     11 CL   UNL     1      -6.033  -0.622   3.038  0.00  0.00    +0.000 Cl
ENDROOT
BRANCH   1  16
ATOM     12  C   UNL     1       2.336   0.160   0.733  0.00  0.00    +0.000 C 
ATOM     13  C   UNL     1       0.852   0.046   0.544  0.00  0.00    +0.000 A 
ATOM     14  C   UNL     1       0.304  -1.040  -0.146  0.00  0.00    +0.000 A 
ATOM     15  C   UNL     1      -1.076  -1.129  -0.350  0.00  0.00    +0.000 A 
ATOM     16  C   UNL     1      -1.934  -0.124   0.120  0.00  0.00    +0.000 A 
ATOM     17  C   UNL     1      -1.377   0.969   0.802  0.00  0.00    +0.000 A 
ATOM     18  C   UNL     1       0.002   1.056   1.006  0.00  0.00    +0.000 A 
ENDBRANCH   1  16
TORSDOF 1
