MODEL 1
REMARK VINA RESULT:      -4.9      0.000      0.000
REMARK  Name = *****
REMARK  3 active torsions:
REMARK  status: ('A' for Active; 'I' for Inactive)
REMARK    1  A    between atoms: C_1  and  C_2
REMARK    2  A    between atoms: C_6  and  C_18
REMARK    3  A    between atoms: C_8  and  C_12
REMARK                            x       y       z     vdW  Elec       q    Type
REMARK                         _______ _______ _______ _____ _____    ______ ____
ROOT
ATOM      1  C   UNL     1      89.015  73.458  82.197  0.00  0.00    +0.000 C 
ATOM      2  C   UNL     1      88.444  72.314  83.033  0.00  0.00    +0.000 C 
ATOM      3  C   UNL     1      86.992  72.608  83.434  0.00  0.00    +0.000 C 
ATOM      4  C   UNL     1      86.416  71.492  84.305  0.00  0.00    +0.000 C 
ATOM      5  C   UNL     1      87.271  71.241  85.526  0.00  0.00    +0.000 C 
ATOM      6  C   UNL     1      86.827  71.224  86.802  0.00  0.00    +0.000 C 
ATOM      7  C   UNL     1      87.786  70.855  87.915  0.00  0.00    +0.000 C 
ATOM      8  C   UNL     1      89.057  70.151  87.411  0.00  0.00    +0.000 C 
ATOM      9  O   UNL     1      89.597  70.907  86.322  0.00  0.00    +0.000 OA
ATOM     10  C   UNL     1      88.731  70.965  85.179  0.00  0.00    +0.000 C 
ATOM     11  C   UNL     1      89.302  72.071  84.279  0.00  0.00    +0.000 C 
ATOM     12  C   UNL     1      85.433  71.528  87.271  0.00  0.00    +0.000 C 
ENDROOT
BRANCH   8  13
ATOM     13  C   UNL     1      88.999  68.666  87.078  0.00  0.00    +0.000 A 
ATOM     14  C   UNL     1      90.022  67.983  86.405  0.00  0.00    +0.000 A 
ATOM     15  C   UNL     1      89.906  66.618  86.124  0.00  0.00    +0.000 A 
ATOM     16  C   UNL     1      88.769  65.915  86.513  0.00  0.00    +0.000 A 
ATOM     17  C   UNL     1      87.743  66.575  87.184  0.00  0.00    +0.000 A 
ATOM     18  C   UNL     1      87.858  67.938  87.463  0.00  0.00    +0.000 A 
ENDBRANCH   8  13
TORSDOF 1
ENDMDL
