MODEL 1
REMARK VINA RESULT:      -5.6      0.000      0.000
REMARK  Name = *****
REMARK  2 active torsions:
REMARK  status: ('A' for Active; 'I' for Inactive)
REMARK    1  A    between atoms: C_1  and  C_2
REMARK    2  A    between atoms: C_5  and  C_8
REMARK                            x       y       z     vdW  Elec       q    Type
REMARK                         _______ _______ _______ _____ _____    ______ ____
ROOT
ATOM      1  C   UNL     1     102.532 125.618  81.928  0.00  0.00    +0.000 C 
ATOM      2  C   UNL     1     103.454 126.052  80.817  0.00  0.00    +0.000 C 
ATOM      3  C   UNL     1     103.521 127.244  80.198  0.00  0.00    +0.000 C 
ATOM      4  C   UNL     1     104.373 124.978  80.348  0.00  0.00    +0.000 C 
ATOM      5  O   UNL     1     104.912 124.994  79.248  0.00  0.00    +0.000 OA
ATOM      6  C   UNL     1     104.596 123.869  81.295  0.00  0.00    +0.000 A 
ATOM      7  C   UNL     1     105.401 122.784  80.934  0.00  0.00    +0.000 A 
ATOM      8  C   UNL     1     105.653 121.771  81.860  0.00  0.00    +0.000 A 
ATOM      9  C   UNL     1     105.113 121.850  83.145  0.00  0.00    +0.000 A 
ATOM     10  C   UNL     1     104.313 122.936  83.504  0.00  0.00    +0.000 A 
ATOM     11  C   UNL     1     104.040 123.936  82.572  0.00  0.00    +0.000 A 
ATOM     12  O   UNL     1     103.257 124.976  82.995  0.00  0.00    +0.000 OA
ENDROOT
BRANCH   1  17
ATOM     13  C   UNL     1      99.294 129.919  84.207  0.00  0.00    +0.000 C 
ATOM     14  C   UNL     1     100.124 128.824  83.607  0.00  0.00    +0.000 A 
ATOM     15  C   UNL     1      99.522 127.762  82.923  0.00  0.00    +0.000 A 
ATOM     16  C   UNL     1     100.299 126.731  82.390  0.00  0.00    +0.000 A 
ATOM     17  C   UNL     1     101.695 126.732  82.542  0.00  0.00    +0.000 A 
ATOM     18  C   UNL     1     102.292 127.797  83.234  0.00  0.00    +0.000 A 
ATOM     19  C   UNL     1     101.513 128.828  83.767  0.00  0.00    +0.000 A 
ENDBRANCH   1  17
TORSDOF 1
ENDMDL
