MODEL 1
REMARK VINA RESULT:      -4.7      0.000      0.000
REMARK  Name = *****
REMARK  3 active torsions:
REMARK  status: ('A' for Active; 'I' for Inactive)
REMARK    1  A    between atoms: C_1  and  O_2
REMARK    2  A    between atoms: O_2  and  C_3
REMARK    3  A    between atoms: C_3  and  C_14
REMARK                            x       y       z     vdW  Elec       q    Type
REMARK                         _______ _______ _______ _____ _____    ______ ____
ROOT
ATOM      1  C   UNL     1      87.839  65.882  86.935  0.00  0.00    +0.000 C 
ATOM      2  C   UNL     1      89.325  65.744  86.672  0.00  0.00    +0.000 C 
ATOM      3  C   UNL     1      90.074  66.778  86.254  0.00  0.00    +0.000 C 
ATOM      4  C   UNL     1      89.446  68.109  85.902  0.00  0.00    +0.000 C 
ATOM      5  C   UNL     1      90.015  68.599  84.555  0.00  0.00    +0.000 C 
ATOM      6  C   UNL     1      89.473  69.974  84.160  0.00  0.00    +0.000 C 
ATOM      7  C   UNL     1      89.703  71.006  85.258  0.00  0.00    +0.000 C 
ATOM      8  C   UNL     1      89.139  70.540  86.597  0.00  0.00    +0.000 C 
ATOM      9  C   UNL     1      89.690  69.168  86.991  0.00  0.00    +0.000 C 
ATOM     10  O   UNL     1      88.032  67.905  85.688  0.00  0.00    +0.000 OA
ATOM     11  O   UNL     1      87.452  67.278  86.891  0.00  0.00    +0.000 OA
ENDROOT
BRANCH   1  12
ATOM     12  C   UNL     1      87.546  65.407  88.376  0.00  0.00    +0.000 A 
ATOM     13  C   UNL     1      86.484  65.965  89.117  0.00  0.00    +0.000 A 
ATOM     14  C   UNL     1      86.227  65.563  90.431  0.00  0.00    +0.000 A 
ATOM     15  C   UNL     1      87.033  64.599  91.030  0.00  0.00    +0.000 A 
ATOM     16  C   UNL     1      88.094  64.039  90.328  0.00  0.00    +0.000 A 
ATOM     17  C   UNL     1      88.351  64.442  89.014  0.00  0.00    +0.000 A 
ATOM     18 CL   UNL     1      86.718  64.106  92.648  0.00  0.00    +0.000 Cl
ENDBRANCH   1  12
BRANCH   1  20
ATOM     19  C   UNL     1      87.852  64.015  85.399  0.00  0.00    +0.000 C 
ATOM     20  O   UNL     1      87.106  65.026  86.050  0.00  0.00    +0.000 OA
ENDBRANCH   1  20
TORSDOF 2
ENDMDL
