MODEL 1
REMARK VINA RESULT:      -5.2      0.000      0.000
REMARK  Name = *****
REMARK  2 active torsions:
REMARK  status: ('A' for Active; 'I' for Inactive)
REMARK    1  A    between atoms: C_1  and  C_2
REMARK    2  A    between atoms: C_9  and  C_13
REMARK                            x       y       z     vdW  Elec       q    Type
REMARK                         _______ _______ _______ _____ _____    ______ ____
ROOT
ATOM      1  C   UNL     1     106.826 121.700  83.599  0.00  0.00    +0.000 C 
ATOM      2  C   UNL     1     105.453 121.298  83.054  0.00  0.00    +0.000 C 
ATOM      3  C   UNL     1     105.509 120.981  81.554  0.00  0.00    +0.000 C 
ATOM      4  C   UNL     1     105.658 122.226  80.678  0.00  0.00    +0.000 C 
ATOM      5  C   UNL     1     104.562 123.261  80.973  0.00  0.00    +0.000 C 
ATOM      6  C   UNL     1     104.548 123.622  82.477  0.00  0.00    +0.000 C 
ATOM      7  C   UNL     1     104.394 122.367  83.342  0.00  0.00    +0.000 C 
ATOM      8  O   UNL     1     103.447 124.493  82.784  0.00  0.00    +0.000 OA
ATOM      9  C   UNL     1     103.558 125.751  82.090  0.00  0.00    +0.000 C 
ATOM     10  C   UNL     1     103.540 125.530  80.565  0.00  0.00    +0.000 C 
ATOM     11  C   UNL     1     104.624 124.550  80.162  0.00  0.00    +0.000 C 
ATOM     12  C   UNL     1     105.514 124.842  79.199  0.00  0.00    +0.000 C 
ENDROOT
BRANCH   9  13
ATOM     13  C   UNL     1     102.422 126.664  82.514  0.00  0.00    +0.000 A 
ATOM     14  C   UNL     1     101.091 126.269  82.306  0.00  0.00    +0.000 A 
ATOM     15  C   UNL     1     100.035 127.085  82.717  0.00  0.00    +0.000 A 
ATOM     16  C   UNL     1     100.296 128.302  83.345  0.00  0.00    +0.000 A 
ATOM     17  C   UNL     1     101.610 128.704  83.562  0.00  0.00    +0.000 A 
ATOM     18  C   UNL     1     102.668 127.889  83.152  0.00  0.00    +0.000 A 
ENDBRANCH   9  13
TORSDOF 1
ENDMDL
