MODEL 1
REMARK VINA RESULT:      -5.5      0.000      0.000
REMARK  Name = *****
REMARK  2 active torsions:
REMARK  status: ('A' for Active; 'I' for Inactive)
REMARK    1  A    between atoms: C_1  and  C_2
REMARK    2  A    between atoms: C_5  and  C_8
REMARK                            x       y       z     vdW  Elec       q    Type
REMARK                         _______ _______ _______ _____ _____    ______ ____
ROOT
ATOM      1  C   UNL     1     101.878 126.967  82.157  0.00  0.00    +0.000 C 
ATOM      2  C   UNL     1     100.486 126.353  82.214  0.00  0.00    +0.000 C 
ATOM      3  C   UNL     1      99.512 127.438  82.577  0.00  0.00    +0.000 C 
ATOM      4  O   UNL     1      98.347 127.436  82.195  0.00  0.00    +0.000 OA
ATOM      5  C   UNL     1     100.005 128.484  83.494  0.00  0.00    +0.000 A 
ATOM      6  C   UNL     1     101.346 128.456  83.883  0.00  0.00    +0.000 A 
ATOM      7  O   UNL     1     102.246 127.531  83.427  0.00  0.00    +0.000 OA
ATOM      8  C   UNL     1     101.819 129.387  84.806  0.00  0.00    +0.000 A 
ATOM      9  C   UNL     1     100.958 130.364  85.311  0.00  0.00    +0.000 A 
ATOM     10  C   UNL     1      99.624 130.399  84.899  0.00  0.00    +0.000 A 
ATOM     11  C   UNL     1      99.138 129.459  83.992  0.00  0.00    +0.000 A 
ATOM     12 CL   UNL     1      98.571 131.605  85.527  0.00  0.00    +0.000 Cl
ENDROOT
BRANCH   1  17
ATOM     13  C   UNL     1     105.745 122.882  80.587  0.00  0.00    +0.000 C 
ATOM     14  C   UNL     1     104.778 123.951  81.000  0.00  0.00    +0.000 A 
ATOM     15  C   UNL     1     104.308 124.884  80.071  0.00  0.00    +0.000 A 
ATOM     16  C   UNL     1     103.383 125.861  80.452  0.00  0.00    +0.000 A 
ATOM     17  C   UNL     1     102.905 125.919  81.768  0.00  0.00    +0.000 A 
ATOM     18  C   UNL     1     103.364 124.968  82.691  0.00  0.00    +0.000 A 
ATOM     19  C   UNL     1     104.289 123.992  82.310  0.00  0.00    +0.000 A 
ENDBRANCH   1  17
TORSDOF 1
ENDMDL
