MODEL 1
REMARK VINA RESULT:      -5.1      0.000      0.000
REMARK  Name = *****
REMARK  2 active torsions:
REMARK  status: ('A' for Active; 'I' for Inactive)
REMARK    1  A    between atoms: C_4  and  C_9
REMARK    2  A    between atoms: C_12  and  C_14
REMARK                            x       y       z     vdW  Elec       q    Type
REMARK                         _______ _______ _______ _____ _____    ______ ____
ROOT
ATOM      1  C   UNL     1      89.508  70.152  85.670  0.00  0.00    +0.000 C 
ATOM      2  C   UNL     1      89.432  68.696  86.014  0.00  0.00    +0.000 A 
ATOM      3  C   UNL     1      88.394  68.228  86.829  0.00  0.00    +0.000 A 
ATOM      4  C   UNL     1      88.298  66.869  87.165  0.00  0.00    +0.000 A 
ATOM      5  C   UNL     1      89.287  65.986  86.698  0.00  0.00    +0.000 A 
ATOM      6  C   UNL     1      90.331  66.455  85.903  0.00  0.00    +0.000 A 
ATOM      7  C   UNL     1      90.410  67.803  85.560  0.00  0.00    +0.000 A 
ATOM      8 CL   UNL     1      91.535  65.361  85.341  0.00  0.00    +0.000 Cl
ATOM      9  O   UNL     1      87.424  69.068  87.307  0.00  0.00    +0.000 OA
ATOM     10  C   UNL     1      87.727  70.458  87.135  0.00  0.00    +0.000 C 
ATOM     11  O   UNL     1      88.239  70.766  85.841  0.00  0.00    +0.000 OA
ENDROOT
BRANCH  10  12
ATOM     12  C   UNL     1      86.440  71.230  87.340  0.00  0.00    +0.000 A 
ATOM     13  C   UNL     1      85.931  71.444  88.631  0.00  0.00    +0.000 A 
ATOM     14  C   UNL     1      84.737  72.143  88.817  0.00  0.00    +0.000 A 
ATOM     15  C   UNL     1      84.033  72.630  87.716  0.00  0.00    +0.000 A 
ATOM     16  C   UNL     1      84.521  72.419  86.429  0.00  0.00    +0.000 A 
ATOM     17  C   UNL     1      85.716  71.722  86.241  0.00  0.00    +0.000 A 
ENDBRANCH  10  12
BRANCH   4  18
ATOM     18  C   UNL     1      87.192  66.353  88.043  0.00  0.00    +0.000 C 
ATOM     19 CL   UNL     1      87.748  64.940  88.968  0.00  0.00    +0.000 Cl
ENDBRANCH   4  18
TORSDOF 2
ENDMDL
