MODEL 1
REMARK VINA RESULT:      -4.7      0.000      0.000
REMARK  Name = *****
REMARK  3 active torsions:
REMARK  status: ('A' for Active; 'I' for Inactive)
REMARK    1  A    between atoms: C_4  and  C_7
REMARK    2  A    between atoms: C_8  and  S_18
REMARK    3  A    between atoms: C_9  and  S_17
REMARK                            x       y       z     vdW  Elec       q    Type
REMARK                         _______ _______ _______ _____ _____    ______ ____
ROOT
ATOM      1  C   UNL     1     102.832 125.733  83.206  0.00  0.00    +0.000 C 
ATOM      2  C   UNL     1     103.468 127.012  83.749  0.00  0.00    +0.000 C 
ATOM      3  C   UNL     1     102.754 128.152  83.868  0.00  0.00    +0.000 C 
ATOM      4  C   UNL     1     101.324 128.132  83.484  0.00  0.00    +0.000 A 
ATOM      5  C   UNL     1     100.447 129.223  83.655  0.00  0.00    +0.000 A 
ATOM      6  C   UNL     1      99.103 129.153  83.272  0.00  0.00    +0.000 A 
ATOM      7  C   UNL     1      98.601 127.989  82.706  0.00  0.00    +0.000 A 
ATOM      8  C   UNL     1      99.446 126.898  82.531  0.00  0.00    +0.000 A 
ATOM      9  C   UNL     1     100.788 126.968  82.925  0.00  0.00    +0.000 A 
ATOM     10  O   UNL     1     101.498 125.829  82.693  0.00  0.00    +0.000 OA
ENDROOT
BRANCH   1  14
ATOM     11  C   UNL     1     105.120 123.842  80.048  0.00  0.00    +0.000 A 
ATOM     12  C   UNL     1     104.905 123.174  81.251  0.00  0.00    +0.000 A 
ATOM     13  C   UNL     1     104.163 123.781  82.266  0.00  0.00    +0.000 A 
ATOM     14  C   UNL     1     103.632 125.070  82.089  0.00  0.00    +0.000 A 
ATOM     15  C   UNL     1     103.845 125.725  80.864  0.00  0.00    +0.000 A 
ATOM     16  C   UNL     1     104.588 125.116  79.853  0.00  0.00    +0.000 A 
ENDBRANCH   1  14
BRANCH   3  17
ATOM     17  S   UNL     1     103.418 129.652  84.472  0.00  0.00    +0.000 S 
ATOM     18  H   UNL     1     102.756 130.699  83.911  0.00  0.00    +0.000 HD
ENDBRANCH   3  17
BRANCH   2  19
ATOM     19  S   UNL     1     105.149 126.907  84.297  0.00  0.00    +0.000 S 
ATOM     20  H   UNL     1     105.206 127.149  85.635  0.00  0.00    +0.000 HD
ENDBRANCH   2  19
TORSDOF 3
ENDMDL
