MODEL 1
REMARK VINA RESULT:      -5.2      0.000      0.000
REMARK  Name = *****
REMARK  1 active torsions:
REMARK  status: ('A' for Active; 'I' for Inactive)
REMARK    1  A    between atoms: C_2  and  C_13
REMARK                            x       y       z     vdW  Elec       q    Type
REMARK                         _______ _______ _______ _____ _____    ______ ____
ROOT
ATOM      1  C   UNL     1     102.716 125.562  83.931  0.00  0.00    +0.000 C 
ATOM      2  C   UNL     1     101.948 126.025  82.700  0.00  0.00    +0.000 C 
ATOM      3  O   UNL     1     102.846 126.377  81.633  0.00  0.00    +0.000 OA
ATOM      4  C   UNL     1     103.704 125.364  81.298  0.00  0.00    +0.000 A 
ATOM      5  C   UNL     1     104.061 124.335  82.174  0.00  0.00    +0.000 A 
ATOM      6  C   UNL     1     103.528 124.357  83.549  0.00  0.00    +0.000 C 
ATOM      7  O   UNL     1     103.795 123.462  84.342  0.00  0.00    +0.000 OA
ATOM      8  C   UNL     1     104.938 123.328  81.768  0.00  0.00    +0.000 A 
ATOM      9  C   UNL     1     105.463 123.375  80.482  0.00  0.00    +0.000 A 
ATOM     10  C   UNL     1     105.135 124.406  79.606  0.00  0.00    +0.000 A 
ATOM     11  C   UNL     1     104.254 125.409  80.018  0.00  0.00    +0.000 A 
ATOM     12  F   UNL     1     106.309 122.417  80.082  0.00  0.00    +0.000 F 
ENDROOT
BRANCH   2  13
ATOM     13  C   UNL     1     101.084 127.230  83.034  0.00  0.00    +0.000 A 
ATOM     14  C   UNL     1      99.720 127.267  82.698  0.00  0.00    +0.000 A 
ATOM     15  C   UNL     1      98.948 128.393  82.991  0.00  0.00    +0.000 A 
ATOM     16  C   UNL     1      99.537 129.486  83.614  0.00  0.00    +0.000 A 
ATOM     17  C   UNL     1     100.886 129.476  83.948  0.00  0.00    +0.000 A 
ATOM     18  C   UNL     1     101.661 128.351  83.657  0.00  0.00    +0.000 A 
ATOM     19  F   UNL     1      98.797 130.566  83.894  0.00  0.00    +0.000 F 
ENDBRANCH   2  13
TORSDOF 1
ENDMDL
