MODEL 1
REMARK VINA RESULT:      -4.5      0.000      0.000
REMARK  Name = *****
REMARK  1 active torsions:
REMARK  status: ('A' for Active; 'I' for Inactive)
REMARK    1  A    between atoms: C_2  and  C_11
REMARK                            x       y       z     vdW  Elec       q    Type
REMARK                         _______ _______ _______ _____ _____    ______ ____
ROOT
ATOM      1  C   UNL     1      89.644  69.815  85.343  0.00  0.00    +0.000 C 
ATOM      2  C   UNL     1      88.167  69.837  85.757  0.00  0.00    +0.000 C 
ATOM      3  O   UNL     1      87.367  70.419  84.710  0.00  0.00    +0.000 OA
ATOM      4  C   UNL     1      87.946  71.535  84.165  0.00  0.00    +0.000 A 
ATOM      5  C   UNL     1      87.120  72.346  83.386  0.00  0.00    +0.000 A 
ATOM      6  C   UNL     1      87.627  73.515  82.819  0.00  0.00    +0.000 A 
ATOM      7  C   UNL     1      88.959  73.873  83.028  0.00  0.00    +0.000 A 
ATOM      8  C   UNL     1      89.789  73.056  83.796  0.00  0.00    +0.000 A 
ATOM      9  C   UNL     1      89.287  71.880  84.354  0.00  0.00    +0.000 A 
ATOM     10  O   UNL     1      90.166  71.122  85.080  0.00  0.00    +0.000 OA
ENDROOT
BRANCH   2  11
ATOM     11  C   UNL     1      87.799  70.456  87.101  0.00  0.00    +0.000 A 
ATOM     12  C   UNL     1      86.557  71.052  87.362  0.00  0.00    +0.000 A 
ATOM     13  C   UNL     1      86.282  71.612  88.612  0.00  0.00    +0.000 A 
ATOM     14  C   UNL     1      87.243  71.589  89.620  0.00  0.00    +0.000 A 
ATOM     15  C   UNL     1      88.482  71.003  89.381  0.00  0.00    +0.000 A 
ATOM     16  C   UNL     1      88.758  70.444  88.131  0.00  0.00    +0.000 A 
ENDBRANCH   2  11
TORSDOF 1
ENDMDL
