MODEL 1
REMARK VINA RESULT:      -4.8      0.000      0.000
REMARK  Name = *****
REMARK  1 active torsions:
REMARK  status: ('A' for Active; 'I' for Inactive)
REMARK    1  A    between atoms: C_2  and  C_12
REMARK                            x       y       z     vdW  Elec       q    Type
REMARK                         _______ _______ _______ _____ _____    ______ ____
ROOT
ATOM      1  C   UNL     1     104.272 128.855  82.539  0.00  0.00    +0.000 C 
ATOM      2  C   UNL     1     103.474 128.162  83.641  0.00  0.00    +0.000 C 
ATOM      3  O   UNL     1     103.798 126.764  83.774  0.00  0.00    +0.000 OA
ATOM      4  C   UNL     1     104.011 126.064  82.618  0.00  0.00    +0.000 A 
ATOM      5  C   UNL     1     104.073 124.676  82.746  0.00  0.00    +0.000 A 
ATOM      6  C   UNL     1     104.230 123.873  81.614  0.00  0.00    +0.000 A 
ATOM      7  C   UNL     1     104.328 124.456  80.350  0.00  0.00    +0.000 A 
ATOM      8  C   UNL     1     104.280 125.844  80.219  0.00  0.00    +0.000 A 
ATOM      9  C   UNL     1     104.130 126.641  81.357  0.00  0.00    +0.000 A 
ATOM     10  C   UNL     1     104.131 128.107  81.248  0.00  0.00    +0.000 C 
ATOM     11  O   UNL     1     104.114 128.664  80.156  0.00  0.00    +0.000 OA
ENDROOT
BRANCH   2  12
ATOM     12  C   UNL     1     101.970 128.437  83.595  0.00  0.00    +0.000 A 
ATOM     13  C   UNL     1     101.430 129.643  84.092  0.00  0.00    +0.000 A 
ATOM     14  C   UNL     1     100.053 129.898  84.029  0.00  0.00    +0.000 A 
ATOM     15  C   UNL     1      99.186 128.957  83.476  0.00  0.00    +0.000 A 
ATOM     16  C   UNL     1      99.699 127.760  82.991  0.00  0.00    +0.000 A 
ATOM     17  C   UNL     1     101.070 127.500  83.049  0.00  0.00    +0.000 A 
ATOM     18 CL   UNL     1      98.635 126.590  82.317  0.00  0.00    +0.000 Cl
ATOM     19 CL   UNL     1     102.413 130.866  84.820  0.00  0.00    +0.000 Cl
ENDBRANCH   2  12
TORSDOF 1
ENDMDL
