MODEL 1
REMARK VINA RESULT:      -4.4      0.000      0.000
REMARK  Name = *****
REMARK  2 active torsions:
REMARK  status: ('A' for Active; 'I' for Inactive)
REMARK    1  A    between atoms: C_4  and  C_7
REMARK    2  A    between atoms: C_4  and  O_17
REMARK                            x       y       z     vdW  Elec       q    Type
REMARK                         _______ _______ _______ _____ _____    ______ ____
ROOT
ATOM      1  C   UNL     1      87.524  65.105  86.983  0.00  0.00    +0.000 C 
ATOM      2  C   UNL     1      86.567  65.037  85.766  0.00  0.00    +0.000 C 
ATOM      3  C   UNL     1      87.136  65.476  84.621  0.00  0.00    +0.000 C 
ATOM      4  C   UNL     1      88.582  65.657  84.885  0.00  0.00    +0.000 C 
ATOM      5  C   UNL     1      88.480  66.114  86.351  0.00  0.00    +0.000 C 
ATOM      6  C   UNL     1      89.910  66.606  86.646  0.00  0.00    +0.000 C 
ATOM      7  C   UNL     1      89.903  68.107  86.241  0.00  0.00    +0.000 C 
ATOM      8  C   UNL     1      89.588  68.038  84.724  0.00  0.00    +0.000 C 
ATOM      9  C   UNL     1      89.733  66.540  84.390  0.00  0.00    +0.000 C 
ATOM     10  C   UNL     1      90.759  66.095  85.467  0.00  0.00    +0.000 C 
ENDROOT
BRANCH   1  14
ATOM     11  C   UNL     1      86.655  63.218  90.119  0.00  0.00    +0.000 C 
ATOM     12  C   UNL     1      85.964  63.012  88.774  0.00  0.00    +0.000 C 
ATOM     13  C   UNL     1      86.972  62.685  87.676  0.00  0.00    +0.000 C 
ATOM     14  C   UNL     1      88.078  63.755  87.533  0.00  0.00    +0.000 C 
ATOM     15  C   UNL     1      88.756  63.937  88.912  0.00  0.00    +0.000 C 
ATOM     16  C   UNL     1      87.776  64.249  90.041  0.00  0.00    +0.000 C 
BRANCH  14  17
ATOM     17  O   UNL     1      89.078  63.237  86.650  0.00  0.00    +0.000 OA
ATOM     18  H   UNL     1      88.650  62.831  85.879  0.00  0.00    +0.000 HD
ENDBRANCH  14  17
ENDBRANCH   1  14
TORSDOF 2
ENDMDL
