MODEL 1
REMARK VINA RESULT:      -5.1      0.000      0.000
REMARK  Name = *****
REMARK  2 active torsions:
REMARK  status: ('A' for Active; 'I' for Inactive)
REMARK    1  A    between atoms: C_2  and  C_12
REMARK    2  A    between atoms: C_15  and  C_18
REMARK                            x       y       z     vdW  Elec       q    Type
REMARK                         _______ _______ _______ _____ _____    ______ ____
ROOT
ATOM      1  C   UNL     1      86.486  64.100  87.259  0.00  0.00    +0.000 C 
ATOM      2  C   UNL     1      87.961  64.449  87.094  0.00  0.00    +0.000 C 
ATOM      3  O   UNL     1      88.750  63.799  88.112  0.00  0.00    +0.000 OA
ATOM      4  C   UNL     1      88.317  64.028  89.391  0.00  0.00    +0.000 A 
ATOM      5  C   UNL     1      89.255  63.850  90.408  0.00  0.00    +0.000 A 
ATOM      6  C   UNL     1      88.893  64.077  91.737  0.00  0.00    +0.000 A 
ATOM      7  C   UNL     1      87.592  64.474  92.053  0.00  0.00    +0.000 A 
ATOM      8  C   UNL     1      86.647  64.634  91.040  0.00  0.00    +0.000 A 
ATOM      9  C   UNL     1      87.013  64.402  89.712  0.00  0.00    +0.000 A 
ATOM     10  C   UNL     1      86.020  64.509  88.628  0.00  0.00    +0.000 C 
ATOM     11  O   UNL     1      84.866  64.854  88.853  0.00  0.00    +0.000 OA
ENDROOT
BRANCH   2  12
ATOM     12  C   UNL     1      88.356  65.920  86.970  0.00  0.00    +0.000 A 
ATOM     13  C   UNL     1      87.488  66.980  87.268  0.00  0.00    +0.000 A 
ATOM     14  C   UNL     1      87.906  68.309  87.124  0.00  0.00    +0.000 A 
ATOM     15  C   UNL     1      89.198  68.612  86.671  0.00  0.00    +0.000 A 
ATOM     16  C   UNL     1      90.066  67.562  86.359  0.00  0.00    +0.000 A 
ATOM     17  C   UNL     1      89.646  66.234  86.504  0.00  0.00    +0.000 A 
BRANCH  15  18
ATOM     18  C   UNL     1      89.602  70.050  86.533  0.00  0.00    +0.000 C 
ATOM     19  O   UNL     1      89.539  70.754  87.542  0.00  0.00    +0.000 OA
ATOM     20 CL   UNL     1      90.133  70.663  84.980  0.00  0.00    +0.000 Cl
ENDBRANCH  15  18
ENDBRANCH   2  12
TORSDOF 2
ENDMDL
