MODEL 1
REMARK VINA RESULT:      -4.7      0.000      0.000
REMARK  Name = *****
REMARK  2 active torsions:
REMARK  status: ('A' for Active; 'I' for Inactive)
REMARK    1  A    between atoms: C_1  and  C_2
REMARK    2  A    between atoms: C_3  and  C_12
REMARK                            x       y       z     vdW  Elec       q    Type
REMARK                         _______ _______ _______ _____ _____    ______ ____
ROOT
ATOM      1  C   UNL     1      88.882  67.510  86.655  0.00  0.00    +0.000 C 
ATOM      2  C   UNL     1      89.437  68.894  86.299  0.00  0.00    +0.000 C 
ATOM      3  C   UNL     1      88.565  69.635  85.262  0.00  0.00    +0.000 C 
ATOM      4  O   UNL     1      87.270  69.943  85.814  0.00  0.00    +0.000 OA
ATOM      5  C   UNL     1      87.357  70.461  87.079  0.00  0.00    +0.000 A 
ATOM      6  C   UNL     1      86.231  71.132  87.556  0.00  0.00    +0.000 A 
ATOM      7  C   UNL     1      86.246  71.701  88.830  0.00  0.00    +0.000 A 
ATOM      8  C   UNL     1      87.385  71.593  89.627  0.00  0.00    +0.000 A 
ATOM      9  C   UNL     1      88.507  70.908  89.156  0.00  0.00    +0.000 A 
ATOM     10  C   UNL     1      88.488  70.331  87.886  0.00  0.00    +0.000 A 
ATOM     11  O   UNL     1      89.614  69.647  87.509  0.00  0.00    +0.000 OA
ENDROOT
BRANCH   3  12
ATOM     12  C   UNL     1      89.147  70.877  84.588  0.00  0.00    +0.000 A 
ATOM     13  C   UNL     1      88.389  72.014  84.271  0.00  0.00    +0.000 A 
ATOM     14  C   UNL     1      88.984  73.128  83.672  0.00  0.00    +0.000 A 
ATOM     15  C   UNL     1      90.345  73.123  83.375  0.00  0.00    +0.000 A 
ATOM     16  C   UNL     1      91.113  72.004  83.678  0.00  0.00    +0.000 A 
ATOM     17  C   UNL     1      90.522  70.894  84.282  0.00  0.00    +0.000 A 
ENDBRANCH   3  12
TORSDOF 1
ENDMDL
