MODEL 1
REMARK VINA RESULT:      -4.8      0.000      0.000
REMARK  Name = *****
REMARK  4 active torsions:
REMARK  status: ('A' for Active; 'I' for Inactive)
REMARK    1  A    between atoms: C_1  and  O_2
REMARK    2  A    between atoms: O_2  and  C_3
REMARK    3  A    between atoms: C_3  and  C_5
REMARK    4  A    between atoms: C_5  and  C_15
REMARK                            x       y       z     vdW  Elec       q    Type
REMARK                         _______ _______ _______ _____ _____    ______ ____
ROOT
ATOM      1  C   UNL     1      88.307  69.900  85.980  0.00  0.00    +0.000 C 
ATOM      2  N   UNL     1      89.787  70.014  85.809  0.00  0.00    +0.000 NA
ATOM      3  C   UNL     1      90.182  70.986  85.063  0.00  0.00    +0.000 C 
ATOM      4  C   UNL     1      89.283  71.887  84.358  0.00  0.00    +0.000 A 
ATOM      5  C   UNL     1      89.761  73.017  83.696  0.00  0.00    +0.000 A 
ATOM      6  C   UNL     1      88.863  73.818  82.990  0.00  0.00    +0.000 A 
ATOM      7  C   UNL     1      87.509  73.475  82.941  0.00  0.00    +0.000 A 
ATOM      8  C   UNL     1      87.049  72.334  83.603  0.00  0.00    +0.000 A 
ATOM      9  C   UNL     1      87.941  71.545  84.323  0.00  0.00    +0.000 A 
ATOM     10  O   UNL     1      87.455  70.428  84.931  0.00  0.00    +0.000 OA
ENDROOT
BRANCH   1  11
ATOM     11  C   UNL     1      87.829  70.511  87.318  0.00  0.00    +0.000 A 
ATOM     12  C   UNL     1      86.546  71.070  87.456  0.00  0.00    +0.000 A 
ATOM     13  C   UNL     1      86.136  71.636  88.666  0.00  0.00    +0.000 A 
ATOM     14  C   UNL     1      87.002  71.661  89.756  0.00  0.00    +0.000 A 
ATOM     15  C   UNL     1      88.281  71.126  89.637  0.00  0.00    +0.000 A 
ATOM     16  C   UNL     1      88.694  70.560  88.429  0.00  0.00    +0.000 A 
ENDBRANCH   1  11
BRANCH   1  17
ATOM     17  C   UNL     1      87.998  68.355  86.013  0.00  0.00    +0.000 C 
ATOM     18  O   UNL     1      86.921  67.839  85.722  0.00  0.00    +0.000 OA
BRANCH  17  20
ATOM     19  C   UNL     1      88.791  66.296  86.820  0.00  0.00    +0.000 C 
ATOM     20  O   UNL     1      89.089  67.636  86.433  0.00  0.00    +0.000 OA
ENDBRANCH  17  20
ENDBRANCH   1  17
TORSDOF 3
ENDMDL
