MODEL 1
REMARK VINA RESULT:      -5.3      0.000      0.000
REMARK  Name = *****
REMARK  3 active torsions:
REMARK  status: ('A' for Active; 'I' for Inactive)
REMARK    1  A    between atoms: C_3  and  N_4
REMARK    2  A    between atoms: C_15  and  C_16
REMARK    3  A    between atoms: C_15  and  O_23
REMARK                            x       y       z     vdW  Elec       q    Type
REMARK                         _______ _______ _______ _____ _____    ______ ____
ROOT
ATOM      1  N   UNL     1      86.345  64.448  86.854  0.00  0.00    +0.000 N 
ATOM      2  C   UNL     1      86.253  65.841  86.782  0.00  0.00    +0.000 C 
ATOM      3  O   UNL     1      85.196  66.463  86.741  0.00  0.00    +0.000 OA
ATOM      4  C   UNL     1      87.531  66.592  86.690  0.00  0.00    +0.000 A 
ATOM      5  C   UNL     1      87.516  67.991  86.628  0.00  0.00    +0.000 A 
ATOM      6  C   UNL     1      88.710  68.697  86.458  0.00  0.00    +0.000 A 
ATOM      7  C   UNL     1      89.920  68.011  86.340  0.00  0.00    +0.000 A 
ATOM      8  C   UNL     1      89.941  66.617  86.398  0.00  0.00    +0.000 A 
ATOM      9  C   UNL     1      88.745  65.916  86.583  0.00  0.00    +0.000 A 
ATOM     10  C   UNL     1      88.755  64.448  86.702  0.00  0.00    +0.000 C 
ATOM     11  O   UNL     1      89.720  63.798  86.305  0.00  0.00    +0.000 OA
ATOM     12  C   UNL     1      87.542  63.841  87.445  0.00  0.00    +0.000 C 
ENDROOT
BRANCH  12  13
ATOM     13  C   UNL     1      87.694  64.024  88.963  0.00  0.00    +0.000 A 
ATOM     14  C   UNL     1      86.651  64.459  89.802  0.00  0.00    +0.000 A 
ATOM     15  C   UNL     1      86.850  64.620  91.178  0.00  0.00    +0.000 A 
ATOM     16  C   UNL     1      88.090  64.338  91.740  0.00  0.00    +0.000 A 
ATOM     17  C   UNL     1      89.136  63.890  90.941  0.00  0.00    +0.000 A 
ATOM     18  C   UNL     1      88.936  63.729  89.566  0.00  0.00    +0.000 A 
ATOM     19 CL   UNL     1      88.331  64.539  93.431  0.00  0.00    +0.000 Cl
ENDBRANCH  12  13
BRANCH   1  22
ATOM     20  C   UNL     1      84.783  62.862  85.563  0.00  0.00    +0.000 C 
ATOM     21  C   UNL     1      83.949  64.041  85.950  0.00  0.00    +0.000 C 
ATOM     22  C   UNL     1      85.132  63.652  86.803  0.00  0.00    +0.000 C 
ENDBRANCH   1  22
BRANCH  12  23
ATOM     23  O   UNL     1      87.511  62.434  87.221  0.00  0.00    +0.000 OA
ATOM     24  H   UNL     1      87.997  61.984  87.929  0.00  0.00    +0.000 HD
ENDBRANCH  12  23
TORSDOF 3
ENDMDL
