MODEL 1
REMARK VINA RESULT:      -5.2      0.000      0.000
REMARK  Name = *****
REMARK  6 active torsions:
REMARK  status: ('A' for Active; 'I' for Inactive)
REMARK    1  A    between atoms: C_1  and  C_2
REMARK    2  A    between atoms: C_2  and  C_3
REMARK    3  A    between atoms: C_4  and  C_20
REMARK    4  A    between atoms: C_5  and  C_13
REMARK    5  A    between atoms: C_5  and  O_19
REMARK    6  A    between atoms: C_20  and  C_22
REMARK                            x       y       z     vdW  Elec       q    Type
REMARK                         _______ _______ _______ _____ _____    ______ ____
ROOT
ATOM      1  C   UNL     1      86.935  70.732  86.060  0.00  0.00    +0.000 C 
ATOM      2  C   UNL     1      87.744  69.895  86.765  0.00  0.00    +0.000 C 
ATOM      3  C   UNL     1      89.250  69.737  86.471  0.00  0.00    +0.000 C 
ATOM      4  C   UNL     1      89.840  70.938  85.694  0.00  0.00    +0.000 C 
ATOM      5  C   UNL     1      88.894  71.609  84.737  0.00  0.00    +0.000 A 
ATOM      6  C   UNL     1      89.437  72.368  83.683  0.00  0.00    +0.000 A 
ATOM      7  C   UNL     1      88.608  73.056  82.804  0.00  0.00    +0.000 A 
ATOM      8  C   UNL     1      87.234  73.003  82.983  0.00  0.00    +0.000 A 
ATOM      9  C   UNL     1      86.691  72.260  84.036  0.00  0.00    +0.000 A 
ATOM     10  C   UNL     1      87.503  71.543  84.935  0.00  0.00    +0.000 A 
ENDROOT
BRANCH   3  11
ATOM     11  C   UNL     1      89.556  68.416  85.739  0.00  0.00    +0.000 A 
ATOM     12  C   UNL     1      90.270  67.383  86.376  0.00  0.00    +0.000 A 
ATOM     13  C   UNL     1      90.551  66.184  85.715  0.00  0.00    +0.000 A 
ATOM     14  C   UNL     1      90.126  65.992  84.405  0.00  0.00    +0.000 A 
ATOM     15  C   UNL     1      89.423  67.000  83.752  0.00  0.00    +0.000 A 
ATOM     16  C   UNL     1      89.142  68.200  84.413  0.00  0.00    +0.000 A 
ENDBRANCH   3  11
BRANCH   2  17
ATOM     17  C   UNL     1      87.208  69.038  87.837  0.00  0.00    +0.000 C 
ATOM     18  C   UNL     1      86.773  67.795  87.576  0.00  0.00    +0.000 C 
ATOM     19  C   UNL     1      87.124  69.625  89.219  0.00  0.00    +0.000 C 
ENDBRANCH   2  17
BRANCH   1  21
ATOM     20  C   UNL     1      85.135  72.068  87.276  0.00  0.00    +0.000 C 
ATOM     21  C   UNL     1      85.449  70.885  86.365  0.00  0.00    +0.000 C 
ENDBRANCH   1  21
BRANCH   3  22
ATOM     22  O   UNL     1      89.961  69.750  87.730  0.00  0.00    +0.000 OA
ATOM     23  H   UNL     1      89.926  68.867  88.130  0.00  0.00    +0.000 HD
ENDBRANCH   3  22
TORSDOF 4
ENDMDL
