MODEL 1
REMARK VINA RESULT:      -5.5      0.000      0.000
REMARK  Name = *****
REMARK  4 active torsions:
REMARK  status: ('A' for Active; 'I' for Inactive)
REMARK    1  A    between atoms: C_1  and  C_2
REMARK    2  A    between atoms: C_4  and  C_19
REMARK    3  A    between atoms: C_7  and  C_11
REMARK    4  A    between atoms: C_7  and  O_18
REMARK                            x       y       z     vdW  Elec       q    Type
REMARK                         _______ _______ _______ _____ _____    ______ ____
ROOT
ATOM      1  C   UNL     1     100.417 131.600  84.860  0.00  0.00    +0.000 C 
ATOM      2  C   UNL     1     100.500 130.215  84.288  0.00  0.00    +0.000 A 
ATOM      3  C   UNL     1      99.353 129.591  83.757  0.00  0.00    +0.000 A 
ATOM      4  C   UNL     1      99.412 128.309  83.186  0.00  0.00    +0.000 A 
ATOM      5  C   UNL     1     100.645 127.666  83.173  0.00  0.00    +0.000 A 
ATOM      6  C   UNL     1     100.977 126.314  82.599  0.00  0.00    +0.000 C 
ATOM      7  C   UNL     1     102.384 126.037  83.202  0.00  0.00    +0.000 C 
ATOM      8  C   UNL     1     103.009 127.425  83.518  0.00  0.00    +0.000 C 
ATOM      9  C   UNL     1     101.789 128.283  83.690  0.00  0.00    +0.000 A 
ATOM     10  C   UNL     1     101.734 129.555  84.239  0.00  0.00    +0.000 A 
ATOM     11  C   UNL     1      98.183 127.659  82.628  0.00  0.00    +0.000 C 
ENDROOT
BRANCH   7  12
ATOM     12  C   UNL     1     103.262 125.191  82.284  0.00  0.00    +0.000 A 
ATOM     13  C   UNL     1     103.919 124.045  82.777  0.00  0.00    +0.000 A 
ATOM     14  C   UNL     1     104.725 123.262  81.945  0.00  0.00    +0.000 A 
ATOM     15  C   UNL     1     104.883 123.618  80.612  0.00  0.00    +0.000 A 
ATOM     16  C   UNL     1     104.250 124.740  80.097  0.00  0.00    +0.000 A 
ATOM     17  C   UNL     1     103.444 125.522  80.929  0.00  0.00    +0.000 A 
ATOM     18  F   UNL     1     105.656 122.868  79.816  0.00  0.00    +0.000 F 
ENDBRANCH   7  12
BRANCH   7  19
ATOM     19  O   UNL     1     102.196 125.344  84.455  0.00  0.00    +0.000 OA
ATOM     20  H   UNL     1     101.577 124.608  84.328  0.00  0.00    +0.000 HD
ENDBRANCH   7  19
TORSDOF 2
ENDMDL
