MODEL 1
REMARK VINA RESULT:      -5.4      0.000      0.000
REMARK  Name = *****
REMARK  1 active torsions:
REMARK  status: ('A' for Active; 'I' for Inactive)
REMARK    1  A    between atoms: C_9  and  C_13
REMARK                            x       y       z     vdW  Elec       q    Type
REMARK                         _______ _______ _______ _____ _____    ______ ____
ROOT
ATOM      1  C   UNL     1     102.590 128.277  83.995  0.00  0.00    +0.000 C 
ATOM      2  C   UNL     1     101.166 128.185  83.539  0.00  0.00    +0.000 A 
ATOM      3  C   UNL     1     100.243 129.214  83.749  0.00  0.00    +0.000 A 
ATOM      4  C   UNL     1      98.926 129.072  83.306  0.00  0.00    +0.000 A 
ATOM      5  C   UNL     1      98.523 127.904  82.656  0.00  0.00    +0.000 A 
ATOM      6  C   UNL     1      99.439 126.877  82.436  0.00  0.00    +0.000 A 
ATOM      7  C   UNL     1     100.756 127.038  82.854  0.00  0.00    +0.000 A 
ATOM      8  O   UNL     1     101.636 126.010  82.676  0.00  0.00    +0.000 OA
ATOM      9  C   UNL     1     102.632 126.299  81.692  0.00  0.00    +0.000 C 
ATOM     10  C   UNL     1     103.511 127.598  81.770  0.00  0.00    +0.000 C 
ATOM     11  S   UNL     1     104.493 128.075  80.488  0.00  0.00    +0.000 S 
ATOM     12  N   UNL     1     103.474 128.423  82.862  0.00  0.00    +0.000 N 
ATOM     13  H   UNL     1     104.103 129.180  82.876  0.00  0.00    +0.000 HD
ENDROOT
BRANCH   9  14
ATOM     14  C   UNL     1     103.526 125.058  81.673  0.00  0.00    +0.000 A 
ATOM     15  C   UNL     1     103.848 124.392  82.867  0.00  0.00    +0.000 A 
ATOM     16  C   UNL     1     104.661 123.258  82.849  0.00  0.00    +0.000 A 
ATOM     17  C   UNL     1     105.164 122.778  81.642  0.00  0.00    +0.000 A 
ATOM     18  C   UNL     1     104.857 123.430  80.450  0.00  0.00    +0.000 A 
ATOM     19  C   UNL     1     104.043 124.564  80.464  0.00  0.00    +0.000 A 
ENDBRANCH   9  14
TORSDOF 1
ENDMDL
