MODEL 1
REMARK VINA RESULT:      -4.7      0.000      0.000
REMARK  Name = *****
REMARK  1 active torsions:
REMARK  status: ('A' for Active; 'I' for Inactive)
REMARK    1  A    between atoms: C_2  and  C_11
REMARK                            x       y       z     vdW  Elec       q    Type
REMARK                         _______ _______ _______ _____ _____    ______ ____
ROOT
ATOM      1  C   UNL     1      87.274  70.388  84.893  0.00  0.00    +0.000 C 
ATOM      2  C   UNL     1      88.141  69.826  86.024  0.00  0.00    +0.000 C 
ATOM      3  C   UNL     1      89.611  69.847  85.580  0.00  0.00    +0.000 C 
ATOM      4  O   UNL     1      90.105  71.123  85.161  0.00  0.00    +0.000 OA
ATOM      5  C   UNL     1      89.250  71.876  84.407  0.00  0.00    +0.000 A 
ATOM      6  C   UNL     1      89.809  73.005  83.804  0.00  0.00    +0.000 A 
ATOM      7  C   UNL     1      89.019  73.850  83.025  0.00  0.00    +0.000 A 
ATOM      8  C   UNL     1      87.666  73.568  82.851  0.00  0.00    +0.000 A 
ATOM      9  C   UNL     1      87.104  72.446  83.461  0.00  0.00    +0.000 A 
ATOM     10  C   UNL     1      87.891  71.598  84.256  0.00  0.00    +0.000 A 
ENDROOT
BRANCH   2  11
ATOM     11  C   UNL     1      87.826  70.476  87.368  0.00  0.00    +0.000 A 
ATOM     12  C   UNL     1      86.546  71.027  87.565  0.00  0.00    +0.000 A 
ATOM     13  C   UNL     1      86.201  71.642  88.770  0.00  0.00    +0.000 A 
ATOM     14  C   UNL     1      87.131  71.720  89.801  0.00  0.00    +0.000 A 
ATOM     15  C   UNL     1      88.404  71.184  89.624  0.00  0.00    +0.000 A 
ATOM     16  C   UNL     1      88.750  70.569  88.418  0.00  0.00    +0.000 A 
ENDBRANCH   2  11
TORSDOF 1
ENDMDL
