MODEL 1
REMARK VINA RESULT:      -4.4      0.000      0.000
REMARK  Name = *****
REMARK  5 active torsions:
REMARK  status: ('A' for Active; 'I' for Inactive)
REMARK    1  A    between atoms: C_1  and  C_2
REMARK    2  A    between atoms: C_5  and  S_8
REMARK    3  A    between atoms: S_8  and  N_11
REMARK    4  A    between atoms: N_11  and  C_12
REMARK    5  A    between atoms: N_11  and  C_13
REMARK                            x       y       z     vdW  Elec       q    Type
REMARK                         _______ _______ _______ _____ _____    ______ ____
ROOT
ATOM      1  S   UNL     1     103.999 127.454  82.938  0.00  0.00    +0.000 S 
ATOM      2  O   UNL     1     105.032 127.676  83.929  0.00  0.00    +0.000 OA
ATOM      3  O   UNL     1     103.827 128.363  81.824  0.00  0.00    +0.000 OA
ENDROOT
BRANCH   1   8
ATOM      4  C   UNL     1     104.707 121.880  80.642  0.00  0.00    +0.000 C 
ATOM      5  C   UNL     1     104.564 123.263  81.209  0.00  0.00    +0.000 A 
ATOM      6  C   UNL     1     104.456 123.454  82.594  0.00  0.00    +0.000 A 
ATOM      7  C   UNL     1     104.288 124.735  83.120  0.00  0.00    +0.000 A 
ATOM      8  C   UNL     1     104.219 125.830  82.254  0.00  0.00    +0.000 A 
ATOM      9  C   UNL     1     104.298 125.654  80.871  0.00  0.00    +0.000 A 
ATOM     10  C   UNL     1     104.468 124.369  80.352  0.00  0.00    +0.000 A 
ENDBRANCH   1   8
BRANCH   1  11
ATOM     11  N   UNL     1     102.507 127.313  83.763  0.00  0.00    +0.000 NA
ATOM     12  C   UNL     1     102.563 127.650  85.206  0.00  0.00    +0.000 C 
BRANCH  11  13
ATOM     13  C   UNL     1     101.351 127.887  83.015  0.00  0.00    +0.000 C 
ATOM     14  C   UNL     1     100.498 128.840  83.871  0.00  0.00    +0.000 C 
ATOM     15  C   UNL     1      99.143 129.107  83.216  0.00  0.00    +0.000 C 
ATOM     16  C   UNL     1      98.363 127.808  82.998  0.00  0.00    +0.000 C 
ATOM     17  C   UNL     1      99.211 126.705  82.435  0.00  0.00    +0.000 C 
ATOM     18  C   UNL     1     100.552 126.750  82.424  0.00  0.00    +0.000 C 
ENDBRANCH  11  13
ENDBRANCH   1  11
TORSDOF 3
ENDMDL
