MODEL 1
REMARK VINA RESULT:      -4.8      0.000      0.000
REMARK  Name = *****
REMARK  6 active torsions:
REMARK  status: ('A' for Active; 'I' for Inactive)
REMARK    1  A    between atoms: C_1  and  C_2
REMARK    2  A    between atoms: C_2  and  O_3
REMARK    3  A    between atoms: O_3  and  C_4
REMARK    4  A    between atoms: C_4  and  C_16
REMARK    5  A    between atoms: C_5  and  O_14
REMARK    6  A    between atoms: O_14  and  C_15
REMARK                            x       y       z     vdW  Elec       q    Type
REMARK                         _______ _______ _______ _____ _____    ______ ____
ROOT
ATOM      1  C   UNL     1     102.823 125.706  83.167  0.00  0.00    +0.000 C 
ATOM      2  C   UNL     1     103.457 127.070  83.561  0.00  0.00    +0.000 C 
ATOM      3  C   UNL     1     102.695 128.175  83.643  0.00  0.00    +0.000 C 
ATOM      4  C   UNL     1     101.271 128.058  83.357  0.00  0.00    +0.000 A 
ATOM      5  C   UNL     1     100.388 129.107  83.639  0.00  0.00    +0.000 A 
ATOM      6  C   UNL     1      99.034 128.992  83.316  0.00  0.00    +0.000 A 
ATOM      7  C   UNL     1      98.560 127.835  82.698  0.00  0.00    +0.000 A 
ATOM      8  C   UNL     1      99.439 126.792  82.407  0.00  0.00    +0.000 A 
ATOM      9  C   UNL     1     100.786 126.900  82.750  0.00  0.00    +0.000 A 
ATOM     10  O   UNL     1     101.595 125.858  82.403  0.00  0.00    +0.000 OA
ENDROOT
BRANCH   1  11
ATOM     11  C   UNL     1     103.679 124.859  82.198  0.00  0.00    +0.000 A 
ATOM     12  C   UNL     1     104.210 123.619  82.604  0.00  0.00    +0.000 A 
ATOM     13  C   UNL     1     104.951 122.825  81.724  0.00  0.00    +0.000 A 
ATOM     14  C   UNL     1     105.157 123.244  80.413  0.00  0.00    +0.000 A 
ATOM     15  C   UNL     1     104.612 124.449  79.977  0.00  0.00    +0.000 A 
ATOM     16  C   UNL     1     103.871 125.242  80.857  0.00  0.00    +0.000 A 
ENDBRANCH   1  11
BRANCH   2  17
ATOM     17  O   UNL     1     104.818 127.026  83.831  0.00  0.00    +0.000 OA
ATOM     18  C   UNL     1     105.680 127.877  83.085  0.00  0.00    +0.000 C 
ENDBRANCH   2  17
BRANCH   1  19
ATOM     19  O   UNL     1     102.489 124.945  84.352  0.00  0.00    +0.000 OA
BRANCH  19  21
ATOM     20  C   UNL     1     101.349 125.707  86.296  0.00  0.00    +0.000 C 
ATOM     21  C   UNL     1     102.694 125.599  85.600  0.00  0.00    +0.000 C 
ENDBRANCH  19  21
ENDBRANCH   1  19
TORSDOF 4
ENDMDL
