MODEL 1
REMARK VINA RESULT:      -5.3      0.000      0.000
REMARK  Name = *****
REMARK  4 active torsions:
REMARK  status: ('A' for Active; 'I' for Inactive)
REMARK    1  A    between atoms: C_1  and  C_2
REMARK    2  A    between atoms: C_9  and  O_14
REMARK    3  A    between atoms: O_14  and  C_15
REMARK    4  A    between atoms: C_15  and  C_16
REMARK                            x       y       z     vdW  Elec       q    Type
REMARK                         _______ _______ _______ _____ _____    ______ ____
ROOT
ATOM      1  C   UNL     1      87.977  63.320  86.715  0.00  0.00    +0.000 C 
ATOM      2  C   UNL     1      89.017  64.328  86.319  0.00  0.00    +0.000 A 
ATOM      3  C   UNL     1      90.137  63.960  85.679  0.00  0.00    +0.000 A 
ATOM      4  C   UNL     1      91.187  64.905  85.268  0.00  0.00    +0.000 A 
ATOM      5  O   UNL     1      92.192  64.511  84.689  0.00  0.00    +0.000 OA
ATOM      6  O   UNL     1      90.979  66.239  85.573  0.00  0.00    +0.000 OA
ATOM      7  C   UNL     1      89.814  66.660  86.243  0.00  0.00    +0.000 A 
ATOM      8  C   UNL     1      89.710  68.027  86.496  0.00  0.00    +0.000 A 
ATOM      9  C   UNL     1      88.589  68.508  87.168  0.00  0.00    +0.000 A 
ATOM     10  C   UNL     1      87.568  67.628  87.543  0.00  0.00    +0.000 A 
ATOM     11  C   UNL     1      87.691  66.256  87.280  0.00  0.00    +0.000 A 
ATOM     12  C   UNL     1      88.824  65.752  86.627  0.00  0.00    +0.000 A 
ATOM     13 CL   UNL     1      86.128  68.184  88.315  0.00  0.00    +0.000 Cl
ENDROOT
BRANCH   9  14
ATOM     14  O   UNL     1      88.513  69.860  87.364  0.00  0.00    +0.000 OA
BRANCH  14  15
ATOM     15  C   UNL     1      88.140  70.546  86.160  0.00  0.00    +0.000 C 
BRANCH  15  16
ATOM     16  C   UNL     1      86.800  71.213  86.372  0.00  0.00    +0.000 A 
ATOM     17  C   UNL     1      86.318  71.444  87.671  0.00  0.00    +0.000 A 
ATOM     18  C   UNL     1      85.089  72.076  87.868  0.00  0.00    +0.000 A 
ATOM     19  C   UNL     1      84.344  72.482  86.767  0.00  0.00    +0.000 A 
ATOM     20  C   UNL     1      84.806  72.271  85.474  0.00  0.00    +0.000 A 
ATOM     21  C   UNL     1      86.034  71.638  85.275  0.00  0.00    +0.000 A 
ATOM     22  F   UNL     1      83.165  73.089  86.955  0.00  0.00    +0.000 F 
ENDBRANCH  15  16
ENDBRANCH  14  15
ENDBRANCH   9  14
TORSDOF 3
ENDMDL
