REMARK  Name = *****
REMARK  1 active torsions:
REMARK  status: ('A' for Active; 'I' for Inactive)
REMARK    1  A    between atoms: C_2  and  C_12
REMARK                            x       y       z     vdW  Elec       q    Type
REMARK                         _______ _______ _______ _____ _____    ______ ____
ROOT
ATOM      1  C   UNL     1      -2.299   0.256  -0.432  0.00  0.00    +0.000 C 
ATOM      2  C   UNL     1      -1.792   1.418   0.416  0.00  0.00    +0.000 C 
ATOM      3  O   UNL     1      -0.478   1.826  -0.018  0.00  0.00    +0.000 OA
ATOM      4  C   UNL     1       0.436   0.807  -0.071  0.00  0.00    +0.000 A 
ATOM      5  C   UNL     1       1.780   1.171  -0.006  0.00  0.00    +0.000 A 
ATOM      6  C   UNL     1       2.772   0.188  -0.040  0.00  0.00    +0.000 A 
ATOM      7  C   UNL     1       2.421  -1.159  -0.150  0.00  0.00    +0.000 A 
ATOM      8  C   UNL     1       1.078  -1.526  -0.236  0.00  0.00    +0.000 A 
ATOM      9  C   UNL     1       0.090  -0.537  -0.203  0.00  0.00    +0.000 A 
ATOM     10  C   UNL     1      -1.333  -0.891  -0.347  0.00  0.00    +0.000 C 
ATOM     11  O   UNL     1      -1.693  -2.060  -0.451  0.00  0.00    +0.000 OA
ENDROOT
BRANCH   2  12
ATOM     12  C   UNL     1      -1.837   1.287   1.938  0.00  0.00    +0.000 A 
ATOM     13  C   UNL     1      -2.386   0.177   2.603  0.00  0.00    +0.000 A 
ATOM     14  C   UNL     1      -2.405   0.121   3.999  0.00  0.00    +0.000 A 
ATOM     15  C   UNL     1      -1.885   1.173   4.741  0.00  0.00    +0.000 A 
ATOM     16  C   UNL     1      -1.347   2.286   4.113  0.00  0.00    +0.000 A 
ATOM     17  C   UNL     1      -1.325   2.344   2.718  0.00  0.00    +0.000 A 
ATOM     18  F   UNL     1      -1.907   1.115   6.078  0.00  0.00    +0.000 F 
ENDBRANCH   2  12
TORSDOF 1
