REMARK  Name = *****
REMARK  3 active torsions:
REMARK  status: ('A' for Active; 'I' for Inactive)
REMARK    1  A    between atoms: C_8  and  S_10
REMARK    2  A    between atoms: S_10  and  C_13
REMARK    3  A    between atoms: C_13  and  C_14
REMARK                            x       y       z     vdW  Elec       q    Type
REMARK                         _______ _______ _______ _____ _____    ______ ____
ROOT
ATOM      1  S   UNL     1      -3.718  -1.616  -0.067  0.00  0.00    +0.000 S 
ATOM      2  O   UNL     1      -3.798  -2.291  -1.352  0.00  0.00    +0.000 OA
ATOM      3  O   UNL     1      -3.830  -2.352   1.183  0.00  0.00    +0.000 OA
ENDROOT
BRANCH   1  11
ATOM      4  C   UNL     1       1.588   1.866  -0.338  0.00  0.00    +0.000 A 
ATOM      5  C   UNL     1       2.319   0.728  -0.015  0.00  0.00    +0.000 A 
ATOM      6  C   UNL     1       1.681  -0.498   0.200  0.00  0.00    +0.000 A 
ATOM      7  C   UNL     1       0.283  -0.549   0.082  0.00  0.00    +0.000 A 
ATOM      8  C   UNL     1      -0.473   0.582  -0.242  0.00  0.00    +0.000 A 
ATOM      9  C   UNL     1       0.195   1.805  -0.455  0.00  0.00    +0.000 A 
ATOM     10  N   UNL     1      -1.842   0.380  -0.328  0.00  0.00    +0.000 NA
ATOM     11  C   UNL     1      -2.106  -0.881  -0.052  0.00  0.00    +0.000 A 
ATOM     12  S   UNL     1      -0.776  -1.894   0.284  0.00  0.00    +0.000 S 
ENDBRANCH   1  11
BRANCH   1  13
ATOM     13  C   UNL     1      -4.776  -0.153  -0.044  0.00  0.00    +0.000 C 
ATOM     14  F   UNL     1      -4.560   0.617   1.068  0.00  0.00    +0.000 F 
BRANCH  13  15
ATOM     15  C   UNL     1      -6.206  -0.609  -0.076  0.00  0.00    +0.000 A 
ATOM     16  C   UNL     1      -7.003  -1.009   0.981  0.00  0.00    +0.000 A 
ATOM     17  C   UNL     1      -8.316  -1.371   0.565  0.00  0.00    +0.000 A 
ATOM     18  C   UNL     1      -8.484  -1.227  -0.794  0.00  0.00    +0.000 A 
ATOM     19  S   UNL     1      -7.067  -0.653  -1.558  0.00  0.00    +0.000 S 
ENDBRANCH  13  15
ENDBRANCH   1  13
TORSDOF 3
