REMARK  Name = *****
REMARK  1 active torsions:
REMARK  status: ('A' for Active; 'I' for Inactive)
REMARK    1  A    between atoms: C_2  and  C_12
REMARK                            x       y       z     vdW  Elec       q    Type
REMARK                         _______ _______ _______ _____ _____    ______ ____
ROOT
ATOM      1  C   UNL     1      -2.199   0.416  -0.538  0.00  0.00    +0.000 C 
ATOM      2  C   UNL     1      -1.563   1.664   0.060  0.00  0.00    +0.000 C 
ATOM      3  O   UNL     1      -0.209   1.823  -0.396  0.00  0.00    +0.000 OA
ATOM      4  C   UNL     1       0.572   0.729  -0.131  0.00  0.00    +0.000 A 
ATOM      5  C   UNL     1       1.948   0.943  -0.069  0.00  0.00    +0.000 A 
ATOM      6  C   UNL     1       2.807  -0.124   0.204  0.00  0.00    +0.000 A 
ATOM      7  C   UNL     1       2.292  -1.407   0.405  0.00  0.00    +0.000 A 
ATOM      8  C   UNL     1       0.917  -1.628   0.323  0.00  0.00    +0.000 A 
ATOM      9  C   UNL     1       0.062  -0.558   0.047  0.00  0.00    +0.000 A 
ATOM     10  C   UNL     1      -1.391  -0.773  -0.101  0.00  0.00    +0.000 C 
ATOM     11  O   UNL     1      -1.888  -1.881   0.067  0.00  0.00    +0.000 OA
ENDROOT
BRANCH   2  12
ATOM     12  C   UNL     1      -2.352   2.903  -0.324  0.00  0.00    +0.000 A 
ATOM     13  C   UNL     1      -2.201   3.502  -1.586  0.00  0.00    +0.000 A 
ATOM     14  C   UNL     1      -2.951   4.627  -1.926  0.00  0.00    +0.000 A 
ATOM     15  C   UNL     1      -3.864   5.168  -1.024  0.00  0.00    +0.000 A 
ATOM     16  C   UNL     1      -4.028   4.579   0.229  0.00  0.00    +0.000 A 
ATOM     17  C   UNL     1      -3.279   3.452   0.576  0.00  0.00    +0.000 A 
ATOM     18 CL   UNL     1      -2.751   5.351  -3.475  0.00  0.00    +0.000 Cl
ENDBRANCH   2  12
TORSDOF 1
