MODEL 1
REMARK VINA RESULT:      -4.9      0.000      0.000
REMARK  Name = *****
REMARK  3 active torsions:
REMARK  status: ('A' for Active; 'I' for Inactive)
REMARK    1  A    between atoms: C_4  and  O_7
REMARK    2  A    between atoms: O_7  and  C_8
REMARK    3  A    between atoms: C_8  and  C_9
REMARK                            x       y       z     vdW  Elec       q    Type
REMARK                         _______ _______ _______ _____ _____    ______ ____
ROOT
ATOM      1  C   UNL     1     103.420 127.191  82.059  0.00  0.00    +0.000 C 
ATOM      2  F   UNL     1     102.726 127.581  80.953  0.00  0.00    +0.000 F 
ATOM      3  F   UNL     1     104.523 127.987  82.147  0.00  0.00    +0.000 F 
ENDROOT
BRANCH   1   4
ATOM      4  C   UNL     1     103.803 125.731  81.975  0.00  0.00    +0.000 A 
ATOM      5  N   UNL     1     103.887 124.873  82.978  0.00  0.00    +0.000 NA
ATOM      6  C   UNL     1     104.268 123.625  82.517  0.00  0.00    +0.000 A 
ATOM      7  C   UNL     1     104.460 122.474  83.309  0.00  0.00    +0.000 A 
ATOM      8  C   UNL     1     104.850 121.273  82.710  0.00  0.00    +0.000 A 
ATOM      9  C   UNL     1     105.051 121.205  81.334  0.00  0.00    +0.000 A 
ATOM     10  C   UNL     1     104.866 122.332  80.527  0.00  0.00    +0.000 A 
ATOM     11  C   UNL     1     104.474 123.533  81.140  0.00  0.00    +0.000 A 
ATOM     12  S   UNL     1     104.171 125.067  80.424  0.00  0.00    +0.000 S 
ENDBRANCH   1   4
BRANCH   1  13
ATOM     13  O   UNL     1     102.607 127.387  83.217  0.00  0.00    +0.000 OA
BRANCH  13  17
ATOM     14  C   UNL     1      98.522 128.099  82.850  0.00  0.00    +0.000 A 
ATOM     15  C   UNL     1      99.019 126.872  82.413  0.00  0.00    +0.000 A 
ATOM     16  C   UNL     1     100.384 126.585  82.517  0.00  0.00    +0.000 A 
ATOM     17  C   UNL     1     101.260 127.527  83.057  0.00  0.00    +0.000 A 
ATOM     18  C   UNL     1     100.752 128.755  83.493  0.00  0.00    +0.000 A 
ATOM     19  C   UNL     1      99.391 129.042  83.391  0.00  0.00    +0.000 A 
ENDBRANCH  13  17
ENDBRANCH   1  13
TORSDOF 3
ENDMDL
