MODEL 1
REMARK VINA RESULT:      -4.0      0.000      0.000
REMARK  Name = *****
REMARK  6 active torsions:
REMARK  status: ('A' for Active; 'I' for Inactive)
REMARK    1  A    between atoms: C_1  and  C_2
REMARK    2  A    between atoms: C_2  and  C_3
REMARK    3  A    between atoms: C_2  and  S_12
REMARK    4  A    between atoms: C_3  and  C_4
REMARK    5  A    between atoms: C_3  and  O_11
REMARK    6  A    between atoms: S_12  and  C_13
REMARK                            x       y       z     vdW  Elec       q    Type
REMARK                         _______ _______ _______ _____ _____    ______ ____
ROOT
ATOM      1  C   UNL     1      89.352  71.264  84.297  0.00  0.00    +0.000 C 
ENDROOT
BRANCH   1   2
ATOM      2  C   UNL     1      88.766  70.963  85.667  0.00  0.00    +0.000 A 
ATOM      3  C   UNL     1      89.589  70.541  86.726  0.00  0.00    +0.000 A 
ATOM      4  C   UNL     1      89.045  70.262  87.981  0.00  0.00    +0.000 A 
ATOM      5  C   UNL     1      87.674  70.402  88.187  0.00  0.00    +0.000 A 
ATOM      6  C   UNL     1      86.845  70.820  87.150  0.00  0.00    +0.000 A 
ATOM      7  C   UNL     1      87.389  71.100  85.894  0.00  0.00    +0.000 A 
ATOM      8 CL   UNL     1      87.003  70.059  89.734  0.00  0.00    +0.000 Cl
ENDBRANCH   1   2
BRANCH   1  10
ATOM      9  C   UNL     1      91.158  70.647  82.610  0.00  0.00    +0.000 C 
ATOM     10  C   UNL     1      90.258  70.135  83.740  0.00  0.00    +0.000 C 
BRANCH  10  11
ATOM     11  S   UNL     1      89.234  68.744  83.083  0.00  0.00    +0.000 S 
BRANCH  11  12
ATOM     12  C   UNL     1      89.041  67.773  84.566  0.00  0.00    +0.000 A 
ATOM     13  C   UNL     1      90.155  67.255  85.234  0.00  0.00    +0.000 A 
ATOM     14  C   UNL     1      89.989  66.506  86.401  0.00  0.00    +0.000 A 
ATOM     15  C   UNL     1      88.711  66.278  86.908  0.00  0.00    +0.000 A 
ATOM     16  C   UNL     1      87.599  66.804  86.254  0.00  0.00    +0.000 A 
ATOM     17  C   UNL     1      87.763  67.555  85.087  0.00  0.00    +0.000 A 
ENDBRANCH  11  12
ENDBRANCH  10  11
ENDBRANCH   1  10
BRANCH   1  18
ATOM     18  O   UNL     1      90.098  72.485  84.400  0.00  0.00    +0.000 OA
ATOM     19  H   UNL     1      90.378  72.617  85.320  0.00  0.00    +0.000 HD
ENDBRANCH   1  18
TORSDOF 5
ENDMDL
