MODEL 1
REMARK VINA RESULT:      -5.2      0.000      0.000
REMARK  Name = *****
REMARK  2 active torsions:
REMARK  status: ('A' for Active; 'I' for Inactive)
REMARK    1  A    between atoms: C_13  and  C_14
REMARK    2  A    between atoms: C_13  and  O_22
REMARK                            x       y       z     vdW  Elec       q    Type
REMARK                         _______ _______ _______ _____ _____    ______ ____
ROOT
ATOM      1  C   UNL     1      88.241  70.678  83.824  0.00  0.00    +0.000 C 
ATOM      2  C   UNL     1      89.013  69.896  84.897  0.00  0.00    +0.000 C 
ATOM      3  N   UNL     1      88.381  70.382  86.103  0.00  0.00    +0.000 NA
ATOM      4  C   UNL     1      87.242  71.069  85.765  0.00  0.00    +0.000 C 
ATOM      5  N   UNL     1      87.044  71.274  84.488  0.00  0.00    +0.000 NA
ATOM      6  C   UNL     1      86.287  71.501  86.807  0.00  0.00    +0.000 A 
ATOM      7  C   UNL     1      85.065  72.083  86.466  0.00  0.00    +0.000 A 
ATOM      8  C   UNL     1      84.181  72.463  87.475  0.00  0.00    +0.000 A 
ATOM      9  C   UNL     1      84.520  72.264  88.815  0.00  0.00    +0.000 A 
ATOM     10  C   UNL     1      85.745  71.684  89.154  0.00  0.00    +0.000 A 
ATOM     11  C   UNL     1      86.635  71.286  88.150  0.00  0.00    +0.000 A 
ATOM     12  C   UNL     1      87.990  70.708  88.495  0.00  0.00    +0.000 C 
ATOM     13  C   UNL     1      88.574  69.760  87.400  0.00  0.00    +0.000 C 
ATOM     14  H   UNL     1      86.278  71.722  84.061  0.00  0.00    +0.000 HD
ENDROOT
BRANCH  13  15
ATOM     15  C   UNL     1      87.988  68.343  87.530  0.00  0.00    +0.000 A 
ATOM     16  C   UNL     1      88.653  67.196  87.038  0.00  0.00    +0.000 A 
ATOM     17  C   UNL     1      88.103  65.913  87.184  0.00  0.00    +0.000 A 
ATOM     18  C   UNL     1      86.890  65.743  87.837  0.00  0.00    +0.000 A 
ATOM     19  C   UNL     1      86.221  66.841  88.357  0.00  0.00    +0.000 A 
ATOM     20  C   UNL     1      86.767  68.120  88.209  0.00  0.00    +0.000 A 
ATOM     21 CL   UNL     1      86.224  64.168  88.017  0.00  0.00    +0.000 Cl
ATOM     22 CL   UNL     1      90.201  67.249  86.259  0.00  0.00    +0.000 Cl
ENDBRANCH  13  15
BRANCH  13  23
ATOM     23  O   UNL     1      89.984  69.709  87.557  0.00  0.00    +0.000 OA
ATOM     24  H   UNL     1      90.199  69.493  88.477  0.00  0.00    +0.000 HD
ENDBRANCH  13  23
TORSDOF 2
ENDMDL
