MODEL 1
REMARK VINA RESULT:      -5.3      0.000      0.000
REMARK  Name = *****
REMARK  1 active torsions:
REMARK  status: ('A' for Active; 'I' for Inactive)
REMARK    1  A    between atoms: C_2  and  C_13
REMARK                            x       y       z     vdW  Elec       q    Type
REMARK                         _______ _______ _______ _____ _____    ______ ____
ROOT
ATOM      1  C   UNL     1     103.060 125.146  83.545  0.00  0.00    +0.000 C 
ATOM      2  C   UNL     1     102.381 125.802  82.350  0.00  0.00    +0.000 C 
ATOM      3  O   UNL     1     103.350 126.230  81.377  0.00  0.00    +0.000 OA
ATOM      4  C   UNL     1     104.173 125.219  80.956  0.00  0.00    +0.000 A 
ATOM      5  C   UNL     1     104.429 124.071  81.709  0.00  0.00    +0.000 A 
ATOM      6  C   UNL     1     103.825 123.951  83.050  0.00  0.00    +0.000 C 
ATOM      7  O   UNL     1     104.001 122.949  83.733  0.00  0.00    +0.000 OA
ATOM      8  C   UNL     1     105.275 123.074  81.216  0.00  0.00    +0.000 A 
ATOM      9  C   UNL     1     105.881 123.240  79.968  0.00  0.00    +0.000 A 
ATOM     10  C   UNL     1     105.641 124.400  79.229  0.00  0.00    +0.000 A 
ATOM     11  C   UNL     1     104.792 125.393  79.719  0.00  0.00    +0.000 A 
ATOM     12 CL   UNL     1     106.399 124.606  77.698  0.00  0.00    +0.000 Cl
ENDROOT
BRANCH   2  13
ATOM     13  C   UNL     1     101.566 127.003  82.800  0.00  0.00    +0.000 A 
ATOM     14  C   UNL     1     102.170 128.114  83.412  0.00  0.00    +0.000 A 
ATOM     15  C   UNL     1     101.399 129.198  83.840  0.00  0.00    +0.000 A 
ATOM     16  C   UNL     1     100.019 129.177  83.668  0.00  0.00    +0.000 A 
ATOM     17  C   UNL     1      99.400 128.081  83.072  0.00  0.00    +0.000 A 
ATOM     18  C   UNL     1     100.170 126.997  82.641  0.00  0.00    +0.000 A 
ATOM     19 CL   UNL     1      99.070 130.510  84.199  0.00  0.00    +0.000 Cl
ENDBRANCH   2  13
TORSDOF 1
ENDMDL
