MODEL 1
REMARK VINA RESULT:      -4.6      0.000      0.000
REMARK  Name = *****
REMARK  4 active torsions:
REMARK  status: ('A' for Active; 'I' for Inactive)
REMARK    1  A    between atoms: C_1  and  C_2
REMARK    2  A    between atoms: C_5  and  S_8
REMARK    3  A    between atoms: S_8  and  C_11
REMARK    4  A    between atoms: C_12  and  C_13
REMARK                            x       y       z     vdW  Elec       q    Type
REMARK                         _______ _______ _______ _____ _____    ______ ____
ROOT
ATOM      1  S   UNL     1     102.168 127.038  83.286  0.00  0.00    +0.000 S 
ATOM      2  O   UNL     1     102.144 126.643  84.683  0.00  0.00    +0.000 OA
ATOM      3  O   UNL     1     102.753 128.304  82.885  0.00  0.00    +0.000 OA
ENDROOT
BRANCH   1   8
ATOM      4  C   UNL     1     105.168 122.685  80.291  0.00  0.00    +0.000 C 
ATOM      5  C   UNL     1     104.448 123.772  81.034  0.00  0.00    +0.000 A 
ATOM      6  C   UNL     1     103.912 124.867  80.340  0.00  0.00    +0.000 A 
ATOM      7  C   UNL     1     103.219 125.868  81.024  0.00  0.00    +0.000 A 
ATOM      8  C   UNL     1     103.044 125.760  82.406  0.00  0.00    +0.000 A 
ATOM      9  C   UNL     1     103.574 124.677  83.112  0.00  0.00    +0.000 A 
ATOM     10  C   UNL     1     104.266 123.680  82.421  0.00  0.00    +0.000 A 
ENDBRANCH   1   8
BRANCH   1  11
ATOM     11  C   UNL     1     100.570 126.906  82.621  0.00  0.00    +0.000 C 
ATOM     12  C   UNL     1      99.545 127.659  83.058  0.00  0.00    +0.000 C 
BRANCH  12  13
ATOM     13  C   UNL     1      99.556 128.712  84.144  0.00  0.00    +0.000 C 
ATOM     14  C   UNL     1      98.404 128.467  85.130  0.00  0.00    +0.000 C 
ATOM     15  C   UNL     1      98.341 129.556  86.199  0.00  0.00    +0.000 C 
ATOM     16  C   UNL     1      98.250 130.948  85.581  0.00  0.00    +0.000 C 
ATOM     17  C   UNL     1      99.385 131.199  84.593  0.00  0.00    +0.000 C 
ATOM     18  C   UNL     1      99.450 130.113  83.521  0.00  0.00    +0.000 C 
ENDBRANCH  12  13
ENDBRANCH   1  11
TORSDOF 3
ENDMDL
