REMARK  Name = *****
REMARK  2 active torsions:
REMARK  status: ('A' for Active; 'I' for Inactive)
REMARK    1  A    between atoms: C_1  and  C_2
REMARK    2  A    between atoms: C_2  and  C_11
REMARK                            x       y       z     vdW  Elec       q    Type
REMARK                         _______ _______ _______ _____ _____    ______ ____
ROOT
ATOM      1  C   UNL     1       0.799   0.173  -0.063  0.00  0.00    +0.000 C 
ATOM      2  C   UNL     1       2.330   0.121  -0.137  0.00  0.00    +0.000 C 
ATOM      3  C   UNL     1       2.883   1.304  -0.877  0.00  0.00    +0.000 C 
ATOM      4  C   UNL     1       3.393   0.918  -2.046  0.00  0.00    +0.000 C 
ATOM      5  C   UNL     1       4.129   1.702  -3.073  0.00  0.00    +0.000 C 
ATOM      6  C   UNL     1       4.790   0.768  -4.095  0.00  0.00    +0.000 C 
ATOM      7  C   UNL     1       5.485  -0.424  -3.429  0.00  0.00    +0.000 C 
ATOM      8  C   UNL     1       4.576  -1.221  -2.479  0.00  0.00    +0.000 C 
ATOM      9  C   UNL     1       3.233  -0.547  -2.208  0.00  0.00    +0.000 C 
ATOM     10  O   UNL     1       2.669  -1.020  -0.974  0.00  0.00    +0.000 OA
ENDROOT
BRANCH   2  11
ATOM     11  C   UNL     1       2.949  -0.031   1.253  0.00  0.00    +0.000 A 
ATOM     12  C   UNL     1       3.730  -1.148   1.594  0.00  0.00    +0.000 A 
ATOM     13  C   UNL     1       4.291  -1.275   2.867  0.00  0.00    +0.000 A 
ATOM     14  C   UNL     1       4.082  -0.287   3.825  0.00  0.00    +0.000 A 
ATOM     15  C   UNL     1       3.313   0.829   3.511  0.00  0.00    +0.000 A 
ATOM     16  C   UNL     1       2.752   0.957   2.238  0.00  0.00    +0.000 A 
ENDBRANCH   2  11
TORSDOF 1
