MODEL 1
REMARK VINA RESULT:      -4.9      0.000      0.000
REMARK  Name = *****
REMARK  3 active torsions:
REMARK  status: ('A' for Active; 'I' for Inactive)
REMARK    1  A    between atoms: C_1  and  C_2
REMARK    2  A    between atoms: C_9  and  C_11
REMARK    3  A    between atoms: C_11  and  C_12
REMARK                            x       y       z     vdW  Elec       q    Type
REMARK                         _______ _______ _______ _____ _____    ______ ____
ROOT
ATOM      1  C   UNL     1      90.904  65.513  85.345  0.00  0.00    +0.000 C 
ATOM      2  C   UNL     1      89.909  66.425  86.000  0.00  0.00    +0.000 A 
ATOM      3  C   UNL     1      90.172  67.799  86.105  0.00  0.00    +0.000 A 
ATOM      4  C   UNL     1      89.247  68.604  86.748  0.00  0.00    +0.000 A 
ATOM      5  C   UNL     1      88.097  68.067  87.298  0.00  0.00    +0.000 A 
ATOM      6  C   UNL     1      87.820  66.719  87.232  0.00  0.00    +0.000 A 
ATOM      7  C   UNL     1      88.736  65.892  86.578  0.00  0.00    +0.000 A 
ATOM      8  O   UNL     1      87.296  68.988  87.918  0.00  0.00    +0.000 OA
ATOM      9  C   UNL     1      87.870  70.279  87.562  0.00  0.00    +0.000 C 
ATOM     10  C   UNL     1      89.303  70.053  87.044  0.00  0.00    +0.000 C 
ENDROOT
BRANCH   9  11
ATOM     11  C   UNL     1      86.974  70.963  86.511  0.00  0.00    +0.000 C 
BRANCH  11  12
ATOM     12  C   UNL     1      85.768  71.630  87.133  0.00  0.00    +0.000 A 
ATOM     13  C   UNL     1      85.642  71.720  88.526  0.00  0.00    +0.000 A 
ATOM     14  C   UNL     1      84.517  72.319  89.096  0.00  0.00    +0.000 A 
ATOM     15  C   UNL     1      83.508  72.829  88.282  0.00  0.00    +0.000 A 
ATOM     16  C   UNL     1      83.621  72.739  86.896  0.00  0.00    +0.000 A 
ATOM     17  C   UNL     1      84.745  72.141  86.323  0.00  0.00    +0.000 A 
ENDBRANCH  11  12
ENDBRANCH   9  11
TORSDOF 2
ENDMDL
