MODEL 1
REMARK VINA RESULT:      -4.6      0.000      0.000
REMARK  Name = *****
REMARK  5 active torsions:
REMARK  status: ('A' for Active; 'I' for Inactive)
REMARK    1  A    between atoms: C_4  and  C_7
REMARK    2  A    between atoms: C_7  and  C_8
REMARK    3  A    between atoms: C_8  and  C_9
REMARK    4  A    between atoms: C_9  and  C_10
REMARK    5  A    between atoms: C_9  and  O_17
REMARK                            x       y       z     vdW  Elec       q    Type
REMARK                         _______ _______ _______ _____ _____    ______ ____
ROOT
ATOM      1  C   UNL     1     105.151 124.234  80.229  0.00  0.00    +0.000 C 
ENDROOT
BRANCH   1   2
ATOM      2  C   UNL     1     104.859 123.108  81.200  0.00  0.00    +0.000 A 
ATOM      3  C   UNL     1     104.784 121.776  80.759  0.00  0.00    +0.000 A 
ATOM      4  C   UNL     1     104.512 120.742  81.659  0.00  0.00    +0.000 A 
ATOM      5  C   UNL     1     104.314 121.033  83.005  0.00  0.00    +0.000 A 
ATOM      6  C   UNL     1     104.388 122.347  83.462  0.00  0.00    +0.000 A 
ATOM      7  C   UNL     1     104.661 123.381  82.563  0.00  0.00    +0.000 A 
ATOM      8 CL   UNL     1     103.979 119.761  84.114  0.00  0.00    +0.000 Cl
ENDBRANCH   1   2
BRANCH   1   9
ATOM      9  O   UNL     1     105.503 123.676  78.962  0.00  0.00    +0.000 OA
ATOM     10  H   UNL     1     106.277 123.102  79.064  0.00  0.00    +0.000 HD
ENDBRANCH   1   9
BRANCH   1  11
ATOM     11  C   UNL     1     103.978 125.200  80.022  0.00  0.00    +0.000 C 
BRANCH  11  12
ATOM     12  C   UNL     1     104.232 126.577  80.640  0.00  0.00    +0.000 C 
BRANCH  12  16
ATOM     13  C   UNL     1     101.223 127.591  83.556  0.00  0.00    +0.000 A 
ATOM     14  C   UNL     1     102.292 128.455  83.329  0.00  0.00    +0.000 A 
ATOM     15  C   UNL     1     103.265 128.129  82.382  0.00  0.00    +0.000 A 
ATOM     16  C   UNL     1     103.172 126.937  81.650  0.00  0.00    +0.000 A 
ATOM     17  C   UNL     1     102.096 126.072  81.891  0.00  0.00    +0.000 A 
ATOM     18  C   UNL     1     101.124 126.401  82.839  0.00  0.00    +0.000 A 
ENDBRANCH  12  16
ENDBRANCH  11  12
ENDBRANCH   1  11
TORSDOF 5
ENDMDL
