MODEL 1
REMARK VINA RESULT:      -4.9      0.000      0.000
REMARK  Name = *****
REMARK  3 active torsions:
REMARK  status: ('A' for Active; 'I' for Inactive)
REMARK    1  A    between atoms: C_4  and  C_7
REMARK    2  A    between atoms: N_8  and  N_9
REMARK    3  A    between atoms: N_9  and  C_10
REMARK                            x       y       z     vdW  Elec       q    Type
REMARK                         _______ _______ _______ _____ _____    ______ ____
ROOT
ATOM      1  N   UNL     1     100.361 126.355  82.955  0.00  0.00    +0.000 N 
ATOM      2  H   UNL     1     100.332 126.021  83.880  0.00  0.00    +0.000 HD
ENDROOT
BRANCH   1   3
ATOM      3  C   UNL     1     101.595 126.609  82.402  0.00  0.00    +0.000 A 
ATOM      4  C   UNL     1     102.258 127.779  82.517  0.00  0.00    +0.000 A 
ATOM      5  C   UNL     1     103.486 127.641  81.784  0.00  0.00    +0.000 A 
ATOM      6  C   UNL     1     104.426 128.574  81.633  0.00  0.00    +0.000 A 
ATOM      7  C   UNL     1     105.658 128.471  80.895  0.00  0.00    +0.000 A 
ATOM      8  C   UNL     1     106.145 127.429  80.213  0.00  0.00    +0.000 A 
ATOM      9  C   UNL     1     105.583 126.117  80.020  0.00  0.00    +0.000 A 
ATOM     10  C   UNL     1     104.428 125.606  80.458  0.00  0.00    +0.000 A 
ATOM     11  C   UNL     1     103.400 126.259  81.277  0.00  0.00    +0.000 A 
ATOM     12  N   UNL     1     102.289 125.671  81.645  0.00  0.00    +0.000 NA
ENDBRANCH   1   3
BRANCH   1  14
ATOM     13  C   UNL     1      98.490 127.603  82.586  0.00  0.00    +0.000 C 
ATOM     14  N   UNL     1      99.181 126.535  82.310  0.00  0.00    +0.000 NA
BRANCH  13  18
ATOM     15  C   UNL     1      99.118 130.659  85.494  0.00  0.00    +0.000 A 
ATOM     16  C   UNL     1      98.521 129.460  85.884  0.00  0.00    +0.000 A 
ATOM     17  C   UNL     1      98.316 128.447  84.947  0.00  0.00    +0.000 A 
ATOM     18  C   UNL     1      98.723 128.630  83.623  0.00  0.00    +0.000 A 
ATOM     19  C   UNL     1      99.301 129.839  83.227  0.00  0.00    +0.000 A 
ATOM     20  C   UNL     1      99.504 130.851  84.167  0.00  0.00    +0.000 A 
ENDBRANCH  13  18
ENDBRANCH   1  14
TORSDOF 3
ENDMDL
