MODEL 1
REMARK VINA RESULT:      -5.2      0.000      0.000
REMARK  Name = *****
REMARK  3 active torsions:
REMARK  status: ('A' for Active; 'I' for Inactive)
REMARK    1  A    between atoms: C_1  and  O_2
REMARK    2  A    between atoms: O_2  and  C_3
REMARK    3  A    between atoms: C_10  and  C_13
REMARK                            x       y       z     vdW  Elec       q    Type
REMARK                         _______ _______ _______ _____ _____    ______ ____
ROOT
ATOM      1  C   UNL     1     103.966 124.331  82.351  0.00  0.00    +0.000 A 
ATOM      2  C   UNL     1     104.444 123.735  81.180  0.00  0.00    +0.000 A 
ATOM      3  C   UNL     1     104.658 124.504  80.034  0.00  0.00    +0.000 A 
ATOM      4  C   UNL     1     104.401 125.873  80.051  0.00  0.00    +0.000 A 
ATOM      5  C   UNL     1     103.934 126.491  81.217  0.00  0.00    +0.000 A 
ATOM      6  C   UNL     1     103.702 125.714  82.360  0.00  0.00    +0.000 A 
ATOM      7  O   UNL     1     103.220 126.243  83.535  0.00  0.00    +0.000 OA
ATOM      8  C   UNL     1     102.728 127.593  83.505  0.00  0.00    +0.000 C 
ATOM      9  C   UNL     1     103.619 128.490  82.641  0.00  0.00    +0.000 C 
ATOM     10  C   UNL     1     103.659 127.965  81.216  0.00  0.00    +0.000 C 
ENDROOT
BRANCH   8  11
ATOM     11  C   UNL     1     101.235 127.685  83.194  0.00  0.00    +0.000 A 
ATOM     12  C   UNL     1     100.529 126.624  82.606  0.00  0.00    +0.000 A 
ATOM     13  C   UNL     1      99.161 126.729  82.341  0.00  0.00    +0.000 A 
ATOM     14  C   UNL     1      98.472 127.893  82.670  0.00  0.00    +0.000 A 
ATOM     15  C   UNL     1      99.148 128.950  83.271  0.00  0.00    +0.000 A 
ATOM     16  C   UNL     1     100.517 128.845  83.536  0.00  0.00    +0.000 A 
ENDBRANCH   8  11
BRANCH   1  18
ATOM     17  C   UNL     1     104.414 122.447  83.748  0.00  0.00    +0.000 C 
ATOM     18  O   UNL     1     103.711 123.659  83.520  0.00  0.00    +0.000 OA
ENDBRANCH   1  18
TORSDOF 2
ENDMDL
