REMARK  Name = *****
REMARK  1 active torsions:
REMARK  status: ('A' for Active; 'I' for Inactive)
REMARK    1  A    between atoms: C_2  and  C_13
REMARK                            x       y       z     vdW  Elec       q    Type
REMARK                         _______ _______ _______ _____ _____    ______ ____
ROOT
ATOM      1  C   UNL     1      -2.471   0.802  -0.474  0.00  0.00    +0.000 C 
ATOM      2  C   UNL     1      -2.398  -0.544   0.235  0.00  0.00    +0.000 C 
ATOM      3  O   UNL     1      -1.265  -1.306  -0.218  0.00  0.00    +0.000 OA
ATOM      4  C   UNL     1      -0.078  -0.638  -0.076  0.00  0.00    +0.000 A 
ATOM      5  C   UNL     1       0.019   0.754  -0.021  0.00  0.00    +0.000 A 
ATOM      6  C   UNL     1      -1.210   1.559  -0.170  0.00  0.00    +0.000 C 
ATOM      7  O   UNL     1      -1.171   2.783  -0.107  0.00  0.00    +0.000 OA
ATOM      8  C   UNL     1       1.263   1.373   0.130  0.00  0.00    +0.000 A 
ATOM      9  C   UNL     1       2.416   0.589   0.211  0.00  0.00    +0.000 A 
ATOM     10  C   UNL     1       2.317  -0.801   0.133  0.00  0.00    +0.000 A 
ATOM     11  C   UNL     1       1.075  -1.419  -0.015  0.00  0.00    +0.000 A 
ATOM     12 CL   UNL     1       3.742  -1.762   0.221  0.00  0.00    +0.000 Cl
ENDROOT
BRANCH   2  13
ATOM     13  C   UNL     1      -3.663  -1.344  -0.016  0.00  0.00    +0.000 A 
ATOM     14  C   UNL     1      -3.829  -2.104  -1.185  0.00  0.00    +0.000 A 
ATOM     15  C   UNL     1      -5.011  -2.812  -1.412  0.00  0.00    +0.000 A 
ATOM     16  C   UNL     1      -6.043  -2.765  -0.478  0.00  0.00    +0.000 A 
ATOM     17  C   UNL     1      -5.896  -2.010   0.684  0.00  0.00    +0.000 A 
ATOM     18  C   UNL     1      -4.715  -1.301   0.913  0.00  0.00    +0.000 A 
ENDBRANCH   2  13
TORSDOF 1
