MODEL 1
REMARK VINA RESULT:      -5.1      0.000      0.000
REMARK  Name = *****
REMARK  3 active torsions:
REMARK  status: ('A' for Active; 'I' for Inactive)
REMARK    1  A    between atoms: C_4  and  O_7
REMARK    2  A    between atoms: O_7  and  C_8
REMARK    3  A    between atoms: C_8  and  C_10
REMARK                            x       y       z     vdW  Elec       q    Type
REMARK                         _______ _______ _______ _____ _____    ______ ____
ROOT
ATOM      1  C   UNL     1      88.619  69.787  86.427  0.00  0.00    +0.000 A 
ATOM      2  N   UNL     1      87.645  70.368  85.678  0.00  0.00    +0.000 NA
ATOM      3  C   UNL     1      86.659  71.019  86.317  0.00  0.00    +0.000 A 
ATOM      4  C   UNL     1      85.651  71.621  85.576  0.00  0.00    +0.000 A 
ATOM      5  C   UNL     1      84.601  72.310  86.190  0.00  0.00    +0.000 A 
ATOM      6  C   UNL     1      84.551  72.405  87.576  0.00  0.00    +0.000 A 
ATOM      7  C   UNL     1      85.549  71.811  88.344  0.00  0.00    +0.000 A 
ATOM      8  C   UNL     1      86.604  71.118  87.724  0.00  0.00    +0.000 A 
ATOM      9  C   UNL     1      87.621  70.510  88.469  0.00  0.00    +0.000 A 
ATOM     10  C   UNL     1      88.645  69.834  87.815  0.00  0.00    +0.000 A 
ENDROOT
BRANCH   1  11
ATOM     11  C   UNL     1      89.715  69.061  85.716  0.00  0.00    +0.000 C 
ATOM     12  O   UNL     1      90.007  69.269  84.546  0.00  0.00    +0.000 OA
BRANCH  11  13
ATOM     13  O   UNL     1      90.308  68.163  86.586  0.00  0.00    +0.000 OA
BRANCH  13  17
ATOM     14  C   UNL     1      89.785  64.092  85.827  0.00  0.00    +0.000 A 
ATOM     15  C   UNL     1      90.892  64.773  85.317  0.00  0.00    +0.000 A 
ATOM     16  C   UNL     1      91.048  66.136  85.566  0.00  0.00    +0.000 A 
ATOM     17  C   UNL     1      90.083  66.809  86.312  0.00  0.00    +0.000 A 
ATOM     18  C   UNL     1      88.986  66.134  86.847  0.00  0.00    +0.000 A 
ATOM     19  C   UNL     1      88.834  64.771  86.594  0.00  0.00    +0.000 A 
ENDBRANCH  13  17
ENDBRANCH  11  13
ENDBRANCH   1  11
TORSDOF 3
ENDMDL
