MODEL 1
REMARK VINA RESULT:      -4.9      0.000      0.000
REMARK  Name = *****
REMARK  5 active torsions:
REMARK  status: ('A' for Active; 'I' for Inactive)
REMARK    1  A    between atoms: C_1  and  C_2
REMARK    2  A    between atoms: C_3  and  C_19
REMARK    3  A    between atoms: C_5  and  O_8
REMARK    4  A    between atoms: O_8  and  C_9
REMARK    5  A    between atoms: C_9  and  C_10
REMARK                            x       y       z     vdW  Elec       q    Type
REMARK                         _______ _______ _______ _____ _____    ______ ____
ROOT
ATOM      1  C   UNL     1      88.773  70.081  87.139  0.00  0.00    +0.000 C 
ENDROOT
BRANCH   1   2
ATOM      2  C   UNL     1      89.055  68.636  86.847  0.00  0.00    +0.000 A 
ATOM      3  N   UNL     1      90.136  68.198  86.236  0.00  0.00    +0.000 NA
ATOM      4  C   UNL     1      90.086  66.819  86.112  0.00  0.00    +0.000 A 
ATOM      5  C   UNL     1      91.076  66.006  85.524  0.00  0.00    +0.000 A 
ATOM      6  C   UNL     1      90.894  64.621  85.463  0.00  0.00    +0.000 A 
ATOM      7  C   UNL     1      89.741  64.039  85.978  0.00  0.00    +0.000 A 
ATOM      8  C   UNL     1      88.743  64.823  86.565  0.00  0.00    +0.000 A 
ATOM      9  C   UNL     1      88.937  66.214  86.621  0.00  0.00    +0.000 A 
ATOM     10  S   UNL     1      87.904  67.428  87.269  0.00  0.00    +0.000 S 
ENDBRANCH   1   2
BRANCH   1  11
ATOM     11  O   UNL     1      88.098  70.624  86.002  0.00  0.00    +0.000 OA
BRANCH  11  16
ATOM     12  C   UNL     1      83.119  73.015  87.349  0.00  0.00    +0.000 C 
ATOM     13  C   UNL     1      84.435  72.384  86.986  0.00  0.00    +0.000 A 
ATOM     14  C   UNL     1      85.312  71.892  87.971  0.00  0.00    +0.000 A 
ATOM     15  C   UNL     1      86.529  71.315  87.575  0.00  0.00    +0.000 A 
ATOM     16  C   UNL     1      86.883  71.210  86.227  0.00  0.00    +0.000 A 
ATOM     17  C   UNL     1      86.011  71.693  85.257  0.00  0.00    +0.000 A 
ATOM     18  C   UNL     1      84.797  72.275  85.635  0.00  0.00    +0.000 A 
ATOM     19  C   UNL     1      84.982  71.985  89.435  0.00  0.00    +0.000 C 
ENDBRANCH  11  16
ENDBRANCH   1  11
TORSDOF 3
ENDMDL
