MODEL 1
REMARK VINA RESULT:      -4.7      0.000      0.000
REMARK  Name = *****
REMARK  7 active torsions:
REMARK  status: ('A' for Active; 'I' for Inactive)
REMARK    1  A    between atoms: C_1  and  O_2
REMARK    2  A    between atoms: O_2  and  C_3
REMARK    3  A    between atoms: C_3  and  C_5
REMARK    4  A    between atoms: C_5  and  C_6
REMARK    5  A    between atoms: C_5  and  C_13
REMARK    6  A    between atoms: C_5  and  O_19
REMARK    7  A    between atoms: C_6  and  C_7
REMARK                            x       y       z     vdW  Elec       q    Type
REMARK                         _______ _______ _______ _____ _____    ______ ____
ROOT
ATOM      1  C   UNL     1     103.249 125.684  81.522  0.00  0.00    +0.000 C 
ENDROOT
BRANCH   1   2
ATOM      2  C   UNL     1     104.063 126.984  81.448  0.00  0.00    +0.000 A 
ATOM      3  C   UNL     1     104.899 127.427  82.490  0.00  0.00    +0.000 A 
ATOM      4  C   UNL     1     105.620 128.621  82.387  0.00  0.00    +0.000 A 
ATOM      5  C   UNL     1     105.529 129.398  81.236  0.00  0.00    +0.000 A 
ATOM      6  C   UNL     1     104.724 128.978  80.183  0.00  0.00    +0.000 A 
ATOM      7  C   UNL     1     104.003 127.785  80.288  0.00  0.00    +0.000 A 
ENDBRANCH   1   2
BRANCH   1   8
ATOM      8  C   UNL     1     104.098 124.403  81.757  0.00  0.00    +0.000 C 
ATOM      9  C   UNL     1     104.238 123.832  82.969  0.00  0.00    +0.000 C 
BRANCH   8  11
ATOM     10  C   UNL     1     104.970 122.513  80.526  0.00  0.00    +0.000 C 
ATOM     11  O   UNL     1     104.671 123.900  80.601  0.00  0.00    +0.000 OA
ENDBRANCH   8  11
ENDBRANCH   1   8
BRANCH   1  12
ATOM     12  O   UNL     1     102.661 125.575  80.195  0.00  0.00    +0.000 OA
ATOM     13  H   UNL     1     103.348 125.333  79.556  0.00  0.00    +0.000 HD
ENDBRANCH   1  12
BRANCH   1  14
ATOM     14  C   UNL     1     102.004 125.776  82.469  0.00  0.00    +0.000 C 
BRANCH  14  15
ATOM     15  C   UNL     1     101.055 126.999  82.449  0.00  0.00    +0.000 C 
ATOM     16  C   UNL     1     101.389 127.901  83.658  0.00  0.00    +0.000 C 
ATOM     17  C   UNL     1     100.498 129.137  83.724  0.00  0.00    +0.000 C 
ATOM     18  C   UNL     1      99.023 128.758  83.737  0.00  0.00    +0.000 C 
ATOM     19  C   UNL     1      98.670 127.882  82.542  0.00  0.00    +0.000 C 
ATOM     20  C   UNL     1      99.563 126.643  82.456  0.00  0.00    +0.000 C 
ENDBRANCH  14  15
ENDBRANCH   1  14
TORSDOF 6
ENDMDL
