MODEL 1
REMARK VINA RESULT:      -4.0      0.000      0.000
REMARK  Name = *****
REMARK  1 active torsions:
REMARK  status: ('A' for Active; 'I' for Inactive)
REMARK    1  A    between atoms: C_2  and  C_10
REMARK                            x       y       z     vdW  Elec       q    Type
REMARK                         _______ _______ _______ _____ _____    ______ ____
ROOT
ATOM      1  C   UNL     1      89.662  69.736  85.215  0.00  0.00    +0.000 C 
ATOM      2  C   UNL     1      88.176  69.939  85.606  0.00  0.00    +0.000 C 
ATOM      3  O   UNL     1      87.451  70.701  84.615  0.00  0.00    +0.000 OA
ATOM      4  C   UNL     1      88.208  71.706  84.114  0.00  0.00    +0.000 A 
ATOM      5  C   UNL     1      87.676  72.719  83.358  0.00  0.00    +0.000 A 
ATOM      6  S   UNL     1      88.884  73.850  82.893  0.00  0.00    +0.000 S 
ATOM      7  C   UNL     1      90.115  72.962  83.700  0.00  0.00    +0.000 A 
ATOM      8  C   UNL     1      89.607  71.831  84.287  0.00  0.00    +0.000 A 
ATOM      9  O   UNL     1      90.380  70.959  84.974  0.00  0.00    +0.000 OA
ENDROOT
BRANCH   2  10
ATOM     10  C   UNL     1      87.876  70.490  86.995  0.00  0.00    +0.000 A 
ATOM     11  C   UNL     1      88.805  70.484  88.045  0.00  0.00    +0.000 A 
ATOM     12  C   UNL     1      88.469  71.001  89.299  0.00  0.00    +0.000 A 
ATOM     13  C   UNL     1      87.202  71.537  89.522  0.00  0.00    +0.000 A 
ATOM     14  C   UNL     1      86.269  71.559  88.489  0.00  0.00    +0.000 A 
ATOM     15  C   UNL     1      86.605  71.042  87.236  0.00  0.00    +0.000 A 
ENDBRANCH   2  10
TORSDOF 1
ENDMDL
