MODEL 1
REMARK VINA RESULT:      -4.4      0.000      0.000
REMARK  Name = *****
REMARK  1 active torsions:
REMARK  status: ('A' for Active; 'I' for Inactive)
REMARK    1  A    between atoms: C_2  and  C_12
REMARK                            x       y       z     vdW  Elec       q    Type
REMARK                         _______ _______ _______ _____ _____    ______ ____
ROOT
ATOM      1  C   UNL     1     101.289 126.348  83.399  0.00  0.00    +0.000 C 
ATOM      2  C   UNL     1     102.608 127.086  83.565  0.00  0.00    +0.000 C 
ATOM      3  O   UNL     1     102.500 128.205  84.462  0.00  0.00    +0.000 OA
ATOM      4  C   UNL     1     101.448 129.044  84.224  0.00  0.00    +0.000 A 
ATOM      5  C   UNL     1     101.544 130.327  84.760  0.00  0.00    +0.000 A 
ATOM      6  C   UNL     1     100.516 131.250  84.555  0.00  0.00    +0.000 A 
ATOM      7  C   UNL     1      99.386 130.889  83.821  0.00  0.00    +0.000 A 
ATOM      8  C   UNL     1      99.278 129.600  83.299  0.00  0.00    +0.000 A 
ATOM      9  C   UNL     1     100.309 128.679  83.509  0.00  0.00    +0.000 A 
ATOM     10  C   UNL     1     100.195 127.300  83.007  0.00  0.00    +0.000 C 
ATOM     11  O   UNL     1      99.222 126.942  82.351  0.00  0.00    +0.000 OA
ENDROOT
BRANCH   2  12
ATOM     12  C   UNL     1     103.278 127.547  82.284  0.00  0.00    +0.000 A 
ATOM     13  C   UNL     1     103.105 127.122  80.978  0.00  0.00    +0.000 A 
ATOM     14  C   UNL     1     103.942 127.819  80.057  0.00  0.00    +0.000 A 
ATOM     15  C   UNL     1     104.735 128.751  80.684  0.00  0.00    +0.000 A 
ATOM     16  S   UNL     1     104.478 128.780  82.371  0.00  0.00    +0.000 S 
ENDBRANCH   2  12
TORSDOF 1
ENDMDL
