MODEL 1
REMARK VINA RESULT:      -4.8      0.000      0.000
REMARK  Name = *****
REMARK  4 active torsions:
REMARK  status: ('A' for Active; 'I' for Inactive)
REMARK    1  A    between atoms: C_1  and  C_2
REMARK    2  A    between atoms: C_2  and  C_3
REMARK    3  A    between atoms: C_4  and  C_12
REMARK    4  A    between atoms: C_12  and  C_13
REMARK                            x       y       z     vdW  Elec       q    Type
REMARK                         _______ _______ _______ _____ _____    ______ ____
ROOT
ATOM      1  C   UNL     1      88.256  70.004  86.058  0.00  0.00    +0.000 C 
ATOM      2  C   UNL     1      88.601  69.161  87.318  0.00  0.00    +0.000 C 
ATOM      3  O   UNL     1      88.084  69.866  88.485  0.00  0.00    +0.000 OA
ATOM      4  C   UNL     1      87.085  70.658  87.984  0.00  0.00    +0.000 A 
ATOM      5  C   UNL     1      86.147  71.300  88.764  0.00  0.00    +0.000 A 
ATOM      6  C   UNL     1      85.164  72.050  88.117  0.00  0.00    +0.000 A 
ATOM      7  C   UNL     1      85.147  72.141  86.715  0.00  0.00    +0.000 A 
ATOM      8  C   UNL     1      86.116  71.490  85.947  0.00  0.00    +0.000 A 
ATOM      9  C   UNL     1      87.092  70.757  86.602  0.00  0.00    +0.000 A 
ENDROOT
BRANCH   1  11
ATOM     10  C   UNL     1      90.194  70.424  84.440  0.00  0.00    +0.000 C 
ATOM     11  C   UNL     1      89.435  70.911  85.667  0.00  0.00    +0.000 C 
ENDBRANCH   1  11
BRANCH   2  12
ATOM     12  C   UNL     1      87.977  67.751  87.253  0.00  0.00    +0.000 C 
BRANCH  12  13
ATOM     13  C   UNL     1      88.917  66.728  86.655  0.00  0.00    +0.000 A 
ATOM     14  C   UNL     1      88.570  65.370  86.642  0.00  0.00    +0.000 A 
ATOM     15  C   UNL     1      89.440  64.422  86.102  0.00  0.00    +0.000 A 
ATOM     16  C   UNL     1      90.666  64.822  85.575  0.00  0.00    +0.000 A 
ATOM     17  C   UNL     1      91.024  66.168  85.588  0.00  0.00    +0.000 A 
ATOM     18  C   UNL     1      90.155  67.119  86.128  0.00  0.00    +0.000 A 
ENDBRANCH  12  13
ENDBRANCH   2  12
TORSDOF 3
ENDMDL
