MODEL 1
REMARK VINA RESULT:      -4.7      0.000      0.000
REMARK  Name = *****
REMARK  4 active torsions:
REMARK  status: ('A' for Active; 'I' for Inactive)
REMARK    1  A    between atoms: C_1  and  O_2
REMARK    2  A    between atoms: O_2  and  C_3
REMARK    3  A    between atoms: C_3  and  C_5
REMARK    4  A    between atoms: C_6  and  C_14
REMARK                            x       y       z     vdW  Elec       q    Type
REMARK                         _______ _______ _______ _____ _____    ______ ____
ROOT
ATOM      1  C   UNL     1      89.166  65.466  87.038  0.00  0.00    +0.000 C 
ATOM      2  C   UNL     1      88.317  66.704  86.660  0.00  0.00    +0.000 C 
ATOM      3  O   UNL     1      87.266  66.906  87.644  0.00  0.00    +0.000 OA
ATOM      4  C   UNL     1      87.352  65.835  88.487  0.00  0.00    +0.000 A 
ATOM      5  C   UNL     1      86.490  65.628  89.547  0.00  0.00    +0.000 A 
ATOM      6  C   UNL     1      86.692  64.504  90.348  0.00  0.00    +0.000 A 
ATOM      7  C   UNL     1      87.748  63.620  90.075  0.00  0.00    +0.000 A 
ATOM      8  C   UNL     1      88.610  63.853  89.001  0.00  0.00    +0.000 A 
ATOM      9  C   UNL     1      88.392  64.969  88.208  0.00  0.00    +0.000 A 
ENDROOT
BRANCH   2  10
ATOM     10  C   UNL     1      89.151  68.003  86.522  0.00  0.00    +0.000 C 
ATOM     11  C   UNL     1      88.595  69.172  87.360  0.00  0.00    +0.000 C 
ATOM     12  C   UNL     1      89.429  70.440  87.184  0.00  0.00    +0.000 C 
ATOM     13  C   UNL     1      89.539  70.842  85.718  0.00  0.00    +0.000 C 
ATOM     14  C   UNL     1      90.070  69.696  84.864  0.00  0.00    +0.000 C 
ATOM     15  C   UNL     1      89.239  68.428  85.042  0.00  0.00    +0.000 C 
ENDBRANCH   2  10
BRANCH   1  16
ATOM     16  C   UNL     1      89.265  64.499  85.877  0.00  0.00    +0.000 C 
ATOM     17  O   UNL     1      88.327  64.046  85.234  0.00  0.00    +0.000 OA
BRANCH  16  19
ATOM     18  C   UNL     1      91.418  65.172  85.229  0.00  0.00    +0.000 C 
ATOM     19  O   UNL     1      90.568  64.123  85.696  0.00  0.00    +0.000 OA
ENDBRANCH  16  19
ENDBRANCH   1  16
TORSDOF 3
ENDMDL
