MODEL 1
REMARK VINA RESULT:      -5.6      0.000      0.000
REMARK  Name = *****
REMARK  2 active torsions:
REMARK  status: ('A' for Active; 'I' for Inactive)
REMARK    1  A    between atoms: C_1  and  C_2
REMARK    2  A    between atoms: C_5  and  C_8
REMARK                            x       y       z     vdW  Elec       q    Type
REMARK                         _______ _______ _______ _____ _____    ______ ____
ROOT
ATOM      1  C   UNL     1     101.815 126.982  82.091  0.00  0.00    +0.000 C 
ATOM      2  C   UNL     1     100.434 126.358  82.243  0.00  0.00    +0.000 C 
ATOM      3  C   UNL     1      99.455 127.457  82.538  0.00  0.00    +0.000 C 
ATOM      4  O   UNL     1      98.279 127.407  82.194  0.00  0.00    +0.000 OA
ATOM      5  C   UNL     1      99.960 128.588  83.344  0.00  0.00    +0.000 A 
ATOM      6  C   UNL     1     101.312 128.611  83.695  0.00  0.00    +0.000 A 
ATOM      7  O   UNL     1     102.211 127.659  83.297  0.00  0.00    +0.000 OA
ATOM      8  C   UNL     1     101.798 129.627  84.516  0.00  0.00    +0.000 A 
ATOM      9  C   UNL     1     100.931 130.625  84.950  0.00  0.00    +0.000 A 
ATOM     10  C   UNL     1      99.586 130.622  84.586  0.00  0.00    +0.000 A 
ATOM     11  C   UNL     1      99.093 129.595  83.781  0.00  0.00    +0.000 A 
ATOM     12  F   UNL     1     101.398 131.608  85.731  0.00  0.00    +0.000 F 
ENDROOT
BRANCH   1  17
ATOM     13  C   UNL     1     105.707 122.838  80.756  0.00  0.00    +0.000 C 
ATOM     14  C   UNL     1     104.733 123.921  81.114  0.00  0.00    +0.000 A 
ATOM     15  C   UNL     1     104.335 124.860  80.157  0.00  0.00    +0.000 A 
ATOM     16  C   UNL     1     103.404 125.851  80.480  0.00  0.00    +0.000 A 
ATOM     17  C   UNL     1     102.847 125.919  81.765  0.00  0.00    +0.000 A 
ATOM     18  C   UNL     1     103.234 124.961  82.714  0.00  0.00    +0.000 A 
ATOM     19  C   UNL     1     104.165 123.971  82.392  0.00  0.00    +0.000 A 
ENDBRANCH   1  17
TORSDOF 1
ENDMDL
