MODEL 1
REMARK VINA RESULT:      -4.9      0.000      0.000
REMARK  Name = *****
REMARK  3 active torsions:
REMARK  status: ('A' for Active; 'I' for Inactive)
REMARK    1  A    between atoms: C_1  and  C_2
REMARK    2  A    between atoms: C_3  and  C_11
REMARK    3  A    between atoms: C_11  and  C_13
REMARK                            x       y       z     vdW  Elec       q    Type
REMARK                         _______ _______ _______ _____ _____    ______ ____
ROOT
ATOM      1  C   UNL     1     103.802 125.215  83.541  0.00  0.00    +0.000 C 
ATOM      2  C   UNL     1     103.160 125.044  82.165  0.00  0.00    +0.000 C 
ATOM      3  C   UNL     1     102.874 126.358  81.401  0.00  0.00    +0.000 C 
ATOM      4  O   UNL     1     104.049 126.678  80.611  0.00  0.00    +0.000 OA
ATOM      5  C   UNL     1     104.615 125.453  80.374  0.00  0.00    +0.000 A 
ATOM      6  C   UNL     1     105.588 125.214  79.427  0.00  0.00    +0.000 A 
ATOM      7  C   UNL     1     106.073 123.910  79.307  0.00  0.00    +0.000 A 
ATOM      8  C   UNL     1     105.583 122.887  80.138  0.00  0.00    +0.000 A 
ATOM      9  C   UNL     1     104.609 123.157  81.103  0.00  0.00    +0.000 A 
ATOM     10  C   UNL     1     104.134 124.453  81.205  0.00  0.00    +0.000 A 
ENDROOT
BRANCH   3  11
ATOM     11  C   UNL     1     102.470 127.529  82.302  0.00  0.00    +0.000 C 
ATOM     12  O   UNL     1     103.273 128.384  82.675  0.00  0.00    +0.000 OA
BRANCH  11  13
ATOM     13  C   UNL     1     101.047 127.641  82.758  0.00  0.00    +0.000 A 
ATOM     14  C   UNL     1     100.055 126.722  82.393  0.00  0.00    +0.000 A 
ATOM     15  C   UNL     1      98.746 126.878  82.859  0.00  0.00    +0.000 A 
ATOM     16  C   UNL     1      98.419 127.952  83.686  0.00  0.00    +0.000 A 
ATOM     17  C   UNL     1      99.397 128.874  84.049  0.00  0.00    +0.000 A 
ATOM     18  C   UNL     1     100.704 128.721  83.585  0.00  0.00    +0.000 A 
ENDBRANCH  11  13
ENDBRANCH   3  11
TORSDOF 2
ENDMDL
