MODEL 1
REMARK VINA RESULT:      -4.6      0.000      0.000
REMARK  Name = *****
REMARK  3 active torsions:
REMARK  status: ('A' for Active; 'I' for Inactive)
REMARK    1  A    between atoms: C_1  and  C_2
REMARK    2  A    between atoms: N_9  and  N_12
REMARK    3  A    between atoms: C_13  and  C_14
REMARK                            x       y       z     vdW  Elec       q    Type
REMARK                         _______ _______ _______ _____ _____    ______ ____
ROOT
ATOM      1  C   UNL     1      90.021  70.820  85.684  0.00  0.00    +0.000 C 
ATOM      2  C   UNL     1      89.051  69.772  86.146  0.00  0.00    +0.000 A 
ATOM      3  C   UNL     1      89.438  68.425  86.190  0.00  0.00    +0.000 A 
ATOM      4  C   UNL     1      88.502  67.479  86.592  0.00  0.00    +0.000 A 
ATOM      5  C   UNL     1      87.199  67.832  86.927  0.00  0.00    +0.000 A 
ATOM      6  C   UNL     1      86.797  69.156  86.871  0.00  0.00    +0.000 A 
ATOM      7  C   UNL     1      87.727  70.125  86.476  0.00  0.00    +0.000 A 
ATOM      8  S   UNL     1      86.230  66.425  87.376  0.00  0.00    +0.000 S 
ATOM      9  N   UNL     1      87.601  65.403  87.242  0.00  0.00    +0.000 N 
ATOM     10  C   UNL     1      88.734  66.026  86.688  0.00  0.00    +0.000 A 
ATOM     11  O   UNL     1      89.778  65.520  86.300  0.00  0.00    +0.000 OA
ENDROOT
BRANCH   9  12
ATOM     12  N   UNL     1      87.369  64.070  87.091  0.00  0.00    +0.000 NA
ATOM     13  C   UNL     1      87.535  63.282  88.113  0.00  0.00    +0.000 C 
BRANCH  13  14
ATOM     14  C   UNL     1      87.714  63.622  89.539  0.00  0.00    +0.000 A 
ATOM     15  C   UNL     1      88.989  63.767  90.097  0.00  0.00    +0.000 A 
ATOM     16  C   UNL     1      89.120  64.125  91.441  0.00  0.00    +0.000 A 
ATOM     17  C   UNL     1      87.979  64.350  92.213  0.00  0.00    +0.000 A 
ATOM     18  C   UNL     1      86.708  64.228  91.652  0.00  0.00    +0.000 A 
ATOM     19  C   UNL     1      86.574  63.873  90.307  0.00  0.00    +0.000 A 
ATOM     20 CL   UNL     1      88.144  64.792  93.867  0.00  0.00    +0.000 Cl
ENDBRANCH  13  14
ENDBRANCH   9  12
TORSDOF 2
ENDMDL
