MODEL 1
REMARK VINA RESULT:      -5.1      0.000      0.000
REMARK  Name = *****
REMARK  3 active torsions:
REMARK  status: ('A' for Active; 'I' for Inactive)
REMARK    1  A    between atoms: C_10  and  C_11
REMARK    2  A    between atoms: C_11  and  C_12
REMARK    3  A    between atoms: C_11  and  O_19
REMARK                            x       y       z     vdW  Elec       q    Type
REMARK                         _______ _______ _______ _____ _____    ______ ____
ROOT
ATOM      1  C   UNL     1      83.773  72.630  87.773  0.00  0.00    +0.000 A 
ATOM      2  C   UNL     1      84.606  72.074  88.734  0.00  0.00    +0.000 A 
ATOM      3  C   UNL     1      85.806  71.470  88.352  0.00  0.00    +0.000 A 
ATOM      4  C   UNL     1      86.206  71.410  86.996  0.00  0.00    +0.000 A 
ATOM      5  C   UNL     1      85.347  71.983  86.030  0.00  0.00    +0.000 A 
ATOM      6  C   UNL     1      84.140  72.584  86.429  0.00  0.00    +0.000 A 
ATOM      7  C   UNL     1      85.703  71.956  84.679  0.00  0.00    +0.000 A 
ATOM      8  C   UNL     1      86.901  71.374  84.315  0.00  0.00    +0.000 A 
ATOM      9  N   UNL     1      87.758  70.820  85.191  0.00  0.00    +0.000 NA
ATOM     10  C   UNL     1      87.407  70.829  86.517  0.00  0.00    +0.000 A 
ENDROOT
BRANCH  10  11
ATOM     11  C   UNL     1      88.428  70.162  87.445  0.00  0.00    +0.000 C 
BRANCH  11  12
ATOM     12  C   UNL     1      88.693  68.700  87.137  0.00  0.00    +0.000 A 
ATOM     13  C   UNL     1      89.859  68.349  86.421  0.00  0.00    +0.000 A 
ATOM     14  C   UNL     1      90.161  67.019  86.125  0.00  0.00    +0.000 A 
ATOM     15  C   UNL     1      89.307  66.006  86.544  0.00  0.00    +0.000 A 
ATOM     16  C   UNL     1      88.158  66.325  87.266  0.00  0.00    +0.000 A 
ATOM     17  C   UNL     1      87.855  67.660  87.568  0.00  0.00    +0.000 A 
ATOM     18 CL   UNL     1      86.422  67.939  88.494  0.00  0.00    +0.000 Cl
ENDBRANCH  11  12
BRANCH  11  19
ATOM     19  O   UNL     1      89.697  70.837  87.330  0.00  0.00    +0.000 OA
ATOM     20  H   UNL     1      90.002  70.798  86.410  0.00  0.00    +0.000 HD
ENDBRANCH  11  19
ENDBRANCH  10  11
TORSDOF 3
ENDMDL
