REMARK  Name = *****
REMARK  5 active torsions:
REMARK  status: ('A' for Active; 'I' for Inactive)
REMARK    1  A    between atoms: C_1  and  C_2
REMARK    2  A    between atoms: C_2  and  O_3
REMARK    3  A    between atoms: O_3  and  C_4
REMARK    4  A    between atoms: C_4  and  C_6
REMARK    5  A    between atoms: C_6  and  C_15
REMARK                            x       y       z     vdW  Elec       q    Type
REMARK                         _______ _______ _______ _____ _____    ______ ____
ROOT
ATOM      1  C   UNL     1       4.960  -1.764   2.667  0.00  0.00    +0.000 C 
ATOM      2  C   UNL     1       4.408  -3.158   2.645  0.00  0.00    +0.000 A 
ATOM      3  C   UNL     1       3.120  -3.662   2.563  0.00  0.00    +0.000 A 
ATOM      4  C   UNL     1       2.962  -5.049   2.555  0.00  0.00    +0.000 A 
ATOM      5  C   UNL     1       4.079  -5.897   2.627  0.00  0.00    +0.000 A 
ATOM      6  C   UNL     1       5.369  -5.364   2.708  0.00  0.00    +0.000 A 
ATOM      7  C   UNL     1       5.514  -3.987   2.716  0.00  0.00    +0.000 A 
ATOM      8  N   UNL     1       6.718  -3.278   2.793  0.00  0.00    +0.000 NA
ATOM      9  N   UNL     1       6.449  -2.037   2.777  0.00  0.00    +0.000 NA
ENDROOT
BRANCH   1  10
ATOM     10  C   UNL     1       4.423  -0.945   3.849  0.00  0.00    +0.000 A 
ATOM     11  C   UNL     1       3.226  -0.211   3.741  0.00  0.00    +0.000 A 
ATOM     12  C   UNL     1       2.724   0.508   4.829  0.00  0.00    +0.000 A 
ATOM     13  C   UNL     1       3.398   0.497   6.047  0.00  0.00    +0.000 A 
ATOM     14  C   UNL     1       4.574  -0.235   6.180  0.00  0.00    +0.000 A 
ATOM     15  C   UNL     1       5.080  -0.953   5.093  0.00  0.00    +0.000 A 
ENDBRANCH   1  10
BRANCH   1  16
ATOM     16  C   UNL     1       4.765  -1.040   1.314  0.00  0.00    +0.000 C 
ATOM     17  O   UNL     1       3.826  -1.229   0.545  0.00  0.00    +0.000 OA
BRANCH  16  18
ATOM     18  O   UNL     1       5.737  -0.098   1.103  0.00  0.00    +0.000 OA
BRANCH  18  20
ATOM     19  C   UNL     1       6.384  -0.178  -1.224  0.00  0.00    +0.000 C 
ATOM     20  C   UNL     1       5.672   0.612  -0.141  0.00  0.00    +0.000 C 
ENDBRANCH  18  20
ENDBRANCH  16  18
ENDBRANCH   1  16
TORSDOF 4
