REMARK  Name = *****
REMARK  2 active torsions:
REMARK  status: ('A' for Active; 'I' for Inactive)
REMARK    1  A    between atoms: C_1  and  C_2
REMARK    2  A    between atoms: C_5  and  C_8
REMARK                            x       y       z     vdW  Elec       q    Type
REMARK                         _______ _______ _______ _____ _____    ______ ____
ROOT
ATOM      1  C   UNL     1      -3.631  -0.001   0.391  0.00  0.00    +0.000 C 
ATOM      2  C   UNL     1      -4.338  -0.484   1.648  0.00  0.00    +0.000 C 
ATOM      3  C   UNL     1      -5.814  -0.281   1.456  0.00  0.00    +0.000 C 
ATOM      4  O   UNL     1      -6.652  -1.003   1.986  0.00  0.00    +0.000 OA
ATOM      5  C   UNL     1      -6.221   0.885   0.646  0.00  0.00    +0.000 A 
ATOM      6  C   UNL     1      -5.235   1.677   0.053  0.00  0.00    +0.000 A 
ATOM      7  O   UNL     1      -3.898   1.392   0.164  0.00  0.00    +0.000 OA
ATOM      8  C   UNL     1      -5.619   2.823  -0.653  0.00  0.00    +0.000 A 
ATOM      9  C   UNL     1      -6.972   3.149  -0.788  0.00  0.00    +0.000 A 
ATOM     10  C   UNL     1      -7.951   2.339  -0.211  0.00  0.00    +0.000 A 
ATOM     11  C   UNL     1      -7.577   1.207   0.511  0.00  0.00    +0.000 A 
ATOM     12 CL   UNL     1      -4.449   3.858  -1.390  0.00  0.00    +0.000 Cl
ENDROOT
BRANCH   1  17
ATOM     13  C   UNL     1       2.116  -0.889   0.933  0.00  0.00    +0.000 C 
ATOM     14  C   UNL     1       0.646  -0.640   0.767  0.00  0.00    +0.000 A 
ATOM     15  C   UNL     1      -0.162  -1.576   0.114  0.00  0.00    +0.000 A 
ATOM     16  C   UNL     1      -1.537  -1.360  -0.014  0.00  0.00    +0.000 A 
ATOM     17  C   UNL     1      -2.132  -0.205   0.514  0.00  0.00    +0.000 A 
ATOM     18  C   UNL     1      -1.320   0.720   1.186  0.00  0.00    +0.000 A 
ATOM     19  C   UNL     1       0.054   0.503   1.314  0.00  0.00    +0.000 A 
ENDBRANCH   1  17
TORSDOF 1
