REMARK  Name = *****
REMARK  2 active torsions:
REMARK  status: ('A' for Active; 'I' for Inactive)
REMARK    1  A    between atoms: C_2  and  C_10
REMARK    2  A    between atoms: C_10  and  C_12
REMARK                            x       y       z     vdW  Elec       q    Type
REMARK                         _______ _______ _______ _____ _____    ______ ____
ROOT
ATOM      1  C   UNL     1       1.493   1.395   0.022  0.00  0.00    +0.000 C 
ATOM      2  C   UNL     1       2.346   0.147  -0.271  0.00  0.00    +0.000 C 
ATOM      3  O   UNL     1       1.553  -1.032   0.006  0.00  0.00    +0.000 OA
ATOM      4  C   UNL     1       0.258  -0.589  -0.016  0.00  0.00    +0.000 A 
ATOM      5  C   UNL     1      -0.847  -1.414  -0.001  0.00  0.00    +0.000 A 
ATOM      6  C   UNL     1      -2.108  -0.816  -0.015  0.00  0.00    +0.000 A 
ATOM      7  C   UNL     1      -2.233   0.584  -0.035  0.00  0.00    +0.000 A 
ATOM      8  C   UNL     1      -1.099   1.400  -0.039  0.00  0.00    +0.000 A 
ATOM      9  C   UNL     1       0.143   0.790  -0.035  0.00  0.00    +0.000 A 
ENDROOT
BRANCH   2  10
ATOM     10  C   UNL     1       2.888   0.119  -1.709  0.00  0.00    +0.000 C 
ATOM     11  O   UNL     1       2.849   1.102  -2.450  0.00  0.00    +0.000 OA
BRANCH  10  12
ATOM     12  C   UNL     1       3.559  -1.119  -2.217  0.00  0.00    +0.000 A 
ATOM     13  C   UNL     1       3.993  -2.147  -1.370  0.00  0.00    +0.000 A 
ATOM     14  C   UNL     1       4.632  -3.274  -1.899  0.00  0.00    +0.000 A 
ATOM     15  C   UNL     1       4.846  -3.374  -3.273  0.00  0.00    +0.000 A 
ATOM     16  C   UNL     1       4.427  -2.356  -4.125  0.00  0.00    +0.000 A 
ATOM     17  C   UNL     1       3.787  -1.230  -3.598  0.00  0.00    +0.000 A 
ATOM     18 CL   UNL     1       5.636  -4.759  -3.916  0.00  0.00    +0.000 Cl
ENDBRANCH  10  12
ENDBRANCH   2  10
TORSDOF 2
