REMARK  Name = *****
REMARK  3 active torsions:
REMARK  status: ('A' for Active; 'I' for Inactive)
REMARK    1  A    between atoms: C_8  and  C_10
REMARK    2  A    between atoms: C_10  and  O_11
REMARK    3  A    between atoms: O_11  and  C_12
REMARK                            x       y       z     vdW  Elec       q    Type
REMARK                         _______ _______ _______ _____ _____    ______ ____
ROOT
ATOM      1  C   UNL     1       2.327   0.221  -1.147  0.00  0.00    +0.000 A 
ATOM      2  C   UNL     1       2.299   0.981   0.018  0.00  0.00    +0.000 A 
ATOM      3  C   UNL     1       1.157   1.017   0.824  0.00  0.00    +0.000 A 
ATOM      4  C   UNL     1       0.038   0.266   0.426  0.00  0.00    +0.000 A 
ATOM      5  C   UNL     1       0.042  -0.503  -0.739  0.00  0.00    +0.000 A 
ATOM      6  C   UNL     1       1.207  -0.523  -1.533  0.00  0.00    +0.000 A 
ATOM      7  N   UNL     1      -1.131  -1.191  -1.001  0.00  0.00    +0.000 NA
ATOM      8  C   UNL     1      -2.021  -0.939  -0.063  0.00  0.00    +0.000 A 
ATOM      9  S   UNL     1      -1.491   0.103   1.199  0.00  0.00    +0.000 S 
ENDROOT
BRANCH   8  10
ATOM     10  C   UNL     1      -3.399  -1.533  -0.025  0.00  0.00    +0.000 C 
BRANCH  10  11
ATOM     11  O   UNL     1      -4.334  -0.463  -0.174  0.00  0.00    +0.000 OA
BRANCH  11  12
ATOM     12  C   UNL     1      -5.661  -0.786  -0.118  0.00  0.00    +0.000 A 
ATOM     13  C   UNL     1      -6.192  -2.074  -0.026  0.00  0.00    +0.000 A 
ATOM     14  C   UNL     1      -7.578  -2.260   0.021  0.00  0.00    +0.000 A 
ATOM     15  C   UNL     1      -8.431  -1.158  -0.024  0.00  0.00    +0.000 A 
ATOM     16  C   UNL     1      -7.911   0.129  -0.119  0.00  0.00    +0.000 A 
ATOM     17  C   UNL     1      -6.528   0.311  -0.167  0.00  0.00    +0.000 A 
ATOM     18 BR   UNL     1     -10.302  -1.416   0.042  0.00  0.00    +0.000 Br
ENDBRANCH  11  12
ENDBRANCH  10  11
ENDBRANCH   8  10
TORSDOF 3
