MODEL 1
REMARK VINA RESULT:      -4.5      0.000      0.000
REMARK  Name = *****
REMARK  3 active torsions:
REMARK  status: ('A' for Active; 'I' for Inactive)
REMARK    1  A    between atoms: C_1  and  O_2
REMARK    2  A    between atoms: O_2  and  C_3
REMARK    3  A    between atoms: C_6  and  C_9
REMARK                            x       y       z     vdW  Elec       q    Type
REMARK                         _______ _______ _______ _____ _____    ______ ____
ROOT
ATOM      1  C   UNL     1     102.062 126.309  83.690  0.00  0.00    +0.000 C 
ATOM      2  C   UNL     1     102.756 127.602  84.164  0.00  0.00    +0.000 C 
ATOM      3  C   UNL     1     101.563 128.485  84.430  0.00  0.00    +0.000 C 
ATOM      4  C   UNL     1     101.760 129.987  84.515  0.00  0.00    +0.000 C 
ATOM      5  C   UNL     1     100.387 130.664  84.641  0.00  0.00    +0.000 C 
ATOM      6  C   UNL     1      99.396 130.224  83.551  0.00  0.00    +0.000 C 
ATOM      7  C   UNL     1      99.307 128.701  83.397  0.00  0.00    +0.000 C 
ATOM      8  C   UNL     1     100.703 128.128  83.235  0.00  0.00    +0.000 C 
ATOM      9  O   UNL     1     100.759 126.703  83.173  0.00  0.00    +0.000 OA
ENDROOT
BRANCH   1  13
ATOM     10  C   UNL     1     104.412 124.127  80.767  0.00  0.00    +0.000 A 
ATOM     11  C   UNL     1     103.631 125.215  80.382  0.00  0.00    +0.000 A 
ATOM     12  C   UNL     1     102.873 125.909  81.334  0.00  0.00    +0.000 A 
ATOM     13  C   UNL     1     102.877 125.526  82.685  0.00  0.00    +0.000 A 
ATOM     14  C   UNL     1     103.667 124.433  83.059  0.00  0.00    +0.000 A 
ATOM     15  C   UNL     1     104.423 123.740  82.107  0.00  0.00    +0.000 A 
BRANCH  10  17
ATOM     16  C   UNL     1     105.950 122.327  80.556  0.00  0.00    +0.000 C 
ATOM     17  O   UNL     1     105.199 123.368  79.945  0.00  0.00    +0.000 OA
ENDBRANCH  10  17
ENDBRANCH   1  13
TORSDOF 2
ENDMDL
