MODEL 1
REMARK VINA RESULT:      -5.1      0.000      0.000
REMARK  Name = *****
REMARK  3 active torsions:
REMARK  status: ('A' for Active; 'I' for Inactive)
REMARK    1  A    between atoms: C_9  and  C_11
REMARK    2  A    between atoms: C_11  and  O_13
REMARK    3  A    between atoms: O_13  and  C_14
REMARK                            x       y       z     vdW  Elec       q    Type
REMARK                         _______ _______ _______ _____ _____    ______ ____
ROOT
ATOM      1  C   UNL     1      84.381  72.421  88.058  0.00  0.00    +0.000 A 
ATOM      2  C   UNL     1      84.419  72.375  86.670  0.00  0.00    +0.000 A 
ATOM      3  C   UNL     1      85.491  71.753  86.022  0.00  0.00    +0.000 A 
ATOM      4  C   UNL     1      86.533  71.172  86.731  0.00  0.00    +0.000 A 
ATOM      5  C   UNL     1      86.487  71.215  88.141  0.00  0.00    +0.000 A 
ATOM      6  C   UNL     1      85.412  71.842  88.795  0.00  0.00    +0.000 A 
ATOM      7  C   UNL     1      87.535  70.620  88.854  0.00  0.00    +0.000 A 
ATOM      8  C   UNL     1      88.580  70.012  88.167  0.00  0.00    +0.000 A 
ATOM      9  C   UNL     1      88.547  70.026  86.779  0.00  0.00    +0.000 A 
ATOM     10  N   UNL     1      87.543  70.593  86.060  0.00  0.00    +0.000 NA
ENDROOT
BRANCH   9  11
ATOM     11  C   UNL     1      89.676  69.400  86.030  0.00  0.00    +0.000 C 
ATOM     12  O   UNL     1      90.069  69.796  84.943  0.00  0.00    +0.000 OA
BRANCH  11  13
ATOM     13  O   UNL     1      90.159  68.322  86.759  0.00  0.00    +0.000 OA
BRANCH  13  14
ATOM     14  C   UNL     1      89.988  66.988  86.335  0.00  0.00    +0.000 A 
ATOM     15  C   UNL     1      90.841  66.351  85.434  0.00  0.00    +0.000 A 
ATOM     16  C   UNL     1      90.555  65.045  85.026  0.00  0.00    +0.000 A 
ATOM     17  C   UNL     1      89.415  64.400  85.505  0.00  0.00    +0.000 A 
ATOM     18  C   UNL     1      88.553  65.048  86.390  0.00  0.00    +0.000 A 
ATOM     19  C   UNL     1      88.839  66.349  86.804  0.00  0.00    +0.000 A 
ATOM     20 CL   UNL     1      89.061  62.797  84.989  0.00  0.00    +0.000 Cl
ENDBRANCH  13  14
ENDBRANCH  11  13
ENDBRANCH   9  11
TORSDOF 3
ENDMDL
