MODEL 1
REMARK VINA RESULT:      -5.2      0.000      0.000
REMARK  Name = *****
REMARK  5 active torsions:
REMARK  status: ('A' for Active; 'I' for Inactive)
REMARK    1  A    between atoms: C_1  and  C_2
REMARK    2  A    between atoms: C_11  and  O_14
REMARK    3  A    between atoms: C_12  and  C_13
REMARK    4  A    between atoms: O_14  and  C_15
REMARK    5  A    between atoms: C_15  and  C_16
REMARK                            x       y       z     vdW  Elec       q    Type
REMARK                         _______ _______ _______ _____ _____    ______ ____
ROOT
ATOM      1  C   UNL     1      91.183  64.979  85.166  0.00  0.00    +0.000 C 
ATOM      2  C   UNL     1      89.943  65.114  86.000  0.00  0.00    +0.000 A 
ATOM      3  C   UNL     1      89.252  64.036  86.400  0.00  0.00    +0.000 A 
ATOM      4  C   UNL     1      88.034  64.111  87.216  0.00  0.00    +0.000 A 
ATOM      5  O   UNL     1      87.446  63.093  87.561  0.00  0.00    +0.000 OA
ATOM      6  O   UNL     1      87.598  65.376  87.566  0.00  0.00    +0.000 OA
ATOM      7  C   UNL     1      88.291  66.543  87.168  0.00  0.00    +0.000 A 
ATOM      8  C   UNL     1      89.458  66.445  86.397  0.00  0.00    +0.000 A 
ATOM      9  C   UNL     1      90.106  67.632  86.037  0.00  0.00    +0.000 A 
ATOM     10  C   UNL     1      89.606  68.869  86.453  0.00  0.00    +0.000 A 
ATOM     11  C   UNL     1      88.458  68.932  87.243  0.00  0.00    +0.000 A 
ATOM     12  C   UNL     1      87.752  67.774  87.582  0.00  0.00    +0.000 A 
ATOM     13  C   UNL     1      86.490  67.825  88.396  0.00  0.00    +0.000 C 
ENDROOT
BRANCH  11  14
ATOM     14  O   UNL     1      88.008  70.173  87.609  0.00  0.00    +0.000 OA
BRANCH  14  15
ATOM     15  C   UNL     1      87.430  70.849  86.483  0.00  0.00    +0.000 C 
BRANCH  15  16
ATOM     16  C   UNL     1      86.140  71.527  86.893  0.00  0.00    +0.000 A 
ATOM     17  C   UNL     1      85.244  72.028  85.933  0.00  0.00    +0.000 A 
ATOM     18  C   UNL     1      84.045  72.624  86.326  0.00  0.00    +0.000 A 
ATOM     19  C   UNL     1      83.731  72.708  87.677  0.00  0.00    +0.000 A 
ATOM     20  C   UNL     1      84.593  72.204  88.642  0.00  0.00    +0.000 A 
ATOM     21  C   UNL     1      85.794  71.609  88.252  0.00  0.00    +0.000 A 
ATOM     22  F   UNL     1      82.580  73.280  88.054  0.00  0.00    +0.000 F 
ENDBRANCH  15  16
ENDBRANCH  14  15
ENDBRANCH  11  14
TORSDOF 3
ENDMDL
