MODEL 1
REMARK VINA RESULT:      -4.7      0.000      0.000
REMARK  Name = *****
REMARK  6 active torsions:
REMARK  status: ('A' for Active; 'I' for Inactive)
REMARK    1  A    between atoms: C_1  and  C_2
REMARK    2  A    between atoms: C_5  and  C_8
REMARK    3  A    between atoms: C_8  and  O_20
REMARK    4  A    between atoms: C_10  and  O_18
REMARK    5  A    between atoms: O_18  and  C_19
REMARK    6  A    between atoms: O_20  and  C_21
REMARK                            x       y       z     vdW  Elec       q    Type
REMARK                         _______ _______ _______ _____ _____    ______ ____
ROOT
ATOM      1  C   UNL     1      88.816  70.256  86.475  0.00  0.00    +0.000 C 
ATOM      2  C   UNL     1      88.975  70.597  87.965  0.00  0.00    +0.000 C 
ATOM      3  C   UNL     1      87.675  70.328  88.706  0.00  0.00    +0.000 C 
ATOM      4  C   UNL     1      86.561  71.055  87.998  0.00  0.00    +0.000 A 
ATOM      5  C   UNL     1      85.392  71.437  88.677  0.00  0.00    +0.000 A 
ATOM      6  C   UNL     1      84.358  72.090  88.004  0.00  0.00    +0.000 A 
ATOM      7  C   UNL     1      84.475  72.358  86.643  0.00  0.00    +0.000 A 
ATOM      8  C   UNL     1      85.624  71.969  85.957  0.00  0.00    +0.000 A 
ATOM      9  C   UNL     1      86.659  71.314  86.629  0.00  0.00    +0.000 A 
ATOM     10  O   UNL     1      87.726  70.957  85.853  0.00  0.00    +0.000 OA
ENDROOT
BRANCH   1  15
ATOM     11  C   UNL     1      88.372  64.435  85.771  0.00  0.00    +0.000 C 
ATOM     12  C   UNL     1      88.473  65.918  85.972  0.00  0.00    +0.000 A 
ATOM     13  C   UNL     1      87.399  66.751  85.646  0.00  0.00    +0.000 A 
ATOM     14  C   UNL     1      87.501  68.139  85.794  0.00  0.00    +0.000 A 
ATOM     15  C   UNL     1      88.681  68.734  86.270  0.00  0.00    +0.000 A 
ATOM     16  C   UNL     1      89.762  67.883  86.571  0.00  0.00    +0.000 A 
ATOM     17  C   UNL     1      89.662  66.496  86.420  0.00  0.00    +0.000 A 
ENDBRANCH   1  15
BRANCH   3  18
ATOM     18  O   UNL     1      87.793  70.809  90.051  0.00  0.00    +0.000 OA
ATOM     19  C   UNL     1      88.695  71.903  90.164  0.00  0.00    +0.000 C 
ENDBRANCH   3  18
BRANCH   1  20
ATOM     20  O   UNL     1      90.059  70.588  85.810  0.00  0.00    +0.000 OA
ATOM     21  C   UNL     1      89.907  71.281  84.580  0.00  0.00    +0.000 C 
ENDBRANCH   1  20
TORSDOF 3
ENDMDL
