REMARK  Name = *****
REMARK  1 active torsions:
REMARK  status: ('A' for Active; 'I' for Inactive)
REMARK    1  A    between atoms: C_2  and  C_12
REMARK                            x       y       z     vdW  Elec       q    Type
REMARK                         _______ _______ _______ _____ _____    ______ ____
ROOT
ATOM      1  C   UNL     1      -2.472   0.793  -0.324  0.00  0.00    +0.000 C 
ATOM      2  C   UNL     1      -2.424  -0.576   0.357  0.00  0.00    +0.000 C 
ATOM      3  O   UNL     1      -1.272  -1.325  -0.058  0.00  0.00    +0.000 OA
ATOM      4  C   UNL     1      -0.087  -0.643   0.003  0.00  0.00    +0.000 A 
ATOM      5  C   UNL     1       1.067  -1.427  -0.044  0.00  0.00    +0.000 A 
ATOM      6  C   UNL     1       2.324  -0.826  -0.014  0.00  0.00    +0.000 A 
ATOM      7  C   UNL     1       2.429   0.561   0.052  0.00  0.00    +0.000 A 
ATOM      8  C   UNL     1       1.276   1.347   0.083  0.00  0.00    +0.000 A 
ATOM      9  C   UNL     1       0.003   0.752   0.057  0.00  0.00    +0.000 A 
ATOM     10  C   UNL     1      -1.237   1.595   0.053  0.00  0.00    +0.000 C 
ATOM     11 BR   UNL     1      -1.480   2.389   1.831  0.00  0.00    +0.000 Br
ENDROOT
BRANCH   2  12
ATOM     12  C   UNL     1      -3.680  -1.366   0.026  0.00  0.00    +0.000 A 
ATOM     13  C   UNL     1      -3.767  -2.158  -1.129  0.00  0.00    +0.000 A 
ATOM     14  C   UNL     1      -4.941  -2.852  -1.429  0.00  0.00    +0.000 A 
ATOM     15  C   UNL     1      -6.044  -2.757  -0.583  0.00  0.00    +0.000 A 
ATOM     16  C   UNL     1      -5.975  -1.968   0.563  0.00  0.00    +0.000 A 
ATOM     17  C   UNL     1      -4.802  -1.275   0.866  0.00  0.00    +0.000 A 
ENDBRANCH   2  12
TORSDOF 1
