MODEL 1
REMARK VINA RESULT:      -4.8      0.000      0.000
REMARK  Name = *****
REMARK  4 active torsions:
REMARK  status: ('A' for Active; 'I' for Inactive)
REMARK    1  A    between atoms: C_1  and  C_2
REMARK    2  A    between atoms: C_3  and  C_12
REMARK    3  A    between atoms: C_3  and  O_19
REMARK    4  A    between atoms: O_19  and  C_20
REMARK                            x       y       z     vdW  Elec       q    Type
REMARK                         _______ _______ _______ _____ _____    ______ ____
ROOT
ATOM      1  C   UNL     1      85.433  69.667  90.396  0.00  0.00    +0.000 C 
ATOM      2  C   UNL     1      86.732  69.578  89.596  0.00  0.00    +0.000 C 
ATOM      3  C   UNL     1      87.115  70.887  88.837  0.00  0.00    +0.000 C 
ATOM      4  O   UNL     1      88.393  70.713  88.184  0.00  0.00    +0.000 OA
ATOM      5  C   UNL     1      88.565  69.475  87.625  0.00  0.00    +0.000 A 
ATOM      6  C   UNL     1      89.645  69.338  86.753  0.00  0.00    +0.000 A 
ATOM      7  C   UNL     1      89.878  68.118  86.117  0.00  0.00    +0.000 A 
ATOM      8  C   UNL     1      89.032  67.034  86.353  0.00  0.00    +0.000 A 
ATOM      9  C   UNL     1      87.958  67.168  87.234  0.00  0.00    +0.000 A 
ATOM     10  C   UNL     1      87.734  68.382  87.881  0.00  0.00    +0.000 A 
ATOM     11  O   UNL     1      86.665  68.429  88.736  0.00  0.00    +0.000 OA
ENDROOT
BRANCH   3  12
ATOM     12  C   UNL     1      86.155  71.423  87.754  0.00  0.00    +0.000 A 
ATOM     13  C   UNL     1      86.435  71.403  86.378  0.00  0.00    +0.000 A 
ATOM     14  C   UNL     1      85.536  71.937  85.446  0.00  0.00    +0.000 A 
ATOM     15  C   UNL     1      84.346  72.512  85.878  0.00  0.00    +0.000 A 
ATOM     16  C   UNL     1      84.045  72.563  87.233  0.00  0.00    +0.000 A 
ATOM     17  C   UNL     1      84.945  72.029  88.160  0.00  0.00    +0.000 A 
ATOM     18 BR   UNL     1      83.138  73.235  84.616  0.00  0.00    +0.000 Br
ENDBRANCH   3  12
BRANCH   3  19
ATOM     19  O   UNL     1      87.188  71.960  89.815  0.00  0.00    +0.000 OA
ATOM     20  C   UNL     1      88.447  72.101  90.456  0.00  0.00    +0.000 C 
ENDBRANCH   3  19
TORSDOF 2
ENDMDL
