MODEL 1
REMARK VINA RESULT:      -4.8      0.000      0.000
REMARK  Name = *****
REMARK  3 active torsions:
REMARK  status: ('A' for Active; 'I' for Inactive)
REMARK    1  A    between atoms: C_1  and  C_2
REMARK    2  A    between atoms: C_2  and  C_12
REMARK    3  A    between atoms: C_12  and  C_13
REMARK                            x       y       z     vdW  Elec       q    Type
REMARK                         _______ _______ _______ _____ _____    ______ ____
ROOT
ATOM      1  C   UNL     1      89.646  69.028  83.626  0.00  0.00    +0.000 C 
ATOM      2  C   UNL     1      89.419  69.894  84.877  0.00  0.00    +0.000 C 
ATOM      3  C   UNL     1      89.656  68.999  86.112  0.00  0.00    +0.000 C 
ATOM      4  C   UNL     1      89.311  69.729  87.401  0.00  0.00    +0.000 C 
ATOM      5  C   UNL     1      88.006  70.451  87.259  0.00  0.00    +0.000 A 
ATOM      6  C   UNL     1      87.332  70.910  88.400  0.00  0.00    +0.000 A 
ATOM      7  C   UNL     1      86.116  71.585  88.279  0.00  0.00    +0.000 A 
ATOM      8  C   UNL     1      85.565  71.807  87.018  0.00  0.00    +0.000 A 
ATOM      9  C   UNL     1      86.236  71.363  85.880  0.00  0.00    +0.000 A 
ATOM     10  C   UNL     1      87.458  70.700  85.998  0.00  0.00    +0.000 A 
ATOM     11  O   UNL     1      88.042  70.317  84.821  0.00  0.00    +0.000 OA
ENDROOT
BRANCH   2  12
ATOM     12  C   UNL     1      90.373  71.126  84.881  0.00  0.00    +0.000 C 
BRANCH  12  13
ATOM     13  C   UNL     1      90.207  72.104  83.736  0.00  0.00    +0.000 A 
ATOM     14  C   UNL     1      91.028  72.021  82.604  0.00  0.00    +0.000 A 
ATOM     15  C   UNL     1      90.875  72.921  81.549  0.00  0.00    +0.000 A 
ATOM     16  C   UNL     1      89.899  73.913  81.614  0.00  0.00    +0.000 A 
ATOM     17  C   UNL     1      89.074  74.004  82.733  0.00  0.00    +0.000 A 
ATOM     18  C   UNL     1      89.226  73.104  83.790  0.00  0.00    +0.000 A 
ENDBRANCH  12  13
ENDBRANCH   2  12
TORSDOF 2
ENDMDL
