MODEL 1
REMARK VINA RESULT:      -5.1      0.000      0.000
REMARK  Name = *****
REMARK  5 active torsions:
REMARK  status: ('A' for Active; 'I' for Inactive)
REMARK    1  A    between atoms: C_1  and  C_2
REMARK    2  A    between atoms: C_2  and  O_3
REMARK    3  A    between atoms: O_3  and  C_4
REMARK    4  A    between atoms: C_11  and  C_13
REMARK    5  A    between atoms: C_11  and  C_14
REMARK                            x       y       z     vdW  Elec       q    Type
REMARK                         _______ _______ _______ _____ _____    ______ ____
ROOT
ATOM      1  C   UNL     1      90.109  66.510  86.129  0.00  0.00    +0.000 A 
ATOM      2  C   UNL     1      90.069  67.909  86.082  0.00  0.00    +0.000 A 
ATOM      3  C   UNL     1      89.051  68.572  86.746  0.00  0.00    +0.000 A 
ATOM      4  C   UNL     1      88.087  67.868  87.441  0.00  0.00    +0.000 A 
ATOM      5  C   UNL     1      88.100  66.491  87.508  0.00  0.00    +0.000 A 
ATOM      6  C   UNL     1      89.126  65.806  86.846  0.00  0.00    +0.000 A 
ATOM      7  O   UNL     1      87.137  68.657  88.029  0.00  0.00    +0.000 OA
ATOM      8  C   UNL     1      87.606  70.032  87.856  0.00  0.00    +0.000 C 
ATOM      9  C   UNL     1      88.746  70.020  86.799  0.00  0.00    +0.000 C 
ATOM     10  C   UNL     1      88.124  70.478  89.236  0.00  0.00    +0.000 C 
ENDROOT
BRANCH   8  11
ATOM     11  C   UNL     1      86.457  70.942  87.411  0.00  0.00    +0.000 A 
ATOM     12  C   UNL     1      85.555  71.493  88.336  0.00  0.00    +0.000 A 
ATOM     13  C   UNL     1      84.504  72.310  87.916  0.00  0.00    +0.000 A 
ATOM     14  C   UNL     1      84.336  72.595  86.564  0.00  0.00    +0.000 A 
ATOM     15  C   UNL     1      85.219  72.062  85.630  0.00  0.00    +0.000 A 
ATOM     16  C   UNL     1      86.271  71.242  86.048  0.00  0.00    +0.000 A 
ENDBRANCH   8  11
BRANCH   1  17
ATOM     17  O   UNL     1      91.147  65.950  85.435  0.00  0.00    +0.000 OA
BRANCH  17  19
ATOM     18  C   UNL     1      91.916  64.159  84.066  0.00  0.00    +0.000 C 
ATOM     19  C   UNL     1      91.167  64.528  85.335  0.00  0.00    +0.000 C 
ENDBRANCH  17  19
ENDBRANCH   1  17
TORSDOF 3
ENDMDL
