MODEL 1
REMARK VINA RESULT:      -5.4      0.000      0.000
REMARK  Name = *****
REMARK  1 active torsions:
REMARK  status: ('A' for Active; 'I' for Inactive)
REMARK    1  A    between atoms: C_4  and  C_7
REMARK                            x       y       z     vdW  Elec       q    Type
REMARK                         _______ _______ _______ _____ _____    ______ ____
ROOT
ATOM      1  C   UNL     1     102.092 127.032  82.165  0.00  0.00    +0.000 C 
ATOM      2  C   UNL     1     100.777 126.275  82.327  0.00  0.00    +0.000 C 
ATOM      3  C   UNL     1      99.675 127.285  82.497  0.00  0.00    +0.000 C 
ATOM      4  O   UNL     1      98.529 127.084  82.111  0.00  0.00    +0.000 OA
ATOM      5  C   UNL     1     100.029 128.513  83.237  0.00  0.00    +0.000 A 
ATOM      6  C   UNL     1      99.051 129.454  83.570  0.00  0.00    +0.000 A 
ATOM      7  C   UNL     1      99.403 130.577  84.320  0.00  0.00    +0.000 A 
ATOM      8  C   UNL     1     100.724 130.751  84.739  0.00  0.00    +0.000 A 
ATOM      9  C   UNL     1     101.699 129.809  84.401  0.00  0.00    +0.000 A 
ATOM     10  C   UNL     1     101.355 128.697  83.635  0.00  0.00    +0.000 A 
ATOM     11  O   UNL     1     102.363 127.818  83.337  0.00  0.00    +0.000 OA
ENDROOT
BRANCH   1  15
ATOM     12  C   UNL     1     104.488 123.432  81.286  0.00  0.00    +0.000 C 
ATOM     13  C   UNL     1     104.476 124.554  80.255  0.00  0.00    +0.000 C 
ATOM     14  C   UNL     1     103.305 125.512  80.472  0.00  0.00    +0.000 C 
ATOM     15  C   UNL     1     103.290 126.085  81.902  0.00  0.00    +0.000 C 
ATOM     16  C   UNL     1     103.296 124.933  82.926  0.00  0.00    +0.000 C 
ATOM     17  C   UNL     1     104.472 123.983  82.707  0.00  0.00    +0.000 C 
ENDBRANCH   1  15
TORSDOF 1
ENDMDL
