MODEL 1
REMARK VINA RESULT:      -5.1      0.000      0.000
REMARK  Name = *****
REMARK  1 active torsions:
REMARK  status: ('A' for Active; 'I' for Inactive)
REMARK    1  A    between atoms: C_2  and  C_13
REMARK                            x       y       z     vdW  Elec       q    Type
REMARK                         _______ _______ _______ _____ _____    ______ ____
ROOT
ATOM      1  C   UNL     1     100.599 126.318  81.994  0.00  0.00    +0.000 C 
ATOM      2  C   UNL     1     101.831 126.276  82.888  0.00  0.00    +0.000 C 
ATOM      3  O   UNL     1     102.367 127.594  83.093  0.00  0.00    +0.000 OA
ATOM      4  C   UNL     1     101.448 128.472  83.602  0.00  0.00    +0.000 A 
ATOM      5  C   UNL     1     100.069 128.318  83.452  0.00  0.00    +0.000 A 
ATOM      6  C   UNL     1      99.564 127.175  82.666  0.00  0.00    +0.000 C 
ATOM      7  O   UNL     1      98.361 126.988  82.528  0.00  0.00    +0.000 OA
ATOM      8  C   UNL     1      99.183 129.248  84.001  0.00  0.00    +0.000 A 
ATOM      9  C   UNL     1      99.694 130.345  84.690  0.00  0.00    +0.000 A 
ATOM     10  C   UNL     1     101.073 130.520  84.825  0.00  0.00    +0.000 A 
ATOM     11  C   UNL     1     101.951 129.583  84.275  0.00  0.00    +0.000 A 
ATOM     12 CL   UNL     1      98.620 131.504  85.370  0.00  0.00    +0.000 Cl
ENDROOT
BRANCH   2  13
ATOM     13  C   UNL     1     102.908 125.401  82.269  0.00  0.00    +0.000 A 
ATOM     14  C   UNL     1     103.212 125.476  80.898  0.00  0.00    +0.000 A 
ATOM     15  C   UNL     1     104.187 124.648  80.341  0.00  0.00    +0.000 A 
ATOM     16  C   UNL     1     104.857 123.739  81.149  0.00  0.00    +0.000 A 
ATOM     17  C   UNL     1     104.570 123.640  82.505  0.00  0.00    +0.000 A 
ATOM     18  C   UNL     1     103.595 124.467  83.066  0.00  0.00    +0.000 A 
ATOM     19  F   UNL     1     105.794 122.944  80.614  0.00  0.00    +0.000 F 
ENDBRANCH   2  13
TORSDOF 1
ENDMDL
