MODEL 1
REMARK VINA RESULT:      -4.3      0.000      0.000
REMARK  Name = *****
REMARK  1 active torsions:
REMARK  status: ('A' for Active; 'I' for Inactive)
REMARK    1  A    between atoms: C_2  and  C_11
REMARK                            x       y       z     vdW  Elec       q    Type
REMARK                         _______ _______ _______ _____ _____    ______ ____
ROOT
ATOM      1  C   UNL     1     103.243 126.365  83.731  0.00  0.00    +0.000 C 
ATOM      2  C   UNL     1     102.624 127.692  83.280  0.00  0.00    +0.000 C 
ATOM      3  C   UNL     1     103.362 128.217  82.047  0.00  0.00    +0.000 C 
ATOM      4  O   UNL     1     103.404 127.300  80.950  0.00  0.00    +0.000 OA
ATOM      5  C   UNL     1     103.764 126.023  81.281  0.00  0.00    +0.000 A 
ATOM      6  C   UNL     1     104.165 125.207  80.222  0.00  0.00    +0.000 A 
ATOM      7  C   UNL     1     104.528 123.881  80.456  0.00  0.00    +0.000 A 
ATOM      8  C   UNL     1     104.482 123.368  81.750  0.00  0.00    +0.000 A 
ATOM      9  C   UNL     1     104.066 124.178  82.808  0.00  0.00    +0.000 A 
ATOM     10  C   UNL     1     103.692 125.509  82.579  0.00  0.00    +0.000 A 
ENDROOT
BRANCH   2  11
ATOM     11  C   UNL     1     101.125 127.597  83.056  0.00  0.00    +0.000 A 
ATOM     12  C   UNL     1     100.384 126.605  82.441  0.00  0.00    +0.000 A 
ATOM     13  C   UNL     1      98.988 126.887  82.430  0.00  0.00    +0.000 A 
ATOM     14  C   UNL     1      98.701 128.088  83.037  0.00  0.00    +0.000 A 
ATOM     15  S   UNL     1     100.107 128.865  83.614  0.00  0.00    +0.000 S 
ENDBRANCH   2  11
TORSDOF 1
ENDMDL
