MODEL 1
REMARK VINA RESULT:      -5.1      0.000      0.000
REMARK  Name = *****
REMARK  1 active torsions:
REMARK  status: ('A' for Active; 'I' for Inactive)
REMARK    1  A    between atoms: C_3  and  C_13
REMARK                            x       y       z     vdW  Elec       q    Type
REMARK                         _______ _______ _______ _____ _____    ______ ____
ROOT
ATOM      1  C   UNL     1      88.535  71.001  90.097  0.00  0.00    +0.000 C 
ATOM      2  C   UNL     1      87.875  70.862  88.935  0.00  0.00    +0.000 C 
ATOM      3  C   UNL     1      88.373  70.083  87.746  0.00  0.00    +0.000 C 
ATOM      4  O   UNL     1      88.136  70.774  86.504  0.00  0.00    +0.000 OA
ATOM      5  C   UNL     1      86.879  71.281  86.343  0.00  0.00    +0.000 A 
ATOM      6  C   UNL     1      86.441  71.458  85.031  0.00  0.00    +0.000 A 
ATOM      7  C   UNL     1      85.173  71.984  84.783  0.00  0.00    +0.000 A 
ATOM      8  C   UNL     1      84.345  72.347  85.845  0.00  0.00    +0.000 A 
ATOM      9  C   UNL     1      84.789  72.189  87.159  0.00  0.00    +0.000 A 
ATOM     10  C   UNL     1      86.060  71.657  87.403  0.00  0.00    +0.000 A 
ATOM     11  C   UNL     1      86.557  71.529  88.783  0.00  0.00    +0.000 C 
ATOM     12  O   UNL     1      85.901  71.924  89.739  0.00  0.00    +0.000 OA
ENDROOT
BRANCH   3  13
ATOM     13  C   UNL     1      87.904  68.630  87.629  0.00  0.00    +0.000 A 
ATOM     14  C   UNL     1      88.588  67.718  86.796  0.00  0.00    +0.000 A 
ATOM     15  C   UNL     1      88.159  66.393  86.664  0.00  0.00    +0.000 A 
ATOM     16  C   UNL     1      87.037  65.957  87.359  0.00  0.00    +0.000 A 
ATOM     17  C   UNL     1      86.342  66.830  88.187  0.00  0.00    +0.000 A 
ATOM     18  C   UNL     1      86.771  68.155  88.321  0.00  0.00    +0.000 A 
ATOM     19 CL   UNL     1      86.509  64.328  87.197  0.00  0.00    +0.000 Cl
ATOM     20 CL   UNL     1      89.996  68.171  85.898  0.00  0.00    +0.000 Cl
ENDBRANCH   3  13
TORSDOF 1
ENDMDL
