MODEL 1
REMARK VINA RESULT:      -5.1      0.000      0.000
REMARK  Name = *****
REMARK  4 active torsions:
REMARK  status: ('A' for Active; 'I' for Inactive)
REMARK    1  A    between atoms: C_1  and  C_2
REMARK    2  A    between atoms: C_9  and  C_12
REMARK    3  A    between atoms: C_15  and  O_18
REMARK    4  A    between atoms: O_18  and  C_19
REMARK                            x       y       z     vdW  Elec       q    Type
REMARK                         _______ _______ _______ _____ _____    ______ ____
ROOT
ATOM      1  C   UNL     1      82.711  73.483  87.354  0.00  0.00    +0.000 C 
ATOM      2  C   UNL     1      83.968  72.672  87.469  0.00  0.00    +0.000 A 
ATOM      3  C   UNL     1      84.741  72.391  86.333  0.00  0.00    +0.000 A 
ATOM      4  C   UNL     1      85.932  71.661  86.439  0.00  0.00    +0.000 A 
ATOM      5  C   UNL     1      86.357  71.220  87.694  0.00  0.00    +0.000 A 
ATOM      6  C   UNL     1      85.600  71.505  88.831  0.00  0.00    +0.000 A 
ATOM      7  C   UNL     1      84.415  72.234  88.721  0.00  0.00    +0.000 A 
ATOM      8  O   UNL     1      87.493  70.490  87.902  0.00  0.00    +0.000 OA
ATOM      9  C   UNL     1      88.354  70.225  86.779  0.00  0.00    +0.000 C 
ATOM     10  C   UNL     1      87.861  70.681  85.428  0.00  0.00    +0.000 C 
ATOM     11  C   UNL     1      86.721  71.356  85.257  0.00  0.00    +0.000 C 
ENDROOT
BRANCH   9  12
ATOM     12  C   UNL     1      88.675  68.738  86.776  0.00  0.00    +0.000 A 
ATOM     13  C   UNL     1      87.776  67.805  87.312  0.00  0.00    +0.000 A 
ATOM     14  C   UNL     1      88.069  66.439  87.287  0.00  0.00    +0.000 A 
ATOM     15  C   UNL     1      89.262  65.977  86.728  0.00  0.00    +0.000 A 
ATOM     16  C   UNL     1      90.161  66.896  86.187  0.00  0.00    +0.000 A 
ATOM     17  C   UNL     1      89.869  68.266  86.210  0.00  0.00    +0.000 A 
BRANCH  15  18
ATOM     18  O   UNL     1      89.424  64.620  86.768  0.00  0.00    +0.000 OA
ATOM     19  C   UNL     1      88.246  63.835  86.892  0.00  0.00    +0.000 C 
ENDBRANCH  15  18
ENDBRANCH   9  12
TORSDOF 2
ENDMDL
