MODEL 1
REMARK VINA RESULT:      -4.8      0.000      0.000
REMARK  Name = *****
REMARK  3 active torsions:
REMARK  status: ('A' for Active; 'I' for Inactive)
REMARK    1  A    between atoms: C_10  and  C_12
REMARK    2  A    between atoms: C_12  and  C_13
REMARK    3  A    between atoms: C_12  and  O_20
REMARK                            x       y       z     vdW  Elec       q    Type
REMARK                         _______ _______ _______ _____ _____    ______ ____
ROOT
ATOM      1  C   UNL     1      86.176  65.942  85.324  0.00  0.00    +0.000 C 
ATOM      2  C   UNL     1      86.443  67.281  86.016  0.00  0.00    +0.000 C 
ATOM      3  S   UNL     1      87.864  67.367  87.175  0.00  0.00    +0.000 S 
ATOM      4  C   UNL     1      88.992  66.180  86.439  0.00  0.00    +0.000 A 
ATOM      5  C   UNL     1      90.249  66.662  86.046  0.00  0.00    +0.000 A 
ATOM      6  C   UNL     1      91.194  65.807  85.481  0.00  0.00    +0.000 A 
ATOM      7  C   UNL     1      90.894  64.461  85.305  0.00  0.00    +0.000 A 
ATOM      8  C   UNL     1      89.652  63.964  85.706  0.00  0.00    +0.000 A 
ATOM      9  C   UNL     1      88.689  64.807  86.289  0.00  0.00    +0.000 A 
ATOM     10  C   UNL     1      87.387  64.223  86.719  0.00  0.00    +0.000 C 
ATOM     11  C   UNL     1      86.241  64.761  86.250  0.00  0.00    +0.000 C 
ENDROOT
BRANCH  10  12
ATOM     12  C   UNL     1      87.445  63.042  87.680  0.00  0.00    +0.000 C 
BRANCH  12  13
ATOM     13  C   UNL     1      87.693  63.450  89.125  0.00  0.00    +0.000 A 
ATOM     14  C   UNL     1      86.617  63.695  89.999  0.00  0.00    +0.000 A 
ATOM     15  C   UNL     1      86.849  64.069  91.323  0.00  0.00    +0.000 A 
ATOM     16  C   UNL     1      88.155  64.195  91.779  0.00  0.00    +0.000 A 
ATOM     17  C   UNL     1      89.233  63.954  90.936  0.00  0.00    +0.000 A 
ATOM     18  C   UNL     1      89.005  63.581  89.610  0.00  0.00    +0.000 A 
ATOM     19  F   UNL     1      88.379  64.552  93.050  0.00  0.00    +0.000 F 
ENDBRANCH  12  13
BRANCH  12  20
ATOM     20  O   UNL     1      86.238  62.274  87.617  0.00  0.00    +0.000 OA
ATOM     21  H   UNL     1      85.479  62.847  87.814  0.00  0.00    +0.000 HD
ENDBRANCH  12  20
ENDBRANCH  10  12
TORSDOF 3
ENDMDL
