MODEL 1
REMARK VINA RESULT:      -5.0      0.000      0.000
REMARK  Name = *****
REMARK  2 active torsions:
REMARK  status: ('A' for Active; 'I' for Inactive)
REMARK    1  A    between atoms: C_7  and  C_9
REMARK    2  A    between atoms: C_12  and  C_13
REMARK                            x       y       z     vdW  Elec       q    Type
REMARK                         _______ _______ _______ _____ _____    ______ ____
ROOT
ATOM      1  C   UNL     1      88.163  70.893  85.943  0.00  0.00    +0.000 C 
ATOM      2  C   UNL     1      89.471  70.157  85.702  0.00  0.00    +0.000 C 
ATOM      3  C   UNL     1      89.335  68.704  86.055  0.00  0.00    +0.000 A 
ATOM      4  C   UNL     1      88.281  68.258  86.859  0.00  0.00    +0.000 A 
ATOM      5  C   UNL     1      88.153  66.904  87.170  0.00  0.00    +0.000 A 
ATOM      6  C   UNL     1      89.094  65.984  86.705  0.00  0.00    +0.000 A 
ATOM      7  C   UNL     1      90.166  66.420  85.921  0.00  0.00    +0.000 A 
ATOM      8  C   UNL     1      90.285  67.778  85.599  0.00  0.00    +0.000 A 
ATOM      9  O   UNL     1      87.307  69.080  87.355  0.00  0.00    +0.000 OA
ATOM     10  C   UNL     1      87.613  70.483  87.310  0.00  0.00    +0.000 C 
ENDROOT
BRANCH  10  11
ATOM     11  C   UNL     1      86.356  71.272  87.635  0.00  0.00    +0.000 A 
ATOM     12  C   UNL     1      85.543  71.758  86.599  0.00  0.00    +0.000 A 
ATOM     13  C   UNL     1      84.371  72.461  86.885  0.00  0.00    +0.000 A 
ATOM     14  C   UNL     1      83.995  72.683  88.208  0.00  0.00    +0.000 A 
ATOM     15  C   UNL     1      84.789  72.202  89.247  0.00  0.00    +0.000 A 
ATOM     16  C   UNL     1      85.961  71.498  88.963  0.00  0.00    +0.000 A 
ENDBRANCH  10  11
BRANCH   7  17
ATOM     17  C   UNL     1      91.139  65.480  85.445  0.00  0.00    +0.000 C 
ATOM     18  N   UNL     1      91.929  64.722  85.059  0.00  0.00    +0.000 NA
ENDBRANCH   7  17
TORSDOF 2
ENDMDL
