REMARK  Name = *****
REMARK  4 active torsions:
REMARK  status: ('A' for Active; 'I' for Inactive)
REMARK    1  A    between atoms: C_1  and  C_2
REMARK    2  A    between atoms: C_2  and  O_3
REMARK    3  A    between atoms: O_3  and  C_4
REMARK    4  A    between atoms: C_4  and  C_16
REMARK                            x       y       z     vdW  Elec       q    Type
REMARK                         _______ _______ _______ _____ _____    ______ ____
ROOT
ATOM      1  C   UNL     1       4.664   0.489   1.252  0.00  0.00    +0.000 C 
ATOM      2  C   UNL     1       4.991  -0.623   2.265  0.00  0.00    +0.000 C 
ATOM      3  C   UNL     1       6.480  -0.780   2.415  0.00  0.00    +0.000 C 
ATOM      4  O   UNL     1       7.059  -1.834   2.659  0.00  0.00    +0.000 OA
ATOM      5  C   UNL     1       7.252   0.477   2.347  0.00  0.00    +0.000 A 
ATOM      6  C   UNL     1       8.621   0.487   2.633  0.00  0.00    +0.000 A 
ATOM      7  C   UNL     1       9.322   1.694   2.614  0.00  0.00    +0.000 A 
ATOM      8  C   UNL     1       8.654   2.883   2.317  0.00  0.00    +0.000 A 
ATOM      9  C   UNL     1       7.288   2.867   2.028  0.00  0.00    +0.000 A 
ATOM     10  C   UNL     1       6.589   1.661   2.029  0.00  0.00    +0.000 A 
ATOM     11  O   UNL     1       5.258   1.732   1.719  0.00  0.00    +0.000 OA
ATOM     12 BR   UNL     1       4.140  -2.335   1.875  0.00  0.00    +0.000 Br
ENDROOT
BRANCH   1  13
ATOM     13  C   UNL     1       5.089   0.335  -0.223  0.00  0.00    +0.000 A 
ATOM     14  C   UNL     1       4.721   1.353  -1.132  0.00  0.00    +0.000 A 
ATOM     15  C   UNL     1       5.088   1.303  -2.478  0.00  0.00    +0.000 A 
ATOM     16  C   UNL     1       5.836   0.233  -2.952  0.00  0.00    +0.000 A 
ATOM     17  C   UNL     1       6.214  -0.783  -2.080  0.00  0.00    +0.000 A 
ATOM     18  C   UNL     1       5.847  -0.734  -0.730  0.00  0.00    +0.000 A 
ENDBRANCH   1  13
BRANCH   1  19
ATOM     19  O   UNL     1       3.223   0.654   1.173  0.00  0.00    +0.000 OA
BRANCH  19  21
ATOM     20  C   UNL     1       1.112   1.342   2.021  0.00  0.00    +0.000 C 
ATOM     21  C   UNL     1       2.607   1.313   2.273  0.00  0.00    +0.000 C 
ENDBRANCH  19  21
ENDBRANCH   1  19
TORSDOF 3
