MODEL 1
REMARK VINA RESULT:      -5.9      0.000      0.000
REMARK  Name = *****
REMARK  2 active torsions:
REMARK  status: ('A' for Active; 'I' for Inactive)
REMARK    1  A    between atoms: C_8  and  C_15
REMARK    2  A    between atoms: C_8  and  O_21
REMARK                            x       y       z     vdW  Elec       q    Type
REMARK                         _______ _______ _______ _____ _____    ______ ____
ROOT
ATOM      1  C   UNL     1      88.760  65.754  85.619  0.00  0.00    +0.000 C 
ATOM      2  C   UNL     1      89.008  65.995  84.135  0.00  0.00    +0.000 C 
ATOM      3  C   UNL     1      89.028  67.483  83.796  0.00  0.00    +0.000 C 
ATOM      4  C   UNL     1      90.038  68.261  84.663  0.00  0.00    +0.000 C 
ATOM      5  C   UNL     1      89.841  68.007  86.171  0.00  0.00    +0.000 C 
ATOM      6  C   UNL     1      89.770  66.503  86.481  0.00  0.00    +0.000 C 
ATOM      7  C   UNL     1      88.596  68.754  86.675  0.00  0.00    +0.000 C 
ATOM      8  C   UNL     1      88.742  70.284  86.506  0.00  0.00    +0.000 C 
ATOM      9  C   UNL     1      89.369  70.684  85.166  0.00  0.00    +0.000 A 
ATOM     10  C   UNL     1      89.402  72.045  84.796  0.00  0.00    +0.000 A 
ATOM     11  C   UNL     1      90.002  72.459  83.607  0.00  0.00    +0.000 A 
ATOM     12  C   UNL     1      90.596  71.521  82.772  0.00  0.00    +0.000 A 
ATOM     13  C   UNL     1      90.596  70.175  83.129  0.00  0.00    +0.000 A 
ATOM     14  C   UNL     1      89.994  69.741  84.324  0.00  0.00    +0.000 A 
ENDROOT
BRANCH   8  15
ATOM     15  C   UNL     1      87.366  70.914  86.766  0.00  0.00    +0.000 A 
ATOM     16  C   UNL     1      86.517  71.285  85.709  0.00  0.00    +0.000 A 
ATOM     17  C   UNL     1      85.276  71.877  85.957  0.00  0.00    +0.000 A 
ATOM     18  C   UNL     1      84.862  72.113  87.265  0.00  0.00    +0.000 A 
ATOM     19  C   UNL     1      85.690  71.762  88.328  0.00  0.00    +0.000 A 
ATOM     20  C   UNL     1      86.932  71.172  88.082  0.00  0.00    +0.000 A 
ENDBRANCH   8  15
BRANCH   8  21
ATOM     21  O   UNL     1      89.663  70.714  87.527  0.00  0.00    +0.000 OA
ATOM     22  H   UNL     1      90.528  70.301  87.378  0.00  0.00    +0.000 HD
ENDBRANCH   8  21
TORSDOF 2
ENDMDL
