REMARK  Name = *****
REMARK  1 active torsions:
REMARK  status: ('A' for Active; 'I' for Inactive)
REMARK    1  A    between atoms: C_2  and  C_13
REMARK                            x       y       z     vdW  Elec       q    Type
REMARK                         _______ _______ _______ _____ _____    ______ ____
ROOT
ATOM      1  C   UNL     1      -2.499   0.774  -0.443  0.00  0.00    +0.000 C 
ATOM      2  C   UNL     1      -2.434  -0.599   0.212  0.00  0.00    +0.000 C 
ATOM      3  O   UNL     1      -1.298  -1.345  -0.259  0.00  0.00    +0.000 OA
ATOM      4  C   UNL     1      -0.112  -0.682  -0.092  0.00  0.00    +0.000 A 
ATOM      5  C   UNL     1      -0.012   0.706   0.018  0.00  0.00    +0.000 A 
ATOM      6  C   UNL     1      -1.240   1.516  -0.096  0.00  0.00    +0.000 C 
ATOM      7  O   UNL     1      -1.204   2.735   0.027  0.00  0.00    +0.000 OA
ATOM      8  C   UNL     1       1.231   1.321   0.191  0.00  0.00    +0.000 A 
ATOM      9  C   UNL     1       2.377   0.530   0.237  0.00  0.00    +0.000 A 
ATOM     10  C   UNL     1       2.289  -0.857   0.105  0.00  0.00    +0.000 A 
ATOM     11  C   UNL     1       1.042  -1.463  -0.065  0.00  0.00    +0.000 A 
ATOM     12 CL   UNL     1       3.917   1.269   0.444  0.00  0.00    +0.000 Cl
ENDROOT
BRANCH   2  13
ATOM     13  C   UNL     1      -3.696  -1.389  -0.086  0.00  0.00    +0.000 A 
ATOM     14  C   UNL     1      -3.837  -2.121  -1.276  0.00  0.00    +0.000 A 
ATOM     15  C   UNL     1      -5.016  -2.820  -1.540  0.00  0.00    +0.000 A 
ATOM     16  C   UNL     1      -6.070  -2.794  -0.631  0.00  0.00    +0.000 A 
ATOM     17  C   UNL     1      -5.947  -2.065   0.551  0.00  0.00    +0.000 A 
ATOM     18  C   UNL     1      -4.768  -1.365   0.821  0.00  0.00    +0.000 A 
ATOM     19 CL   UNL     1      -5.168  -3.716  -3.001  0.00  0.00    +0.000 Cl
ENDBRANCH   2  13
TORSDOF 1
