MODEL 1
REMARK VINA RESULT:      -5.2      0.000      0.000
REMARK  Name = *****
REMARK  1 active torsions:
REMARK  status: ('A' for Active; 'I' for Inactive)
REMARK    1  A    between atoms: C_10  and  C_13
REMARK                            x       y       z     vdW  Elec       q    Type
REMARK                         _______ _______ _______ _____ _____    ______ ____
ROOT
ATOM      1  C   UNL     1     105.335 123.151  80.582  0.00  0.00    +0.000 A 
ATOM      2  C   UNL     1     105.076 124.192  79.692  0.00  0.00    +0.000 A 
ATOM      3  C   UNL     1     104.332 125.299  80.109  0.00  0.00    +0.000 A 
ATOM      4  C   UNL     1     103.838 125.367  81.414  0.00  0.00    +0.000 A 
ATOM      5  C   UNL     1     104.099 124.323  82.301  0.00  0.00    +0.000 A 
ATOM      6  C   UNL     1     104.850 123.215  81.887  0.00  0.00    +0.000 A 
ATOM      7  C   UNL     1     103.587 124.379  83.679  0.00  0.00    +0.000 C 
ATOM      8  O   UNL     1     103.845 123.513  84.505  0.00  0.00    +0.000 OA
ATOM      9  C   UNL     1     102.696 125.492  84.016  0.00  0.00    +0.000 C 
ATOM     10  C   UNL     1     102.461 126.568  82.992  0.00  0.00    +0.000 C 
ATOM     11  O   UNL     1     103.327 126.774  84.128  0.00  0.00    +0.000 OA
ATOM     12  O   UNL     1     103.140 126.504  81.720  0.00  0.00    +0.000 OA
ENDROOT
BRANCH  10  13
ATOM     13  C   UNL     1     101.139 127.297  82.986  0.00  0.00    +0.000 A 
ATOM     14  C   UNL     1     101.024 128.590  83.528  0.00  0.00    +0.000 A 
ATOM     15  C   UNL     1      99.801 129.264  83.531  0.00  0.00    +0.000 A 
ATOM     16  C   UNL     1      98.664 128.667  82.997  0.00  0.00    +0.000 A 
ATOM     17  C   UNL     1      98.750 127.385  82.461  0.00  0.00    +0.000 A 
ATOM     18  C   UNL     1      99.974 126.711  82.460  0.00  0.00    +0.000 A 
ATOM     19 CL   UNL     1      99.702 130.846  84.201  0.00  0.00    +0.000 Cl
ENDBRANCH  10  13
TORSDOF 1
ENDMDL
