MODEL 1
REMARK VINA RESULT:      -4.6      0.000      0.000
REMARK  Name = *****
REMARK  1 active torsions:
REMARK  status: ('A' for Active; 'I' for Inactive)
REMARK    1  A    between atoms: C_2  and  C_11
REMARK                            x       y       z     vdW  Elec       q    Type
REMARK                         _______ _______ _______ _____ _____    ______ ____
ROOT
ATOM      1  C   UNL     1      89.686  69.801  85.327  0.00  0.00    +0.000 C 
ATOM      2  C   UNL     1      88.217  69.835  85.769  0.00  0.00    +0.000 C 
ATOM      3  O   UNL     1      87.404  70.429  84.740  0.00  0.00    +0.000 OA
ATOM      4  C   UNL     1      87.984  71.539  84.183  0.00  0.00    +0.000 A 
ATOM      5  C   UNL     1      87.153  72.355  83.417  0.00  0.00    +0.000 A 
ATOM      6  C   UNL     1      87.661  73.521  82.840  0.00  0.00    +0.000 A 
ATOM      7  C   UNL     1      89.000  73.866  83.027  0.00  0.00    +0.000 A 
ATOM      8  C   UNL     1      89.835  73.041  83.783  0.00  0.00    +0.000 A 
ATOM      9  C   UNL     1      89.331  71.871  84.349  0.00  0.00    +0.000 A 
ATOM     10  O   UNL     1      90.215  71.106  85.062  0.00  0.00    +0.000 OA
ENDROOT
BRANCH   2  11
ATOM     11  C   UNL     1      87.880  70.458  87.120  0.00  0.00    +0.000 A 
ATOM     12  C   UNL     1      88.779  70.498  88.197  0.00  0.00    +0.000 A 
ATOM     13  C   UNL     1      88.411  71.078  89.416  0.00  0.00    +0.000 A 
ATOM     14  C   UNL     1      87.139  71.624  89.571  0.00  0.00    +0.000 A 
ATOM     15  C   UNL     1      86.230  71.594  88.519  0.00  0.00    +0.000 A 
ATOM     16  C   UNL     1      86.599  71.013  87.303  0.00  0.00    +0.000 A 
ATOM     17 CL   UNL     1      86.691  72.338  91.071  0.00  0.00    +0.000 Cl
ENDBRANCH   2  11
TORSDOF 1
ENDMDL
