MODEL 1
REMARK VINA RESULT:      -5.1      0.000      0.000
REMARK  Name = *****
REMARK  2 active torsions:
REMARK  status: ('A' for Active; 'I' for Inactive)
REMARK    1  A    between atoms: N_4  and  S_5
REMARK    2  A    between atoms: S_5  and  C_8
REMARK                            x       y       z     vdW  Elec       q    Type
REMARK                         _______ _______ _______ _____ _____    ______ ____
ROOT
ATOM      1  C   UNL     1     103.142 128.296  82.952  0.00  0.00    +0.000 C 
ATOM      2  C   UNL     1     101.880 127.578  83.385  0.00  0.00    +0.000 C 
ATOM      3  C   UNL     1     101.687 126.321  82.544  0.00  0.00    +0.000 C 
ATOM      4  N   UNL     1     100.765 127.459  82.443  0.00  0.00    +0.000 NA
ATOM      5  C   UNL     1     102.894 126.268  81.667  0.00  0.00    +0.000 A 
ATOM      6  C   UNL     1     103.256 125.320  80.720  0.00  0.00    +0.000 A 
ATOM      7  C   UNL     1     104.451 125.487  80.017  0.00  0.00    +0.000 A 
ATOM      8  C   UNL     1     105.277 126.596  80.258  0.00  0.00    +0.000 A 
ATOM      9  C   UNL     1     104.919 127.556  81.206  0.00  0.00    +0.000 A 
ATOM     10  C   UNL     1     103.731 127.380  81.900  0.00  0.00    +0.000 A 
ENDROOT
BRANCH   4  11
ATOM     11  S   UNL     1      99.230 127.261  83.164  0.00  0.00    +0.000 S 
ATOM     12  O   UNL     1      98.215 127.201  82.130  0.00  0.00    +0.000 OA
ATOM     13  O   UNL     1      99.331 126.218  84.163  0.00  0.00    +0.000 OA
BRANCH  11  14
ATOM     14  C   UNL     1      99.058 128.809  84.018  0.00  0.00    +0.000 A 
ATOM     15  C   UNL     1      98.535 128.841  85.314  0.00  0.00    +0.000 A 
ATOM     16  C   UNL     1      98.417 130.064  85.973  0.00  0.00    +0.000 A 
ATOM     17  C   UNL     1      98.823 131.242  85.342  0.00  0.00    +0.000 A 
ATOM     18  C   UNL     1      99.353 131.202  84.051  0.00  0.00    +0.000 A 
ATOM     19  C   UNL     1      99.475 129.984  83.385  0.00  0.00    +0.000 A 
ENDBRANCH  11  14
ENDBRANCH   4  11
TORSDOF 2
ENDMDL
