REMARK  Name = *****
REMARK  5 active torsions:
REMARK  status: ('A' for Active; 'I' for Inactive)
REMARK    1  A    between atoms: C_4  and  C_7
REMARK    2  A    between atoms: C_7  and  C_8
REMARK    3  A    between atoms: C_8  and  C_9
REMARK    4  A    between atoms: C_9  and  C_10
REMARK    5  A    between atoms: C_9  and  O_16
REMARK                            x       y       z     vdW  Elec       q    Type
REMARK                         _______ _______ _______ _____ _____    ______ ____
ROOT
ATOM      1  C   UNL     1      -5.101  -0.533  -0.553  0.00  0.00    +0.000 C 
ENDROOT
BRANCH   1   2
ATOM      2  C   UNL     1      -5.892  -1.809  -0.662  0.00  0.00    +0.000 A 
ATOM      3  C   UNL     1      -6.470  -2.586   0.329  0.00  0.00    +0.000 A 
ATOM      4  C   UNL     1      -7.131  -3.739  -0.193  0.00  0.00    +0.000 A 
ATOM      5  C   UNL     1      -7.024  -3.797  -1.558  0.00  0.00    +0.000 A 
ATOM      6  S   UNL     1      -6.156  -2.503  -2.217  0.00  0.00    +0.000 S 
ATOM      7 BR   UNL     1      -7.761  -5.169  -2.597  0.00  0.00    +0.000 Br
ENDBRANCH   1   2
BRANCH   1   8
ATOM      8  O   UNL     1      -5.681   0.249   0.490  0.00  0.00    +0.000 OA
ATOM      9  H   UNL     1      -5.637  -0.243   1.325  0.00  0.00    +0.000 HD
ENDBRANCH   1   8
BRANCH   1  10
ATOM     10  C   UNL     1      -3.623  -0.802  -0.258  0.00  0.00    +0.000 C 
BRANCH  10  11
ATOM     11  C   UNL     1      -2.805   0.494  -0.281  0.00  0.00    +0.000 C 
BRANCH  11  15
ATOM     12  C   UNL     1       1.357  -0.247   0.575  0.00  0.00    +0.000 A 
ATOM     13  C   UNL     1       0.838  -0.555  -0.680  0.00  0.00    +0.000 A 
ATOM     14  C   UNL     1      -0.508  -0.312  -0.959  0.00  0.00    +0.000 A 
ATOM     15  C   UNL     1      -1.347   0.242   0.017  0.00  0.00    +0.000 A 
ATOM     16  C   UNL     1      -0.816   0.545   1.277  0.00  0.00    +0.000 A 
ATOM     17  C   UNL     1       0.531   0.303   1.554  0.00  0.00    +0.000 A 
ENDBRANCH  11  15
ENDBRANCH  10  11
ENDBRANCH   1  10
TORSDOF 5
