MODEL 1
REMARK VINA RESULT:      -4.9      0.000      0.000
REMARK  Name = *****
REMARK  1 active torsions:
REMARK  status: ('A' for Active; 'I' for Inactive)
REMARK    1  A    between atoms: C_2  and  C_12
REMARK                            x       y       z     vdW  Elec       q    Type
REMARK                         _______ _______ _______ _____ _____    ______ ____
ROOT
ATOM      1  C   UNL     1      87.873  63.619  86.789  0.00  0.00    +0.000 C 
ATOM      2  C   UNL     1      87.046  64.325  87.863  0.00  0.00    +0.000 C 
ATOM      3  O   UNL     1      86.742  65.676  87.465  0.00  0.00    +0.000 OA
ATOM      4  C   UNL     1      87.827  66.420  87.094  0.00  0.00    +0.000 A 
ATOM      5  C   UNL     1      87.691  67.805  87.184  0.00  0.00    +0.000 A 
ATOM      6  C   UNL     1      88.755  68.636  86.825  0.00  0.00    +0.000 A 
ATOM      7  C   UNL     1      89.952  68.083  86.366  0.00  0.00    +0.000 A 
ATOM      8  C   UNL     1      90.083  66.699  86.256  0.00  0.00    +0.000 A 
ATOM      9  C   UNL     1      89.015  65.873  86.616  0.00  0.00    +0.000 A 
ATOM     10  C   UNL     1      89.109  64.411  86.467  0.00  0.00    +0.000 C 
ATOM     11  O   UNL     1      90.137  63.881  86.056  0.00  0.00    +0.000 OA
ENDROOT
BRANCH   2  12
ATOM     12  C   UNL     1      87.531  64.283  89.312  0.00  0.00    +0.000 A 
ATOM     13  C   UNL     1      88.843  63.895  89.649  0.00  0.00    +0.000 A 
ATOM     14  C   UNL     1      89.275  63.872  90.979  0.00  0.00    +0.000 A 
ATOM     15  C   UNL     1      88.409  64.228  92.005  0.00  0.00    +0.000 A 
ATOM     16  C   UNL     1      87.103  64.603  91.701  0.00  0.00    +0.000 A 
ATOM     17  C   UNL     1      86.666  64.629  90.371  0.00  0.00    +0.000 A 
ATOM     18 CL   UNL     1      85.015  65.080  90.109  0.00  0.00    +0.000 Cl
ENDBRANCH   2  12
TORSDOF 1
ENDMDL
