MODEL 1
REMARK VINA RESULT:      -5.2      0.000      0.000
REMARK  Name = *****
REMARK  6 active torsions:
REMARK  status: ('A' for Active; 'I' for Inactive)
REMARK    1  A    between atoms: C_1  and  C_2
REMARK    2  A    between atoms: C_2  and  C_3
REMARK    3  A    between atoms: C_12  and  C_13
REMARK    4  A    between atoms: C_12  and  O_20
REMARK    5  A    between atoms: C_16  and  O_19
REMARK    6  A    between atoms: O_20  and  C_21
REMARK                            x       y       z     vdW  Elec       q    Type
REMARK                         _______ _______ _______ _____ _____    ______ ____
ROOT
ATOM      1  C   UNL     1     103.381 127.037  83.849  0.00  0.00    +0.000 C 
ATOM      2  C   UNL     1     102.758 128.228  83.908  0.00  0.00    +0.000 C 
ATOM      3  C   UNL     1     101.343 128.300  83.592  0.00  0.00    +0.000 A 
ATOM      4  C   UNL     1     100.627 129.489  83.769  0.00  0.00    +0.000 A 
ATOM      5  C   UNL     1      99.272 129.551  83.437  0.00  0.00    +0.000 A 
ATOM      6  C   UNL     1      98.629 128.427  82.921  0.00  0.00    +0.000 A 
ATOM      7  C   UNL     1      99.343 127.242  82.741  0.00  0.00    +0.000 A 
ATOM      8  C   UNL     1     100.695 127.178  83.086  0.00  0.00    +0.000 A 
ATOM      9  O   UNL     1     101.320 125.990  82.854  0.00  0.00    +0.000 OA
ATOM     10  C   UNL     1     102.630 125.761  83.432  0.00  0.00    +0.000 C 
ENDROOT
BRANCH  10  11
ATOM     11  C   UNL     1     103.421 124.999  82.347  0.00  0.00    +0.000 A 
ATOM     12  C   UNL     1     103.524 125.531  81.044  0.00  0.00    +0.000 A 
ATOM     13  C   UNL     1     104.254 124.872  80.050  0.00  0.00    +0.000 A 
ATOM     14  C   UNL     1     104.896 123.678  80.351  0.00  0.00    +0.000 A 
ATOM     15  C   UNL     1     104.823 123.135  81.628  0.00  0.00    +0.000 A 
ATOM     16  C   UNL     1     104.093 123.793  82.620  0.00  0.00    +0.000 A 
BRANCH  14  17
ATOM     17  O   UNL     1     105.619 123.002  79.414  0.00  0.00    +0.000 OA
ATOM     18  H   UNL     1     105.220 122.755  78.603  0.00  0.00    +0.000 HD
ENDBRANCH  14  17
ENDBRANCH  10  11
BRANCH   1  20
ATOM     19  C   UNL     1     105.770 127.700  83.258  0.00  0.00    +0.000 C 
ATOM     20  C   UNL     1     104.851 126.956  84.215  0.00  0.00    +0.000 C 
ENDBRANCH   1  20
BRANCH  10  21
ATOM     21  O   UNL     1     102.524 124.973  84.635  0.00  0.00    +0.000 OA
ATOM     22  C   UNL     1     101.647 125.508  85.616  0.00  0.00    +0.000 C 
ENDBRANCH  10  21
TORSDOF 4
ENDMDL
