MODEL 1
REMARK VINA RESULT:      -5.5      0.000      0.000
REMARK  Name = *****
REMARK  5 active torsions:
REMARK  status: ('A' for Active; 'I' for Inactive)
REMARK    1  A    between atoms: C_1  and  C_2
REMARK    2  A    between atoms: C_3  and  C_20
REMARK    3  A    between atoms: C_8  and  C_10
REMARK    4  A    between atoms: C_16  and  C_19
REMARK    5  A    between atoms: C_17  and  O_18
REMARK                            x       y       z     vdW  Elec       q    Type
REMARK                         _______ _______ _______ _____ _____    ______ ____
ROOT
ATOM      1  C   UNL     1      87.898  63.591  88.726  0.00  0.00    +0.000 C 
ATOM      2  C   UNL     1      88.237  64.853  87.974  0.00  0.00    +0.000 A 
ATOM      3  C   UNL     1      87.436  66.007  88.094  0.00  0.00    +0.000 A 
ATOM      4  C   UNL     1      87.798  67.173  87.388  0.00  0.00    +0.000 A 
ATOM      5  C   UNL     1      88.900  67.187  86.511  0.00  0.00    +0.000 A 
ATOM      6  C   UNL     1      89.221  68.442  85.736  0.00  0.00    +0.000 C 
ATOM      7  C   UNL     1      88.073  69.436  85.755  0.00  0.00    +0.000 C 
ATOM      8  C   UNL     1      87.547  69.526  87.180  0.00  0.00    +0.000 C 
ATOM      9  O   UNL     1      86.994  68.269  87.585  0.00  0.00    +0.000 OA
ATOM     10  C   UNL     1      89.706  66.033  86.387  0.00  0.00    +0.000 A 
ATOM     11  C   UNL     1      89.332  64.874  87.094  0.00  0.00    +0.000 A 
ATOM     12  C   UNL     1      90.922  66.030  85.496  0.00  0.00    +0.000 C 
ATOM     13  C   UNL     1      86.235  66.021  89.008  0.00  0.00    +0.000 C 
ENDROOT
BRANCH   8  14
ATOM     14  C   UNL     1      86.477  70.598  87.287  0.00  0.00    +0.000 A 
ATOM     15  C   UNL     1      85.983  71.017  88.532  0.00  0.00    +0.000 A 
ATOM     16  C   UNL     1      84.981  71.986  88.612  0.00  0.00    +0.000 A 
ATOM     17  C   UNL     1      84.456  72.544  87.448  0.00  0.00    +0.000 A 
ATOM     18  C   UNL     1      84.931  72.134  86.205  0.00  0.00    +0.000 A 
ATOM     19  C   UNL     1      85.934  71.166  86.123  0.00  0.00    +0.000 A 
ENDBRANCH   8  14
BRANCH  11  20
ATOM     20  O   UNL     1      90.030  63.703  86.939  0.00  0.00    +0.000 OA
ATOM     21  H   UNL     1      89.618  62.962  86.541  0.00  0.00    +0.000 HD
ENDBRANCH  11  20
TORSDOF 2
ENDMDL
