MODEL 1
REMARK VINA RESULT:      -5.0      0.000      0.000
REMARK  Name = *****
REMARK  5 active torsions:
REMARK  status: ('A' for Active; 'I' for Inactive)
REMARK    1  A    between atoms: C_1  and  C_2
REMARK    2  A    between atoms: C_2  and  N_3
REMARK    3  A    between atoms: C_5  and  C_8
REMARK    4  A    between atoms: C_8  and  O_9
REMARK    5  A    between atoms: O_9  and  C_10
REMARK                            x       y       z     vdW  Elec       q    Type
REMARK                         _______ _______ _______ _____ _____    ______ ____
ROOT
ATOM      1  C   UNL     1      88.499  70.241  87.640  0.00  0.00    +0.000 A 
ATOM      2  C   UNL     1      87.609  70.716  86.672  0.00  0.00    +0.000 A 
ATOM      3  C   UNL     1      86.406  71.345  87.033  0.00  0.00    +0.000 A 
ATOM      4  C   UNL     1      86.094  71.503  88.401  0.00  0.00    +0.000 A 
ATOM      5  C   UNL     1      86.995  71.025  89.366  0.00  0.00    +0.000 A 
ATOM      6  C   UNL     1      88.188  70.398  88.989  0.00  0.00    +0.000 A 
ATOM      7  C   UNL     1      84.893  72.132  88.768  0.00  0.00    +0.000 A 
ATOM      8  C   UNL     1      84.016  72.595  87.789  0.00  0.00    +0.000 A 
ATOM      9  C   UNL     1      84.314  72.441  86.439  0.00  0.00    +0.000 A 
ATOM     10  C   UNL     1      85.506  71.817  86.062  0.00  0.00    +0.000 A 
ATOM     11 BR   UNL     1      82.403  73.440  88.299  0.00  0.00    +0.000 Br
ENDROOT
BRANCH   1  12
ATOM     12  O   UNL     1      89.628  69.656  87.135  0.00  0.00    +0.000 OA
BRANCH  12  13
ATOM     13  C   UNL     1      89.729  69.551  85.711  0.00  0.00    +0.000 C 
BRANCH  13  16
ATOM     14  N   UNL     1      90.393  66.034  85.125  0.00  0.00    +0.000 N 
ATOM     15  C   UNL     1      90.259  67.026  86.046  0.00  0.00    +0.000 A 
ATOM     16  C   UNL     1      89.986  68.147  85.290  0.00  0.00    +0.000 A 
ATOM     17  N   UNL     1      89.947  67.791  83.965  0.00  0.00    +0.000 NA
ATOM     18  N   UNL     1      90.199  66.491  83.877  0.00  0.00    +0.000 NA
BRANCH  14  20
ATOM     19  C   UNL     1      91.960  64.196  84.660  0.00  0.00    +0.000 C 
ATOM     20  C   UNL     1      90.686  64.638  85.358  0.00  0.00    +0.000 C 
ENDBRANCH  14  20
ENDBRANCH  13  16
ENDBRANCH  12  13
ENDBRANCH   1  12
TORSDOF 4
ENDMDL
