MODEL 1
REMARK VINA RESULT:      -5.1      0.000      0.000
REMARK  Name = *****
REMARK  1 active torsions:
REMARK  status: ('A' for Active; 'I' for Inactive)
REMARK    1  A    between atoms: C_2  and  C_12
REMARK                            x       y       z     vdW  Elec       q    Type
REMARK                         _______ _______ _______ _____ _____    ______ ____
ROOT
ATOM      1  C   UNL     1     100.487 126.468  82.430  0.00  0.00    +0.000 C 
ATOM      2  C   UNL     1     101.858 127.124  82.324  0.00  0.00    +0.000 C 
ATOM      3  O   UNL     1     102.138 127.906  83.503  0.00  0.00    +0.000 OA
ATOM      4  C   UNL     1     101.186 128.860  83.747  0.00  0.00    +0.000 A 
ATOM      5  C   UNL     1     101.580 129.959  84.507  0.00  0.00    +0.000 A 
ATOM      6  C   UNL     1     100.663 130.974  84.793  0.00  0.00    +0.000 A 
ATOM      7  C   UNL     1      99.350 130.882  84.330  0.00  0.00    +0.000 A 
ATOM      8  C   UNL     1      98.946 129.773  83.586  0.00  0.00    +0.000 A 
ATOM      9  C   UNL     1      99.867 128.760  83.304  0.00  0.00    +0.000 A 
ATOM     10  C   UNL     1      99.452 127.547  82.572  0.00  0.00    +0.000 C 
ATOM     11  O   UNL     1      98.301 127.415  82.170  0.00  0.00    +0.000 OA
ENDROOT
BRANCH   2  12
ATOM     12  C   UNL     1     102.941 126.068  82.160  0.00  0.00    +0.000 A 
ATOM     13  C   UNL     1     103.068 125.035  83.110  0.00  0.00    +0.000 A 
ATOM     14  C   UNL     1     104.037 124.039  82.970  0.00  0.00    +0.000 A 
ATOM     15  C   UNL     1     104.892 124.050  81.873  0.00  0.00    +0.000 A 
ATOM     16  C   UNL     1     104.776 125.054  80.914  0.00  0.00    +0.000 A 
ATOM     17  C   UNL     1     103.807 126.054  81.052  0.00  0.00    +0.000 A 
ATOM     18 CL   UNL     1     103.717 127.244  79.802  0.00  0.00    +0.000 Cl
ENDBRANCH   2  12
TORSDOF 1
ENDMDL
