REMARK  Name = *****
REMARK  5 active torsions:
REMARK  status: ('A' for Active; 'I' for Inactive)
REMARK    1  A    between atoms: C_1  and  C_2
REMARK    2  A    between atoms: C_5  and  S_8
REMARK    3  A    between atoms: S_8  and  N_11
REMARK    4  A    between atoms: N_11  and  C_12
REMARK    5  A    between atoms: N_11  and  C_13
REMARK                            x       y       z     vdW  Elec       q    Type
REMARK                         _______ _______ _______ _____ _____    ______ ____
ROOT
ATOM      1  S   UNL     1      -3.544  -0.337  -0.360  0.00  0.00    +0.000 S 
ATOM      2  O   UNL     1      -3.921  -1.234  -1.433  0.00  0.00    +0.000 OA
ATOM      3  O   UNL     1      -3.870  -0.643   1.017  0.00  0.00    +0.000 OA
ENDROOT
BRANCH   1   8
ATOM      4  C   UNL     1       2.460   0.530  -0.551  0.00  0.00    +0.000 C 
ATOM      5  C   UNL     1       0.971   0.340  -0.524  0.00  0.00    +0.000 A 
ATOM      6  C   UNL     1       0.201   0.915   0.497  0.00  0.00    +0.000 A 
ATOM      7  C   UNL     1      -1.178   0.710   0.543  0.00  0.00    +0.000 A 
ATOM      8  C   UNL     1      -1.788  -0.081  -0.434  0.00  0.00    +0.000 A 
ATOM      9  C   UNL     1      -1.032  -0.682  -1.443  0.00  0.00    +0.000 A 
ATOM     10  C   UNL     1       0.347  -0.471  -1.483  0.00  0.00    +0.000 A 
ENDBRANCH   1   8
BRANCH   1  11
ATOM     11  N   UNL     1      -4.163   1.214  -0.736  0.00  0.00    +0.000 NA
ATOM     12  C   UNL     1      -3.818   1.706  -2.092  0.00  0.00    +0.000 C 
BRANCH  11  13
ATOM     13  C   UNL     1      -5.584   1.408  -0.326  0.00  0.00    +0.000 C 
ATOM     14  C   UNL     1      -6.579   0.694  -1.258  0.00  0.00    +0.000 C 
ATOM     15  C   UNL     1      -8.002   1.210  -1.046  0.00  0.00    +0.000 C 
ATOM     16  C   UNL     1      -8.091   2.719  -1.291  0.00  0.00    +0.000 C 
ATOM     17  C   UNL     1      -6.965   3.481  -0.656  0.00  0.00    +0.000 C 
ATOM     18  C   UNL     1      -5.848   2.890  -0.204  0.00  0.00    +0.000 C 
ENDBRANCH  11  13
ENDBRANCH   1  11
TORSDOF 3
