REMARK  Name = *****
REMARK  2 active torsions:
REMARK  status: ('A' for Active; 'I' for Inactive)
REMARK    1  A    between atoms: C_1  and  C_2
REMARK    2  A    between atoms: C_11  and  C_13
REMARK                            x       y       z     vdW  Elec       q    Type
REMARK                         _______ _______ _______ _____ _____    ______ ____
ROOT
ATOM      1  C   UNL     1       1.151   0.253   0.142  0.00  0.00    +0.000 C 
ATOM      2  C   UNL     1       2.649   0.167   0.094  0.00  0.00    +0.000 A 
ATOM      3  C   UNL     1       3.419   1.324  -0.087  0.00  0.00    +0.000 A 
ATOM      4  C   UNL     1       4.810   1.241  -0.155  0.00  0.00    +0.000 A 
ATOM      5  C   UNL     1       5.434  -0.004  -0.087  0.00  0.00    +0.000 A 
ATOM      6  C   UNL     1       4.679  -1.167   0.082  0.00  0.00    +0.000 A 
ATOM      7  C   UNL     1       3.288  -1.079   0.170  0.00  0.00    +0.000 A 
ATOM      8  C   UNL     1       6.900  -0.075  -0.243  0.00  0.00    +0.000 C 
ATOM      9  O   UNL     1       7.495  -1.145  -0.171  0.00  0.00    +0.000 OA
ATOM     10  C   UNL     1       7.598   1.216  -0.568  0.00  0.00    +0.000 C 
ATOM     11  C   UNL     1       6.852   2.345   0.130  0.00  0.00    +0.000 C 
ATOM     12  O   UNL     1       5.489   2.419  -0.319  0.00  0.00    +0.000 OA
ENDROOT
BRANCH  11  13
ATOM     13  C   UNL     1       7.530   3.678  -0.141  0.00  0.00    +0.000 A 
ATOM     14  C   UNL     1       7.294   4.388  -1.331  0.00  0.00    +0.000 A 
ATOM     15  C   UNL     1       7.943   5.599  -1.576  0.00  0.00    +0.000 A 
ATOM     16  C   UNL     1       8.834   6.101  -0.636  0.00  0.00    +0.000 A 
ATOM     17  C   UNL     1       9.089   5.414   0.545  0.00  0.00    +0.000 A 
ATOM     18  C   UNL     1       8.441   4.203   0.792  0.00  0.00    +0.000 A 
ATOM     19  F   UNL     1       9.457   7.263  -0.871  0.00  0.00    +0.000 F 
ENDBRANCH  11  13
TORSDOF 1
