MODEL 1
REMARK VINA RESULT:      -4.9      0.000      0.000
REMARK  Name = *****
REMARK  2 active torsions:
REMARK  status: ('A' for Active; 'I' for Inactive)
REMARK    1  A    between atoms: C_8  and  C_11
REMARK    2  A    between atoms: C_8  and  C_17
REMARK                            x       y       z     vdW  Elec       q    Type
REMARK                         _______ _______ _______ _____ _____    ______ ____
ROOT
ATOM      1  C   UNL     1     104.313 127.950  81.484  0.00  0.00    +0.000 C 
ATOM      2  C   UNL     1     103.817 128.678  82.731  0.00  0.00    +0.000 C 
ATOM      3  C   UNL     1     103.136 127.719  83.706  0.00  0.00    +0.000 C 
ATOM      4  C   UNL     1     102.012 126.920  83.037  0.00  0.00    +0.000 C 
ATOM      5  C   UNL     1     102.516 126.202  81.784  0.00  0.00    +0.000 C 
ATOM      6  C   UNL     1     103.199 127.159  80.807  0.00  0.00    +0.000 C 
ATOM      7  O   UNL     1     100.952 127.799  82.672  0.00  0.00    +0.000 OA
ATOM      8  C   UNL     1      99.890 127.536  83.612  0.00  0.00    +0.000 C 
ATOM      9  O   UNL     1     100.412 126.648  84.617  0.00  0.00    +0.000 OA
ATOM     10  O   UNL     1     101.506 125.955  83.950  0.00  0.00    +0.000 OA
ENDROOT
BRANCH   8  11
ATOM     11  C   UNL     1      99.490 128.853  84.279  0.00  0.00    +0.000 A 
ATOM     12  C   UNL     1      99.874 130.089  83.727  0.00  0.00    +0.000 A 
ATOM     13  C   UNL     1      99.489 131.292  84.325  0.00  0.00    +0.000 A 
ATOM     14  C   UNL     1      98.712 131.280  85.479  0.00  0.00    +0.000 A 
ATOM     15  C   UNL     1      98.313 130.067  86.036  0.00  0.00    +0.000 A 
ATOM     16  C   UNL     1      98.697 128.864  85.440  0.00  0.00    +0.000 A 
ENDBRANCH   8  11
BRANCH   8  17
ATOM     17  C   UNL     1      98.673 126.870  82.909  0.00  0.00    +0.000 C 
ATOM     18  F   UNL     1      97.788 127.786  82.441  0.00  0.00    +0.000 F 
ATOM     19  F   UNL     1      99.060 126.126  81.839  0.00  0.00    +0.000 F 
ATOM     20  F   UNL     1      97.990 126.041  83.737  0.00  0.00    +0.000 F 
ENDBRANCH   8  17
TORSDOF 2
ENDMDL
