REMARK  Name = *****
REMARK  2 active torsions:
REMARK  status: ('A' for Active; 'I' for Inactive)
REMARK    1  A    between atoms: C_4  and  C_7
REMARK    2  A    between atoms: C_8  and  C_18
REMARK                            x       y       z     vdW  Elec       q    Type
REMARK                         _______ _______ _______ _____ _____    ______ ____
ROOT
ATOM      1  C   UNL     1      -2.939   0.424  -0.182  0.00  0.00    +0.000 C 
ATOM      2  C   UNL     1      -3.093   0.603  -1.700  0.00  0.00    +0.000 C 
ATOM      3  C   UNL     1      -4.560   0.895  -1.921  0.00  0.00    +0.000 C 
ATOM      4  O   UNL     1      -4.961   1.696  -2.759  0.00  0.00    +0.000 OA
ATOM      5  C   UNL     1      -5.518   0.149  -1.079  0.00  0.00    +0.000 A 
ATOM      6  C   UNL     1      -6.889   0.196  -1.342  0.00  0.00    +0.000 A 
ATOM      7  C   UNL     1      -7.766  -0.556  -0.559  0.00  0.00    +0.000 A 
ATOM      8  C   UNL     1      -7.270  -1.353   0.475  0.00  0.00    +0.000 A 
ATOM      9  C   UNL     1      -5.899  -1.393   0.737  0.00  0.00    +0.000 A 
ATOM     10  C   UNL     1      -5.024  -0.629  -0.031  0.00  0.00    +0.000 A 
ATOM     11  O   UNL     1      -3.692  -0.711   0.282  0.00  0.00    +0.000 OA
ENDROOT
BRANCH   1  15
ATOM     12  C   UNL     1       1.227   0.127   0.980  0.00  0.00    +0.000 A 
ATOM     13  C   UNL     1       0.687   1.350   0.590  0.00  0.00    +0.000 A 
ATOM     14  C   UNL     1      -0.657   1.436   0.223  0.00  0.00    +0.000 A 
ATOM     15  C   UNL     1      -1.482   0.298   0.242  0.00  0.00    +0.000 A 
ATOM     16  C   UNL     1      -0.923  -0.926   0.641  0.00  0.00    +0.000 A 
ATOM     17  C   UNL     1       0.422  -1.010   1.007  0.00  0.00    +0.000 A 
ENDBRANCH   1  15
BRANCH   2  18
ATOM     18  C   UNL     1      -2.673  -0.633  -2.496  0.00  0.00    +0.000 C 
ATOM     19 CL   UNL     1      -2.641  -0.309  -4.251  0.00  0.00    +0.000 Cl
ENDBRANCH   2  18
TORSDOF 2
