MODEL 1
REMARK VINA RESULT:      -5.2      0.000      0.000
REMARK  Name = *****
REMARK  2 active torsions:
REMARK  status: ('A' for Active; 'I' for Inactive)
REMARK    1  A    between atoms: C_1  and  C_2
REMARK    2  A    between atoms: C_11  and  C_13
REMARK                            x       y       z     vdW  Elec       q    Type
REMARK                         _______ _______ _______ _____ _____    ______ ____
ROOT
ATOM      1  C   UNL     1      88.638  64.564  87.543  0.00  0.00    +0.000 C 
ATOM      2  C   UNL     1      88.802  65.996  87.126  0.00  0.00    +0.000 A 
ATOM      3  C   UNL     1      87.767  66.918  87.334  0.00  0.00    +0.000 A 
ATOM      4  C   UNL     1      87.912  68.244  86.924  0.00  0.00    +0.000 A 
ATOM      5  C   UNL     1      89.075  68.643  86.267  0.00  0.00    +0.000 A 
ATOM      6  C   UNL     1      90.110  67.732  86.043  0.00  0.00    +0.000 A 
ATOM      7  C   UNL     1      89.970  66.411  86.472  0.00  0.00    +0.000 A 
ATOM      8  C   UNL     1      89.172  70.030  85.770  0.00  0.00    +0.000 C 
ATOM      9  O   UNL     1      90.182  70.429  85.202  0.00  0.00    +0.000 OA
ATOM     10  C   UNL     1      87.946  70.882  85.934  0.00  0.00    +0.000 C 
ATOM     11  C   UNL     1      87.249  70.467  87.223  0.00  0.00    +0.000 C 
ATOM     12  O   UNL     1      86.860  69.084  87.177  0.00  0.00    +0.000 OA
ENDROOT
BRANCH  11  13
ATOM     13  C   UNL     1      86.014  71.320  87.455  0.00  0.00    +0.000 A 
ATOM     14  C   UNL     1      85.554  71.604  88.751  0.00  0.00    +0.000 A 
ATOM     15  C   UNL     1      84.401  72.366  88.946  0.00  0.00    +0.000 A 
ATOM     16  C   UNL     1      83.690  72.849  87.850  0.00  0.00    +0.000 A 
ATOM     17  C   UNL     1      84.130  72.570  86.558  0.00  0.00    +0.000 A 
ATOM     18  C   UNL     1      85.284  71.809  86.361  0.00  0.00    +0.000 A 
ENDBRANCH  11  13
TORSDOF 1
ENDMDL
