MODEL 1
REMARK VINA RESULT:      -5.1      0.000      0.000
REMARK  Name = *****
REMARK  2 active torsions:
REMARK  status: ('A' for Active; 'I' for Inactive)
REMARK    1  A    between atoms: C_4  and  C_7
REMARK    2  A    between atoms: C_7  and  C_8
REMARK                            x       y       z     vdW  Elec       q    Type
REMARK                         _______ _______ _______ _____ _____    ______ ____
ROOT
ATOM      1  C   UNL     1     102.762 125.834  82.122  0.00  0.00    +0.000 C 
ATOM      2  C   UNL     1     103.424 126.973  82.860  0.00  0.00    +0.000 C 
ATOM      3  C   UNL     1     102.753 128.012  83.364  0.00  0.00    +0.000 C 
ATOM      4  C   UNL     1     101.310 128.034  83.187  0.00  0.00    +0.000 A 
ATOM      5  C   UNL     1     100.550 129.122  83.629  0.00  0.00    +0.000 A 
ATOM      6  C   UNL     1      99.163 129.124  83.471  0.00  0.00    +0.000 A 
ATOM      7  C   UNL     1      98.528 128.037  82.873  0.00  0.00    +0.000 A 
ATOM      8  C   UNL     1      99.281 126.948  82.433  0.00  0.00    +0.000 A 
ATOM      9  C   UNL     1     100.669 126.948  82.585  0.00  0.00    +0.000 A 
ATOM     10  O   UNL     1     101.320 125.834  82.136  0.00  0.00    +0.000 OA
ENDROOT
BRANCH   1  11
ATOM     11  C   UNL     1     103.237 125.797  80.656  0.00  0.00    +0.000 C 
BRANCH  11  15
ATOM     12  C   UNL     1     106.396 122.922  80.026  0.00  0.00    +0.000 A 
ATOM     13  C   UNL     1     105.410 122.677  80.980  0.00  0.00    +0.000 A 
ATOM     14  C   UNL     1     104.386 123.604  81.180  0.00  0.00    +0.000 A 
ATOM     15  C   UNL     1     104.337 124.783  80.426  0.00  0.00    +0.000 A 
ATOM     16  C   UNL     1     105.338 125.023  79.473  0.00  0.00    +0.000 A 
ATOM     17  C   UNL     1     106.361 124.094  79.274  0.00  0.00    +0.000 A 
ENDBRANCH  11  15
ENDBRANCH   1  11
TORSDOF 2
ENDMDL
