MODEL 1
REMARK VINA RESULT:      -4.6      0.000      0.000
REMARK  Name = *****
REMARK  6 active torsions:
REMARK  status: ('A' for Active; 'I' for Inactive)
REMARK    1  A    between atoms: C_1  and  C_2
REMARK    2  A    between atoms: C_3  and  C_12
REMARK    3  A    between atoms: C_3  and  O_20
REMARK    4  A    between atoms: C_14  and  O_18
REMARK    5  A    between atoms: O_18  and  C_19
REMARK    6  A    between atoms: O_20  and  C_21
REMARK                            x       y       z     vdW  Elec       q    Type
REMARK                         _______ _______ _______ _____ _____    ______ ____
ROOT
ATOM      1  C   UNL     1     103.212 127.027  85.489  0.00  0.00    +0.000 C 
ATOM      2  C   UNL     1     103.700 126.858  84.051  0.00  0.00    +0.000 C 
ATOM      3  C   UNL     1     103.086 127.854  83.013  0.00  0.00    +0.000 C 
ATOM      4  O   UNL     1     103.624 127.583  81.697  0.00  0.00    +0.000 OA
ATOM      5  C   UNL     1     103.987 126.287  81.454  0.00  0.00    +0.000 A 
ATOM      6  C   UNL     1     104.425 125.998  80.162  0.00  0.00    +0.000 A 
ATOM      7  C   UNL     1     104.757 124.688  79.813  0.00  0.00    +0.000 A 
ATOM      8  C   UNL     1     104.645 123.666  80.755  0.00  0.00    +0.000 A 
ATOM      9  C   UNL     1     104.212 123.955  82.050  0.00  0.00    +0.000 A 
ATOM     10  C   UNL     1     103.900 125.266  82.401  0.00  0.00    +0.000 A 
ATOM     11  O   UNL     1     103.489 125.483  83.686  0.00  0.00    +0.000 OA
ENDROOT
BRANCH   3  12
ATOM     12  C   UNL     1     101.543 127.844  83.005  0.00  0.00    +0.000 A 
ATOM     13  C   UNL     1     100.815 128.900  83.594  0.00  0.00    +0.000 A 
ATOM     14  C   UNL     1      99.416 128.920  83.612  0.00  0.00    +0.000 A 
ATOM     15  C   UNL     1      98.713 127.867  83.036  0.00  0.00    +0.000 A 
ATOM     16  C   UNL     1      99.407 126.808  82.446  0.00  0.00    +0.000 A 
ATOM     17  C   UNL     1     100.804 126.798  82.431  0.00  0.00    +0.000 A 
BRANCH  14  18
ATOM     18  O   UNL     1      98.870 130.016  84.221  0.00  0.00    +0.000 OA
ATOM     19  C   UNL     1      99.597 131.234  84.125  0.00  0.00    +0.000 C 
ENDBRANCH  14  18
ENDBRANCH   3  12
BRANCH   3  20
ATOM     20  O   UNL     1     103.549 129.168  83.432  0.00  0.00    +0.000 OA
ATOM     21  C   UNL     1     104.893 129.456  83.065  0.00  0.00    +0.000 C 
ENDBRANCH   3  20
TORSDOF 3
ENDMDL
