REMARK  Name = *****
REMARK  7 active torsions:
REMARK  status: ('A' for Active; 'I' for Inactive)
REMARK    1  A    between atoms: C_1  and  C_2
REMARK    2  A    between atoms: C_2  and  C_4
REMARK    3  A    between atoms: C_4  and  C_5
REMARK    4  A    between atoms: C_5  and  C_6
REMARK    5  A    between atoms: C_5  and  C_8
REMARK    6  A    between atoms: C_5  and  C_14
REMARK    7  A    between atoms: C_6  and  O_7
REMARK                            x       y       z     vdW  Elec       q    Type
REMARK                         _______ _______ _______ _____ _____    ______ ____
ROOT
ATOM      1  C   UNL     1       4.964  -1.143  -0.307  0.00  0.00    +0.000 C 
ENDROOT
BRANCH   1   2
ATOM      2  C   UNL     1       5.440  -0.512   1.048  0.00  0.00    +0.000 A 
ATOM      3  C   UNL     1       5.522  -1.307   2.212  0.00  0.00    +0.000 A 
ATOM      4  C   UNL     1       5.921  -0.768   3.438  0.00  0.00    +0.000 A 
ATOM      5  C   UNL     1       6.236   0.583   3.535  0.00  0.00    +0.000 A 
ATOM      6  C   UNL     1       6.144   1.394   2.409  0.00  0.00    +0.000 A 
ATOM      7  C   UNL     1       5.745   0.854   1.181  0.00  0.00    +0.000 A 
ENDBRANCH   1   2
BRANCH   1   8
ATOM      8  C   UNL     1       5.670  -2.519  -0.496  0.00  0.00    +0.000 A 
ATOM      9  C   UNL     1       7.066  -2.565  -0.706  0.00  0.00    +0.000 A 
ATOM     10  C   UNL     1       7.740  -3.778  -0.864  0.00  0.00    +0.000 A 
ATOM     11  C   UNL     1       7.040  -4.977  -0.805  0.00  0.00    +0.000 A 
ATOM     12  C   UNL     1       5.668  -4.962  -0.576  0.00  0.00    +0.000 A 
ATOM     13  C   UNL     1       4.992  -3.748  -0.416  0.00  0.00    +0.000 A 
ENDBRANCH   1   8
BRANCH   1  14
ATOM     14  C   UNL     1       3.390  -1.210  -0.175  0.00  0.00    +0.000 C 
BRANCH  14  16
ATOM     15  C   UNL     1       1.004  -1.360  -1.040  0.00  0.00    +0.000 C 
ATOM     16  C   UNL     1       2.465  -1.616  -1.322  0.00  0.00    +0.000 C 
ATOM     17  C   UNL     1       2.827  -2.167  -2.493  0.00  0.00    +0.000 C 
ENDBRANCH  14  16
ENDBRANCH   1  14
BRANCH   1  18
ATOM     18  C   UNL     1       5.362  -0.245  -1.540  0.00  0.00    +0.000 C 
BRANCH  18  19
ATOM     19  O   UNL     1       4.528   0.899  -1.739  0.00  0.00    +0.000 OA
ATOM     20  H   UNL     1       3.621   0.609  -1.927  0.00  0.00    +0.000 HD
ENDBRANCH  18  19
ENDBRANCH   1  18
TORSDOF 6
