MODEL 1
REMARK VINA RESULT:      -5.0      0.000      0.000
REMARK  Name = *****
REMARK  4 active torsions:
REMARK  status: ('A' for Active; 'I' for Inactive)
REMARK    1  A    between atoms: C_1  and  O_2
REMARK    2  A    between atoms: O_2  and  C_3
REMARK    3  A    between atoms: C_8  and  C_9
REMARK    4  A    between atoms: C_9  and  C_10
REMARK                            x       y       z     vdW  Elec       q    Type
REMARK                         _______ _______ _______ _____ _____    ______ ____
ROOT
ATOM      1  C   UNL     1     103.991 125.946  81.912  0.00  0.00    +0.000 C 
ENDROOT
BRANCH   1   2
ATOM      2  C   UNL     1     102.794 126.249  82.819  0.00  0.00    +0.000 C 
ATOM      3  C   UNL     1     102.731 127.741  83.190  0.00  0.00    +0.000 C 
ATOM      4  C   UNL     1     101.263 127.929  83.186  0.00  0.00    +0.000 A 
ATOM      5  C   UNL     1     100.505 128.990  83.648  0.00  0.00    +0.000 A 
ATOM      6  C   UNL     1      99.121 128.942  83.459  0.00  0.00    +0.000 A 
ATOM      7  C   UNL     1      98.525 127.851  82.803  0.00  0.00    +0.000 A 
ATOM      8  C   UNL     1      99.306 126.794  82.332  0.00  0.00    +0.000 A 
ATOM      9  C   UNL     1     100.668 126.856  82.543  0.00  0.00    +0.000 A 
ATOM     10  O   UNL     1     101.557 125.902  82.126  0.00  0.00    +0.000 OA
ENDBRANCH   1   2
BRANCH   1  16
ATOM     11  C   UNL     1     104.695 123.869  80.613  0.00  0.00    +0.000 A 
ATOM     12  C   UNL     1     104.962 122.497  80.577  0.00  0.00    +0.000 A 
ATOM     13  C   UNL     1     104.832 121.718  81.730  0.00  0.00    +0.000 A 
ATOM     14  C   UNL     1     104.437 122.303  82.928  0.00  0.00    +0.000 A 
ATOM     15  C   UNL     1     104.166 123.669  82.976  0.00  0.00    +0.000 A 
ATOM     16  C   UNL     1     104.282 124.461  81.822  0.00  0.00    +0.000 A 
BRANCH  11  18
ATOM     17  C   UNL     1     105.997 124.637  78.769  0.00  0.00    +0.000 C 
ATOM     18  O   UNL     1     104.806 124.717  79.542  0.00  0.00    +0.000 OA
ENDBRANCH  11  18
ENDBRANCH   1  16
TORSDOF 3
ENDMDL
