MODEL 1
REMARK VINA RESULT:      -5.1      0.000      0.000
REMARK  Name = *****
REMARK  2 active torsions:
REMARK  status: ('A' for Active; 'I' for Inactive)
REMARK    1  A    between atoms: C_1  and  C_2
REMARK    2  A    between atoms: C_9  and  C_14
REMARK                            x       y       z     vdW  Elec       q    Type
REMARK                         _______ _______ _______ _____ _____    ______ ____
ROOT
ATOM      1  C   UNL     1      87.926  71.156  90.515  0.00  0.00    +0.000 C 
ATOM      2  C   UNL     1      87.712  70.921  89.048  0.00  0.00    +0.000 A 
ATOM      3  C   UNL     1      88.573  70.083  88.330  0.00  0.00    +0.000 A 
ATOM      4  C   UNL     1      88.346  69.846  86.970  0.00  0.00    +0.000 A 
ATOM      5  C   UNL     1      87.270  70.442  86.318  0.00  0.00    +0.000 A 
ATOM      6  C   UNL     1      86.390  71.249  87.035  0.00  0.00    +0.000 A 
ATOM      7  C   UNL     1      86.609  71.487  88.394  0.00  0.00    +0.000 A 
ATOM      8  O   UNL     1      86.995  70.271  84.989  0.00  0.00    +0.000 OA
ATOM      9  C   UNL     1      88.119  69.847  84.182  0.00  0.00    +0.000 C 
ATOM     10  C   UNL     1      88.771  68.611  84.807  0.00  0.00    +0.000 C 
ATOM     11  C   UNL     1      89.217  68.933  86.209  0.00  0.00    +0.000 C 
ATOM     12  O   UNL     1      90.208  68.438  86.739  0.00  0.00    +0.000 OA
ATOM     13  F   UNL     1      89.789  68.145  84.024  0.00  0.00    +0.000 F 
ATOM     14  F   UNL     1      87.537  69.413  83.015  0.00  0.00    +0.000 F 
ENDROOT
BRANCH   9  15
ATOM     15  C   UNL     1      89.006  71.059  83.873  0.00  0.00    +0.000 A 
ATOM     16  C   UNL     1      90.394  70.979  83.683  0.00  0.00    +0.000 A 
ATOM     17  C   UNL     1      91.146  72.124  83.402  0.00  0.00    +0.000 A 
ATOM     18  C   UNL     1      90.525  73.364  83.296  0.00  0.00    +0.000 A 
ATOM     19  C   UNL     1      89.147  73.464  83.461  0.00  0.00    +0.000 A 
ATOM     20  C   UNL     1      88.394  72.323  83.740  0.00  0.00    +0.000 A 
ENDBRANCH   9  15
TORSDOF 1
ENDMDL
