MODEL 1
REMARK VINA RESULT:      -5.3      0.000      0.000
REMARK  Name = *****
REMARK  3 active torsions:
REMARK  status: ('A' for Active; 'I' for Inactive)
REMARK    1  A    between atoms: C_1  and  C_2
REMARK    2  A    between atoms: C_4  and  C_13
REMARK    3  A    between atoms: C_9  and  C_12
REMARK                            x       y       z     vdW  Elec       q    Type
REMARK                         _______ _______ _______ _____ _____    ______ ____
ROOT
ATOM      1  C   UNL     1      90.217  71.021  84.918  0.00  0.00    +0.000 C 
ATOM      2  C   UNL     1      89.036  70.098  84.601  0.00  0.00    +0.000 C 
ATOM      3  C   UNL     1      87.695  70.770  84.903  0.00  0.00    +0.000 C 
ATOM      4  C   UNL     1      87.410  70.722  86.404  0.00  0.00    +0.000 C 
ATOM      5  O   UNL     1      87.310  69.372  86.879  0.00  0.00    +0.000 OA
ATOM      6  C   UNL     1      88.291  68.525  86.442  0.00  0.00    +0.000 A 
ATOM      7  C   UNL     1      89.141  68.800  85.366  0.00  0.00    +0.000 A 
ATOM      8  C   UNL     1      90.098  67.840  84.991  0.00  0.00    +0.000 A 
ATOM      9  C   UNL     1      90.204  66.622  85.675  0.00  0.00    +0.000 A 
ATOM     10  C   UNL     1      89.336  66.362  86.740  0.00  0.00    +0.000 A 
ATOM     11  C   UNL     1      88.383  67.308  87.117  0.00  0.00    +0.000 A 
ATOM     12  C   UNL     1      91.222  65.596  85.273  0.00  0.00    +0.000 C 
ENDROOT
BRANCH   4  13
ATOM     13  C   UNL     1      86.114  71.454  86.718  0.00  0.00    +0.000 A 
ATOM     14  C   UNL     1      85.674  71.626  88.040  0.00  0.00    +0.000 A 
ATOM     15  C   UNL     1      84.467  72.275  88.309  0.00  0.00    +0.000 A 
ATOM     16  C   UNL     1      83.683  72.754  87.261  0.00  0.00    +0.000 A 
ATOM     17  C   UNL     1      84.105  72.584  85.944  0.00  0.00    +0.000 A 
ATOM     18  C   UNL     1      85.311  71.936  85.673  0.00  0.00    +0.000 A 
ENDBRANCH   4  13
TORSDOF 1
ENDMDL
