MODEL 1
REMARK VINA RESULT:      -4.3      0.000      0.000
REMARK  Name = *****
REMARK  6 active torsions:
REMARK  status: ('A' for Active; 'I' for Inactive)
REMARK    1  A    between atoms: C_1  and  C_2
REMARK    2  A    between atoms: C_2  and  O_3
REMARK    3  A    between atoms: O_3  and  C_4
REMARK    4  A    between atoms: C_4  and  C_5
REMARK    5  A    between atoms: C_4  and  O_11
REMARK    6  A    between atoms: O_11  and  C_12
REMARK                            x       y       z     vdW  Elec       q    Type
REMARK                         _______ _______ _______ _____ _____    ______ ____
ROOT
ATOM      1  C   UNL     1      87.304  70.564  87.925  0.00  0.00    +0.000 C 
ENDROOT
BRANCH   1   2
ATOM      2  C   UNL     1      86.316  71.270  87.009  0.00  0.00    +0.000 A 
ATOM      3  C   UNL     1      86.542  71.327  85.624  0.00  0.00    +0.000 A 
ATOM      4  C   UNL     1      85.636  71.974  84.782  0.00  0.00    +0.000 A 
ATOM      5  C   UNL     1      84.493  72.566  85.313  0.00  0.00    +0.000 A 
ATOM      6  C   UNL     1      84.252  72.511  86.685  0.00  0.00    +0.000 A 
ATOM      7  C   UNL     1      85.156  71.863  87.529  0.00  0.00    +0.000 A 
ENDBRANCH   1   2
BRANCH   1   8
ATOM      8  O   UNL     1      87.774  71.471  88.930  0.00  0.00    +0.000 OA
BRANCH   8  10
ATOM      9  C   UNL     1      86.751  70.071  90.563  0.00  0.00    +0.000 C 
ATOM     10  C   UNL     1      88.005  70.835  90.184  0.00  0.00    +0.000 C 
ENDBRANCH   8  10
ENDBRANCH   1   8
BRANCH   1  11
ATOM     11  O   UNL     1      88.375  70.115  87.086  0.00  0.00    +0.000 OA
BRANCH  11  12
ATOM     12  C   UNL     1      88.620  68.773  87.004  0.00  0.00    +0.000 A 
ATOM     13  C   UNL     1      89.693  68.167  86.354  0.00  0.00    +0.000 A 
ATOM     14  C   UNL     1      89.807  66.774  86.353  0.00  0.00    +0.000 A 
ATOM     15  C   UNL     1      88.859  65.978  86.994  0.00  0.00    +0.000 A 
ATOM     16  C   UNL     1      87.782  66.581  87.638  0.00  0.00    +0.000 A 
ATOM     17  C   UNL     1      87.665  67.972  87.641  0.00  0.00    +0.000 A 
ATOM     18 CL   UNL     1      91.137  66.030  85.551  0.00  0.00    +0.000 Cl
ENDBRANCH  11  12
ENDBRANCH   1  11
TORSDOF 5
ENDMDL
