MODEL 1
REMARK VINA RESULT:      -4.9      0.000      0.000
REMARK  Name = *****
REMARK  4 active torsions:
REMARK  status: ('A' for Active; 'I' for Inactive)
REMARK    1  A    between atoms: C_6  and  C_7
REMARK    2  A    between atoms: C_7  and  C_8
REMARK    3  A    between atoms: C_7  and  O_17
REMARK    4  A    between atoms: C_8  and  C_9
REMARK                            x       y       z     vdW  Elec       q    Type
REMARK                         _______ _______ _______ _____ _____    ______ ____
ROOT
ATOM      1  C   UNL     1      88.667  70.120  87.113  0.00  0.00    +0.000 C 
ENDROOT
BRANCH   1   7
ATOM      2  C   UNL     1      87.902  67.735  87.471  0.00  0.00    +0.000 A 
ATOM      3  C   UNL     1      88.068  66.353  87.352  0.00  0.00    +0.000 A 
ATOM      4  C   UNL     1      89.189  65.850  86.707  0.00  0.00    +0.000 A 
ATOM      5  C   UNL     1      90.150  66.701  86.177  0.00  0.00    +0.000 A 
ATOM      6  C   UNL     1      89.988  68.083  86.295  0.00  0.00    +0.000 A 
ATOM      7  C   UNL     1      88.860  68.619  86.941  0.00  0.00    +0.000 A 
ATOM      8  F   UNL     1      89.347  64.524  86.595  0.00  0.00    +0.000 F 
ENDBRANCH   1   7
BRANCH   1   9
ATOM      9  C   UNL     1      87.652  70.460  88.244  0.00  0.00    +0.000 C 
ATOM     10 CL   UNL     1      88.441  71.402  89.561  0.00  0.00    +0.000 Cl
BRANCH   9  11
ATOM     11  C   UNL     1      86.422  71.225  87.777  0.00  0.00    +0.000 A 
ATOM     12  C   UNL     1      85.453  71.708  88.675  0.00  0.00    +0.000 A 
ATOM     13  C   UNL     1      84.331  72.398  88.210  0.00  0.00    +0.000 A 
ATOM     14  C   UNL     1      84.169  72.606  86.848  0.00  0.00    +0.000 A 
ATOM     15  C   UNL     1      85.104  72.133  85.938  0.00  0.00    +0.000 A 
ATOM     16  C   UNL     1      86.226  71.441  86.399  0.00  0.00    +0.000 A 
ATOM     17  F   UNL     1      83.093  73.270  86.404  0.00  0.00    +0.000 F 
ENDBRANCH   9  11
ENDBRANCH   1   9
BRANCH   1  18
ATOM     18  O   UNL     1      89.940  70.755  87.291  0.00  0.00    +0.000 OA
ATOM     19  H   UNL     1      89.843  71.713  87.177  0.00  0.00    +0.000 HD
ENDBRANCH   1  18
TORSDOF 4
ENDMDL
