MODEL 1
REMARK VINA RESULT:      -4.8      0.000      0.000
REMARK  Name = *****
REMARK  2 active torsions:
REMARK  status: ('A' for Active; 'I' for Inactive)
REMARK    1  A    between atoms: C_1  and  C_2
REMARK    2  A    between atoms: C_3  and  C_11
REMARK                            x       y       z     vdW  Elec       q    Type
REMARK                         _______ _______ _______ _____ _____    ______ ____
ROOT
ATOM      1  C   UNL     1     103.523 128.195  82.285  0.00  0.00    +0.000 C 
ATOM      2  C   UNL     1     102.691 127.398  83.288  0.00  0.00    +0.000 C 
ATOM      3  C   UNL     1     102.388 125.927  82.895  0.00  0.00    +0.000 C 
ATOM      4  O   UNL     1     101.133 125.906  82.155  0.00  0.00    +0.000 OA
ATOM      5  C   UNL     1     100.470 127.009  82.628  0.00  0.00    +0.000 A 
ATOM      6  C   UNL     1      99.126 127.251  82.434  0.00  0.00    +0.000 A 
ATOM      7  C   UNL     1      98.591 128.423  82.972  0.00  0.00    +0.000 A 
ATOM      8  C   UNL     1      99.408 129.324  83.676  0.00  0.00    +0.000 A 
ATOM      9  C   UNL     1     100.771 129.067  83.847  0.00  0.00    +0.000 A 
ATOM     10  C   UNL     1     101.287 127.898  83.315  0.00  0.00    +0.000 A 
ENDROOT
BRANCH   3  11
ATOM     11  C   UNL     1     103.496 125.205  82.158  0.00  0.00    +0.000 A 
ATOM     12  C   UNL     1     104.535 124.601  82.885  0.00  0.00    +0.000 A 
ATOM     13  C   UNL     1     105.578 123.947  82.227  0.00  0.00    +0.000 A 
ATOM     14  C   UNL     1     105.598 123.890  80.836  0.00  0.00    +0.000 A 
ATOM     15  C   UNL     1     104.576 124.487  80.101  0.00  0.00    +0.000 A 
ATOM     16  C   UNL     1     103.532 125.141  80.757  0.00  0.00    +0.000 A 
ENDBRANCH   3  11
TORSDOF 1
ENDMDL
