MODEL 1
REMARK VINA RESULT:      -4.5      0.000      0.000
REMARK  Name = *****
REMARK  1 active torsions:
REMARK  status: ('A' for Active; 'I' for Inactive)
REMARK    1  A    between atoms: C_4  and  C_7
REMARK                            x       y       z     vdW  Elec       q    Type
REMARK                         _______ _______ _______ _____ _____    ______ ____
ROOT
ATOM      1  C   UNL     1     101.427 126.532  83.146  0.00  0.00    +0.000 C 
ATOM      2  O   UNL     1     102.133 127.585  83.855  0.00  0.00    +0.000 OA
ATOM      3  C   UNL     1     101.322 128.688  83.942  0.00  0.00    +0.000 A 
ATOM      4  C   UNL     1     101.784 129.861  84.520  0.00  0.00    +0.000 A 
ATOM      5  C   UNL     1     100.929 130.964  84.571  0.00  0.00    +0.000 A 
ATOM      6  C   UNL     1      99.630 130.878  84.052  0.00  0.00    +0.000 A 
ATOM      7  C   UNL     1      99.175 129.689  83.478  0.00  0.00    +0.000 A 
ATOM      8  C   UNL     1     100.034 128.602  83.431  0.00  0.00    +0.000 A 
ATOM      9  S   UNL     1      99.716 127.020  82.756  0.00  0.00    +0.000 S 
ENDROOT
BRANCH   1  13
ATOM     10  C   UNL     1     104.765 125.731  80.351  0.00  0.00    +0.000 C 
ATOM     11  C   UNL     1     104.050 124.546  80.990  0.00  0.00    +0.000 C 
ATOM     12  C   UNL     1     103.265 124.962  82.232  0.00  0.00    +0.000 C 
ATOM     13  C   UNL     1     102.280 126.109  81.925  0.00  0.00    +0.000 C 
ATOM     14  C   UNL     1     103.011 127.296  81.274  0.00  0.00    +0.000 C 
ATOM     15  C   UNL     1     103.795 126.864  80.036  0.00  0.00    +0.000 C 
ENDBRANCH   1  13
TORSDOF 1
ENDMDL
