MODEL 1
REMARK VINA RESULT:      -5.0      0.000      0.000
REMARK  Name = *****
REMARK  3 active torsions:
REMARK  status: ('A' for Active; 'I' for Inactive)
REMARK    1  A    between atoms: C_1  and  C_2
REMARK    2  A    between atoms: C_3  and  C_13
REMARK    3  A    between atoms: N_11  and  C_12
REMARK                            x       y       z     vdW  Elec       q    Type
REMARK                         _______ _______ _______ _____ _____    ______ ____
ROOT
ATOM      1  C   UNL     1      90.061  70.366  84.567  0.00  0.00    +0.000 C 
ATOM      2  C   UNL     1      89.089  70.798  85.664  0.00  0.00    +0.000 C 
ATOM      3  C   UNL     1      89.187  69.967  86.973  0.00  0.00    +0.000 C 
ATOM      4  O   UNL     1      88.353  70.512  88.016  0.00  0.00    +0.000 OA
ATOM      5  C   UNL     1      87.180  71.087  87.590  0.00  0.00    +0.000 A 
ATOM      6  C   UNL     1      86.309  71.461  88.619  0.00  0.00    +0.000 A 
ATOM      7  C   UNL     1      85.068  72.018  88.322  0.00  0.00    +0.000 A 
ATOM      8  C   UNL     1      84.698  72.206  86.994  0.00  0.00    +0.000 A 
ATOM      9  C   UNL     1      85.570  71.839  85.966  0.00  0.00    +0.000 A 
ATOM     10  C   UNL     1      86.825  71.270  86.239  0.00  0.00    +0.000 A 
ATOM     11  N   UNL     1      87.699  70.944  85.173  0.00  0.00    +0.000 N 
ATOM     12  C   UNL     1      87.151  69.946  84.254  0.00  0.00    +0.000 C 
ENDROOT
BRANCH   3  13
ATOM     13  C   UNL     1      89.039  68.451  86.870  0.00  0.00    +0.000 A 
ATOM     14  C   UNL     1      90.084  67.685  86.322  0.00  0.00    +0.000 A 
ATOM     15  C   UNL     1      89.981  66.296  86.215  0.00  0.00    +0.000 A 
ATOM     16  C   UNL     1      88.834  65.647  86.661  0.00  0.00    +0.000 A 
ATOM     17  C   UNL     1      87.794  66.385  87.219  0.00  0.00    +0.000 A 
ATOM     18  C   UNL     1      87.897  67.774  87.325  0.00  0.00    +0.000 A 
ENDBRANCH   3  13
TORSDOF 1
ENDMDL
