MODEL 1
REMARK VINA RESULT:      -5.2      0.000      0.000
REMARK  Name = *****
REMARK  2 active torsions:
REMARK  status: ('A' for Active; 'I' for Inactive)
REMARK    1  A    between atoms: C_3  and  C_13
REMARK    2  A    between atoms: C_3  and  O_19
REMARK                            x       y       z     vdW  Elec       q    Type
REMARK                         _______ _______ _______ _____ _____    ______ ____
ROOT
ATOM      1  C   UNL     1      86.578  68.266  88.375  0.00  0.00    +0.000 C 
ATOM      2  C   UNL     1      86.929  69.471  89.237  0.00  0.00    +0.000 C 
ATOM      3  C   UNL     1      87.485  70.627  88.396  0.00  0.00    +0.000 C 
ATOM      4  C   UNL     1      88.740  70.147  87.649  0.00  0.00    +0.000 C 
ATOM      5  O   UNL     1      89.684  70.901  87.409  0.00  0.00    +0.000 OA
ATOM      6  C   UNL     1      88.770  68.734  87.175  0.00  0.00    +0.000 A 
ATOM      7  C   UNL     1      87.741  67.843  87.517  0.00  0.00    +0.000 A 
ATOM      8  C   UNL     1      87.784  66.531  87.015  0.00  0.00    +0.000 A 
ATOM      9  C   UNL     1      88.847  66.120  86.211  0.00  0.00    +0.000 A 
ATOM     10  C   UNL     1      89.877  67.001  85.889  0.00  0.00    +0.000 A 
ATOM     11  C   UNL     1      89.837  68.311  86.370  0.00  0.00    +0.000 A 
ATOM     12 BR   UNL     1      88.892  64.349  85.551  0.00  0.00    +0.000 Br
ENDROOT
BRANCH   3  13
ATOM     13  C   UNL     1      86.424  71.271  87.502  0.00  0.00    +0.000 A 
ATOM     14  C   UNL     1      85.286  71.855  88.092  0.00  0.00    +0.000 A 
ATOM     15  C   UNL     1      84.283  72.437  87.315  0.00  0.00    +0.000 A 
ATOM     16  C   UNL     1      84.397  72.451  85.929  0.00  0.00    +0.000 A 
ATOM     17  C   UNL     1      85.518  71.889  85.324  0.00  0.00    +0.000 A 
ATOM     18  C   UNL     1      86.523  71.307  86.101  0.00  0.00    +0.000 A 
ENDBRANCH   3  13
BRANCH   3  19
ATOM     19  O   UNL     1      87.923  71.643  89.315  0.00  0.00    +0.000 OA
ATOM     20  H   UNL     1      88.891  71.704  89.292  0.00  0.00    +0.000 HD
ENDBRANCH   3  19
TORSDOF 2
ENDMDL
