REMARK  Name = *****
REMARK  1 active torsions:
REMARK  status: ('A' for Active; 'I' for Inactive)
REMARK    1  A    between atoms: C_4  and  C_7
REMARK                            x       y       z     vdW  Elec       q    Type
REMARK                         _______ _______ _______ _____ _____    ______ ____
ROOT
ATOM      1  C   UNL     1       2.689  -0.789  -0.297  0.00  0.00    +0.000 C 
ATOM      2  C   UNL     1       2.791  -0.687  -1.822  0.00  0.00    +0.000 C 
ATOM      3  C   UNL     1       1.841  -1.668  -2.489  0.00  0.00    +0.000 C 
ATOM      4  C   UNL     1       1.935  -3.012  -1.830  0.00  0.00    +0.000 A 
ATOM      5  C   UNL     1       1.407  -4.144  -2.467  0.00  0.00    +0.000 A 
ATOM      6  C   UNL     1       1.491  -5.399  -1.862  0.00  0.00    +0.000 A 
ATOM      7  C   UNL     1       2.100  -5.532  -0.615  0.00  0.00    +0.000 A 
ATOM      8  C   UNL     1       2.617  -4.409   0.029  0.00  0.00    +0.000 A 
ATOM      9  C   UNL     1       2.522  -3.152  -0.568  0.00  0.00    +0.000 A 
ATOM     10  O   UNL     1       3.054  -2.110   0.144  0.00  0.00    +0.000 OA
ENDROOT
BRANCH   1  14
ATOM     11  C   UNL     1      -0.315   1.363   2.103  0.00  0.00    +0.000 C 
ATOM     12  C   UNL     1      -0.397   1.480   0.586  0.00  0.00    +0.000 C 
ATOM     13  C   UNL     1       0.901   1.044  -0.090  0.00  0.00    +0.000 C 
ATOM     14  C   UNL     1       1.327  -0.374   0.328  0.00  0.00    +0.000 C 
ATOM     15  C   UNL     1       1.386  -0.485   1.867  0.00  0.00    +0.000 C 
ATOM     16  C   UNL     1       0.082  -0.045   2.527  0.00  0.00    +0.000 C 
ENDBRANCH   1  14
TORSDOF 1
