MODEL 1
REMARK VINA RESULT:      -4.3      0.000      0.000
REMARK  Name = *****
REMARK  5 active torsions:
REMARK  status: ('A' for Active; 'I' for Inactive)
REMARK    1  A    between atoms: C_1  and  N_2
REMARK    2  A    between atoms: N_2  and  C_3
REMARK    3  A    between atoms: N_2  and  S_11
REMARK    4  A    between atoms: C_3  and  C_4
REMARK    5  A    between atoms: S_11  and  C_14
REMARK                            x       y       z     vdW  Elec       q    Type
REMARK                         _______ _______ _______ _____ _____    ______ ____
ROOT
ATOM      1  C   UNL     1      87.350  66.410  84.895  0.00  0.00    +0.000 C 
ATOM      2  N   UNL     1      88.534  66.069  85.718  0.00  0.00    +0.000 NA
ENDROOT
BRANCH   2   3
ATOM      3  S   UNL     1      89.965  66.875  85.253  0.00  0.00    +0.000 S 
ATOM      4  O   UNL     1      91.054  66.404  86.081  0.00  0.00    +0.000 OA
ATOM      5  O   UNL     1      90.043  66.820  83.808  0.00  0.00    +0.000 OA
BRANCH   3   6
ATOM      6  C   UNL     1      89.798  68.602  85.640  0.00  0.00    +0.000 A 
ATOM      7  C   UNL     1      89.597  69.270  86.833  0.00  0.00    +0.000 A 
ATOM      8  C   UNL     1      89.527  70.682  86.658  0.00  0.00    +0.000 A 
ATOM      9  C   UNL     1      89.675  71.044  85.337  0.00  0.00    +0.000 A 
ATOM     10  S   UNL     1      89.897  69.687  84.319  0.00  0.00    +0.000 S 
ENDBRANCH   3   6
ENDBRANCH   2   3
BRANCH   2  11
ATOM     11  C   UNL     1      88.732  64.600  85.843  0.00  0.00    +0.000 C 
BRANCH  11  12
ATOM     12  C   UNL     1      88.169  64.034  87.130  0.00  0.00    +0.000 A 
ATOM     13  C   UNL     1      88.472  64.625  88.367  0.00  0.00    +0.000 A 
ATOM     14  C   UNL     1      87.942  64.098  89.547  0.00  0.00    +0.000 A 
ATOM     15  C   UNL     1      87.110  62.987  89.490  0.00  0.00    +0.000 A 
ATOM     16  C   UNL     1      86.793  62.390  88.276  0.00  0.00    +0.000 A 
ATOM     17  C   UNL     1      87.321  62.914  87.096  0.00  0.00    +0.000 A 
ATOM     18  F   UNL     1      86.605  62.484  90.624  0.00  0.00    +0.000 F 
ENDBRANCH  11  12
ENDBRANCH   2  11
TORSDOF 4
ENDMDL
