MODEL 1
REMARK VINA RESULT:      -4.6      0.000      0.000
REMARK  Name = *****
REMARK  6 active torsions:
REMARK  status: ('A' for Active; 'I' for Inactive)
REMARK    1  A    between atoms: C_1  and  C_2
REMARK    2  A    between atoms: C_2  and  O_3
REMARK    3  A    between atoms: O_3  and  C_4
REMARK    4  A    between atoms: C_4  and  C_16
REMARK    5  A    between atoms: C_5  and  C_14
REMARK    6  A    between atoms: C_5  and  C_15
REMARK                            x       y       z     vdW  Elec       q    Type
REMARK                         _______ _______ _______ _____ _____    ______ ____
ROOT
ATOM      1  C   UNL     1      87.012  65.214  87.379  0.00  0.00    +0.000 C 
ATOM      2  C   UNL     1      87.232  66.703  86.895  0.00  0.00    +0.000 C 
ATOM      3  O   UNL     1      88.630  67.043  86.763  0.00  0.00    +0.000 OA
ATOM      4  C   UNL     1      89.387  66.029  86.242  0.00  0.00    +0.000 A 
ATOM      5  C   UNL     1      90.681  66.365  85.847  0.00  0.00    +0.000 A 
ATOM      6  C   UNL     1      91.516  65.394  85.292  0.00  0.00    +0.000 A 
ATOM      7  C   UNL     1      91.055  64.087  85.134  0.00  0.00    +0.000 A 
ATOM      8  C   UNL     1      89.763  63.749  85.539  0.00  0.00    +0.000 A 
ATOM      9  C   UNL     1      88.934  64.717  86.105  0.00  0.00    +0.000 A 
ATOM     10  O   UNL     1      87.691  64.298  86.491  0.00  0.00    +0.000 OA
ATOM     11  C   UNL     1      86.582  66.970  85.513  0.00  0.00    +0.000 C 
ATOM     12  C   UNL     1      86.610  67.730  87.863  0.00  0.00    +0.000 C 
ENDROOT
BRANCH   1  13
ATOM     13  C   UNL     1      87.461  64.833  88.811  0.00  0.00    +0.000 A 
ATOM     14  C   UNL     1      86.604  65.089  89.903  0.00  0.00    +0.000 A 
ATOM     15  C   UNL     1      86.947  64.729  91.209  0.00  0.00    +0.000 A 
ATOM     16  C   UNL     1      88.156  64.091  91.460  0.00  0.00    +0.000 A 
ATOM     17  C   UNL     1      89.014  63.807  90.402  0.00  0.00    +0.000 A 
ATOM     18  C   UNL     1      88.667  64.168  89.095  0.00  0.00    +0.000 A 
ENDBRANCH   1  13
BRANCH   1  19
ATOM     19  O   UNL     1      85.568  65.004  87.367  0.00  0.00    +0.000 OA
BRANCH  19  21
ATOM     20  C   UNL     1      84.279  63.042  87.754  0.00  0.00    +0.000 C 
ATOM     21  C   UNL     1      85.133  63.795  86.752  0.00  0.00    +0.000 C 
ENDBRANCH  19  21
ENDBRANCH   1  19
TORSDOF 3
ENDMDL
