MODEL 1
REMARK VINA RESULT:      -4.9      0.000      0.000
REMARK  Name = *****
REMARK  4 active torsions:
REMARK  status: ('A' for Active; 'I' for Inactive)
REMARK    1  A    between atoms: C_1  and  C_2
REMARK    2  A    between atoms: C_11  and  C_12
REMARK    3  A    between atoms: C_11  and  C_14
REMARK    4  A    between atoms: C_12  and  O_13
REMARK                            x       y       z     vdW  Elec       q    Type
REMARK                         _______ _______ _______ _____ _____    ______ ____
ROOT
ATOM      1  C   UNL     1     105.421 128.824  82.450  0.00  0.00    +0.000 C 
ATOM      2  C   UNL     1     103.963 128.472  82.120  0.00  0.00    +0.000 C 
ATOM      3  C   UNL     1     103.888 128.238  80.629  0.00  0.00    +0.000 C 
ATOM      4  C   UNL     1     103.943 127.012  80.097  0.00  0.00    +0.000 C 
ATOM      5  C   UNL     1     104.059 125.836  80.961  0.00  0.00    +0.000 A 
ATOM      6  C   UNL     1     104.412 124.607  80.386  0.00  0.00    +0.000 A 
ATOM      7  C   UNL     1     104.461 123.449  81.160  0.00  0.00    +0.000 A 
ATOM      8  C   UNL     1     104.135 123.505  82.509  0.00  0.00    +0.000 A 
ATOM      9  C   UNL     1     103.775 124.722  83.093  0.00  0.00    +0.000 A 
ATOM     10  C   UNL     1     103.758 125.914  82.341  0.00  0.00    +0.000 A 
ATOM     11  C   UNL     1     103.325 127.276  82.959  0.00  0.00    +0.000 C 
ENDROOT
BRANCH  11  12
ATOM     12  C   UNL     1     101.763 127.450  82.935  0.00  0.00    +0.000 A 
ATOM     13  C   UNL     1     101.168 128.620  83.453  0.00  0.00    +0.000 A 
ATOM     14  C   UNL     1      99.781 128.801  83.449  0.00  0.00    +0.000 A 
ATOM     15  C   UNL     1      98.952 127.819  82.923  0.00  0.00    +0.000 A 
ATOM     16  C   UNL     1      99.510 126.659  82.396  0.00  0.00    +0.000 A 
ATOM     17  C   UNL     1     100.897 126.477  82.400  0.00  0.00    +0.000 A 
ENDBRANCH  11  12
BRANCH  11  18
ATOM     18  C   UNL     1     103.763 127.365  84.469  0.00  0.00    +0.000 C 
BRANCH  18  19
ATOM     19  O   UNL     1     102.853 126.789  85.410  0.00  0.00    +0.000 OA
ATOM     20  H   UNL     1     102.115 126.377  84.934  0.00  0.00    +0.000 HD
ENDBRANCH  18  19
ENDBRANCH  11  18
TORSDOF 3
ENDMDL
