MODEL 1
REMARK VINA RESULT:      -4.9      0.000      0.000
REMARK  Name = *****
REMARK  3 active torsions:
REMARK  status: ('A' for Active; 'I' for Inactive)
REMARK    1  A    between atoms: C_1  and  C_2
REMARK    2  A    between atoms: C_2  and  C_3
REMARK    3  A    between atoms: C_5  and  C_13
REMARK                            x       y       z     vdW  Elec       q    Type
REMARK                         _______ _______ _______ _____ _____    ______ ____
ROOT
ATOM      1  C   UNL     1      96.848 115.986  77.322  0.00  0.00    +0.000 C 
ATOM      2  C   UNL     1      97.592 116.635  78.497  0.00  0.00    +0.000 C 
ATOM      3  C   UNL     1      96.618 116.904  79.647  0.00  0.00    +0.000 C 
ATOM      4  O   UNL     1      96.014 115.702  80.143  0.00  0.00    +0.000 OA
ATOM      5  C   UNL     1      95.674 114.765  79.207  0.00  0.00    +0.000 A 
ATOM      6  C   UNL     1      94.948 113.676  79.693  0.00  0.00    +0.000 A 
ATOM      7  C   UNL     1      94.590 112.630  78.845  0.00  0.00    +0.000 A 
ATOM      8  C   UNL     1      94.970 112.667  77.506  0.00  0.00    +0.000 A 
ATOM      9  C   UNL     1      95.702 113.751  77.018  0.00  0.00    +0.000 A 
ATOM     10  C   UNL     1      96.052 114.820  77.860  0.00  0.00    +0.000 A 
ENDROOT
BRANCH   3  11
ATOM     11  C   UNL     1      97.339 117.598  80.793  0.00  0.00    +0.000 A 
ATOM     12  C   UNL     1      97.188 117.127  82.106  0.00  0.00    +0.000 A 
ATOM     13  C   UNL     1      97.822 117.772  83.170  0.00  0.00    +0.000 A 
ATOM     14  C   UNL     1      98.611 118.897  82.934  0.00  0.00    +0.000 A 
ATOM     15  C   UNL     1      98.765 119.378  81.636  0.00  0.00    +0.000 A 
ATOM     16  C   UNL     1      98.131 118.735  80.572  0.00  0.00    +0.000 A 
ENDBRANCH   3  11
BRANCH   1  18
ATOM     17  C   UNL     1      96.419 117.319  75.159  0.00  0.00    +0.000 C 
ATOM     18  C   UNL     1      95.970 117.025  76.586  0.00  0.00    +0.000 C 
ENDBRANCH   1  18
TORSDOF 2
ENDMDL
