MODEL 1
REMARK VINA RESULT:      -5.7      0.000      0.000
REMARK  Name = *****
REMARK  0 active torsions:
REMARK  status: ('A' for Active; 'I' for Inactive)
REMARK                            x       y       z     vdW  Elec       q    Type
REMARK                         _______ _______ _______ _____ _____    ______ ____
ROOT
ATOM      1  C   UNL     1     102.769 128.273  83.502  0.00  0.00    +0.000 C 
ATOM      2  C   UNL     1     103.485 126.930  83.505  0.00  0.00    +0.000 C 
ATOM      3  C   UNL     1     103.025 126.114  82.300  0.00  0.00    +0.000 C 
ATOM      4  C   UNL     1     103.731 124.795  82.180  0.00  0.00    +0.000 A 
ATOM      5  C   UNL     1     103.960 123.809  83.128  0.00  0.00    +0.000 A 
ATOM      6  C   UNL     1     104.634 122.650  82.733  0.00  0.00    +0.000 A 
ATOM      7  C   UNL     1     105.056 122.488  81.405  0.00  0.00    +0.000 A 
ATOM      8  C   UNL     1     104.808 123.480  80.455  0.00  0.00    +0.000 A 
ATOM      9  C   UNL     1     104.150 124.627  80.865  0.00  0.00    +0.000 A 
ATOM     10  C   UNL     1     103.734 125.811  80.073  0.00  0.00    +0.000 C 
ATOM     11  O   UNL     1     103.412 126.797  81.075  0.00  0.00    +0.000 OA
ATOM     12  O   UNL     1     101.619 125.843  82.328  0.00  0.00    +0.000 OA
ATOM     13  C   UNL     1     100.824 126.903  82.668  0.00  0.00    +0.000 A 
ATOM     14  C   UNL     1      99.457 126.737  82.436  0.00  0.00    +0.000 A 
ATOM     15  C   UNL     1      98.563 127.761  82.750  0.00  0.00    +0.000 A 
ATOM     16  C   UNL     1      99.035 128.950  83.300  0.00  0.00    +0.000 A 
ATOM     17  C   UNL     1     100.400 129.112  83.545  0.00  0.00    +0.000 A 
ATOM     18  C   UNL     1     101.303 128.084  83.244  0.00  0.00    +0.000 A 
ENDROOT
TORSDOF 0
ENDMDL
