MODEL 1
REMARK VINA RESULT:      -5.2      0.000      0.000
REMARK  Name = *****
REMARK  3 active torsions:
REMARK  status: ('A' for Active; 'I' for Inactive)
REMARK    1  A    between atoms: C_6  and  O_9
REMARK    2  A    between atoms: O_9  and  C_10
REMARK    3  A    between atoms: C_10  and  C_11
REMARK                            x       y       z     vdW  Elec       q    Type
REMARK                         _______ _______ _______ _____ _____    ______ ____
ROOT
ATOM      1  C   UNL     1     104.692 121.587  81.127  0.00  0.00    +0.000 C 
ATOM      2  C   UNL     1     105.179 122.779  80.312  0.00  0.00    +0.000 C 
ATOM      3  C   UNL     1     104.520 124.053  80.767  0.00  0.00    +0.000 A 
ATOM      4  C   UNL     1     104.069 124.211  82.086  0.00  0.00    +0.000 A 
ATOM      5  C   UNL     1     103.475 125.412  82.491  0.00  0.00    +0.000 A 
ATOM      6  C   UNL     1     103.329 126.471  81.592  0.00  0.00    +0.000 A 
ATOM      7  C   UNL     1     103.794 126.326  80.285  0.00  0.00    +0.000 A 
ATOM      8  C   UNL     1     104.389 125.127  79.876  0.00  0.00    +0.000 A 
ATOM      9  C   UNL     1     104.223 123.107  83.072  0.00  0.00    +0.000 C 
ATOM     10  O   UNL     1     103.865 123.257  84.237  0.00  0.00    +0.000 OA
ATOM     11  C   UNL     1     104.897 121.833  82.613  0.00  0.00    +0.000 C 
ENDROOT
BRANCH   6  12
ATOM     12  O   UNL     1     102.730 127.582  82.114  0.00  0.00    +0.000 OA
BRANCH  12  13
ATOM     13  C   UNL     1     102.245 127.495  83.455  0.00  0.00    +0.000 C 
BRANCH  13  14
ATOM     14  C   UNL     1     100.732 127.469  83.438  0.00  0.00    +0.000 A 
ATOM     15  C   UNL     1     100.045 126.769  82.433  0.00  0.00    +0.000 A 
ATOM     16  C   UNL     1      98.650 126.714  82.438  0.00  0.00    +0.000 A 
ATOM     17  C   UNL     1      97.940 127.350  83.450  0.00  0.00    +0.000 A 
ATOM     18  C   UNL     1      98.599 128.039  84.460  0.00  0.00    +0.000 A 
ATOM     19  C   UNL     1      99.994 128.094  84.457  0.00  0.00    +0.000 A 
ATOM     20  F   UNL     1      96.602 127.294  83.452  0.00  0.00    +0.000 F 
ENDBRANCH  13  14
ENDBRANCH  12  13
ENDBRANCH   6  12
TORSDOF 3
ENDMDL
