MODEL 1
REMARK VINA RESULT:      -4.9      0.000      0.000
REMARK  Name = *****
REMARK  1 active torsions:
REMARK  status: ('A' for Active; 'I' for Inactive)
REMARK    1  A    between atoms: C_2  and  C_12
REMARK                            x       y       z     vdW  Elec       q    Type
REMARK                         _______ _______ _______ _____ _____    ______ ____
ROOT
ATOM      1  C   UNL     1     100.925 126.407  83.263  0.00  0.00    +0.000 C 
ATOM      2  C   UNL     1     102.280 127.028  83.588  0.00  0.00    +0.000 C 
ATOM      3  O   UNL     1     102.153 127.990  84.656  0.00  0.00    +0.000 OA
ATOM      4  C   UNL     1     101.200 128.950  84.434  0.00  0.00    +0.000 A 
ATOM      5  C   UNL     1     101.339 130.141  85.144  0.00  0.00    +0.000 A 
ATOM      6  C   UNL     1     100.416 131.174  84.962  0.00  0.00    +0.000 A 
ATOM      7  C   UNL     1      99.347 131.011  84.079  0.00  0.00    +0.000 A 
ATOM      8  C   UNL     1      99.192 129.813  83.383  0.00  0.00    +0.000 A 
ATOM      9  C   UNL     1     100.119 128.782  83.570  0.00  0.00    +0.000 A 
ATOM     10  C   UNL     1      99.951 127.487  82.890  0.00  0.00    +0.000 C 
ATOM     11  O   UNL     1      99.025 127.292  82.107  0.00  0.00    +0.000 OA
ENDROOT
BRANCH   2  12
ATOM     12  C   UNL     1     103.114 127.604  82.444  0.00  0.00    +0.000 A 
ATOM     13  C   UNL     1     103.023 127.151  81.117  0.00  0.00    +0.000 A 
ATOM     14  C   UNL     1     103.821 127.714  80.117  0.00  0.00    +0.000 A 
ATOM     15  C   UNL     1     104.718 128.725  80.434  0.00  0.00    +0.000 A 
ATOM     16  C   UNL     1     104.838 129.184  81.736  0.00  0.00    +0.000 A 
ATOM     17  C   UNL     1     104.041 128.625  82.738  0.00  0.00    +0.000 A 
ATOM     18  F   UNL     1     105.481 129.259  79.472  0.00  0.00    +0.000 F 
ENDBRANCH   2  12
TORSDOF 1
ENDMDL
