REMARK  Name = *****
REMARK  2 active torsions:
REMARK  status: ('A' for Active; 'I' for Inactive)
REMARK    1  A    between atoms: C_4  and  C_7
REMARK    2  A    between atoms: C_7  and  C_8
REMARK                            x       y       z     vdW  Elec       q    Type
REMARK                         _______ _______ _______ _____ _____    ______ ____
ROOT
ATOM      1  C   UNL     1      -6.621  -0.556   0.758  0.00  0.00    +0.000 C 
ATOM      2  C   UNL     1      -6.485  -1.909   1.414  0.00  0.00    +0.000 C 
ATOM      3  C   UNL     1      -5.356  -2.341   1.982  0.00  0.00    +0.000 C 
ATOM      4  C   UNL     1      -4.206  -1.451   1.962  0.00  0.00    +0.000 A 
ATOM      5  C   UNL     1      -2.973  -1.862   2.479  0.00  0.00    +0.000 A 
ATOM      6  C   UNL     1      -1.881  -0.992   2.472  0.00  0.00    +0.000 A 
ATOM      7  C   UNL     1      -2.017   0.294   1.952  0.00  0.00    +0.000 A 
ATOM      8  C   UNL     1      -3.246   0.709   1.438  0.00  0.00    +0.000 A 
ATOM      9  C   UNL     1      -4.337  -0.162   1.439  0.00  0.00    +0.000 A 
ATOM     10  O   UNL     1      -5.501   0.337   0.928  0.00  0.00    +0.000 OA
ENDROOT
BRANCH   1  11
ATOM     11  C   UNL     1      -6.894  -0.717  -0.751  0.00  0.00    +0.000 C 
BRANCH  11  15
ATOM     12  C   UNL     1      -8.676   2.821  -2.468  0.00  0.00    +0.000 A 
ATOM     13  C   UNL     1      -7.289   2.695  -2.413  0.00  0.00    +0.000 A 
ATOM     14  C   UNL     1      -6.713   1.549  -1.863  0.00  0.00    +0.000 A 
ATOM     15  C   UNL     1      -7.519   0.517  -1.365  0.00  0.00    +0.000 A 
ATOM     16  C   UNL     1      -8.913   0.657  -1.419  0.00  0.00    +0.000 A 
ATOM     17  C   UNL     1      -9.487   1.804  -1.970  0.00  0.00    +0.000 A 
ENDBRANCH  11  15
ENDBRANCH   1  11
TORSDOF 2
