REMARK  Name = *****
REMARK  3 active torsions:
REMARK  status: ('A' for Active; 'I' for Inactive)
REMARK    1  A    between atoms: C_1  and  C_2
REMARK    2  A    between atoms: N_12  and  N_13
REMARK    3  A    between atoms: C_14  and  C_15
REMARK                            x       y       z     vdW  Elec       q    Type
REMARK                         _______ _______ _______ _____ _____    ______ ____
ROOT
ATOM      1  C   UNL     1       2.386  -0.910   3.269  0.00  0.00    +0.000 C 
ATOM      2  C   UNL     1       3.137  -0.398   2.065  0.00  0.00    +0.000 A 
ATOM      3  N   UNL     1       4.013   0.544   2.231  0.00  0.00    +0.000 NA
ATOM      4  C   UNL     1       4.698   1.014   1.104  0.00  0.00    +0.000 A 
ATOM      5  C   UNL     1       5.591   2.077   1.256  0.00  0.00    +0.000 A 
ATOM      6  C   UNL     1       6.307   2.570   0.161  0.00  0.00    +0.000 A 
ATOM      7  C   UNL     1       6.138   1.998  -1.099  0.00  0.00    +0.000 A 
ATOM      8  C   UNL     1       5.252   0.935  -1.265  0.00  0.00    +0.000 A 
ATOM      9  C   UNL     1       4.536   0.452  -0.162  0.00  0.00    +0.000 A 
ATOM     10  C   UNL     1       3.588  -0.669  -0.306  0.00  0.00    +0.000 A 
ATOM     11  O   UNL     1       3.544  -1.281  -1.372  0.00  0.00    +0.000 OA
ATOM     12  N   UNL     1       2.821  -0.952   0.834  0.00  0.00    +0.000 N 
ENDROOT
BRANCH  12  13
ATOM     13  N   UNL     1       1.932  -2.012   0.811  0.00  0.00    +0.000 NA
ATOM     14  C   UNL     1       1.009  -2.053  -0.107  0.00  0.00    +0.000 C 
BRANCH  14  15
ATOM     15  C   UNL     1       0.558  -0.993  -1.033  0.00  0.00    +0.000 A 
ATOM     16  C   UNL     1       0.214  -1.361  -2.339  0.00  0.00    +0.000 A 
ATOM     17  C   UNL     1      -0.244  -0.391  -3.232  0.00  0.00    +0.000 A 
ATOM     18  C   UNL     1      -0.368   0.928  -2.807  0.00  0.00    +0.000 A 
ATOM     19  C   UNL     1      -0.051   1.298  -1.504  0.00  0.00    +0.000 A 
ATOM     20  C   UNL     1       0.408   0.332  -0.607  0.00  0.00    +0.000 A 
ATOM     21  F   UNL     1      -0.811   1.857  -3.665  0.00  0.00    +0.000 F 
ENDBRANCH  14  15
ENDBRANCH  12  13
TORSDOF 2
