REMARK  Name = *****
REMARK  6 active torsions:
REMARK  status: ('A' for Active; 'I' for Inactive)
REMARK    1  A    between atoms: C_1  and  C_2
REMARK    2  A    between atoms: C_2  and  C_3
REMARK    3  A    between atoms: C_2  and  N_9
REMARK    4  A    between atoms: N_9  and  C_10
REMARK    5  A    between atoms: N_9  and  S_12
REMARK    6  A    between atoms: S_12  and  C_15
REMARK                            x       y       z     vdW  Elec       q    Type
REMARK                         _______ _______ _______ _____ _____    ______ ____
ROOT
ATOM      1  N   UNL     1       3.042   1.354   0.613  0.00  0.00    +0.000 N 
ENDROOT
BRANCH   1   2
ATOM      2  S   UNL     1       4.704   1.505   0.955  0.00  0.00    +0.000 S 
ATOM      3  O   UNL     1       4.959   2.687   1.754  0.00  0.00    +0.000 OA
ATOM      4  O   UNL     1       5.193   0.207   1.379  0.00  0.00    +0.000 OA
BRANCH   2   5
ATOM      5  C   UNL     1       5.377   1.834  -0.661  0.00  0.00    +0.000 A 
ATOM      6  C   UNL     1       5.083   3.053  -1.281  0.00  0.00    +0.000 A 
ATOM      7  C   UNL     1       5.601   3.322  -2.547  0.00  0.00    +0.000 A 
ATOM      8  C   UNL     1       6.412   2.380  -3.183  0.00  0.00    +0.000 A 
ATOM      9  C   UNL     1       6.714   1.170  -2.554  0.00  0.00    +0.000 A 
ATOM     10  C   UNL     1       6.200   0.893  -1.287  0.00  0.00    +0.000 A 
ENDBRANCH   2   5
ENDBRANCH   1   2
BRANCH   1  12
ATOM     11  C   UNL     1       1.899  -0.808   0.898  0.00  0.00    +0.000 C 
ATOM     12  C   UNL     1       2.609   0.121  -0.095  0.00  0.00    +0.000 C 
BRANCH  12  13
ATOM     13  C   UNL     1       1.783   0.426  -1.339  0.00  0.00    +0.000 A 
ATOM     14  C   UNL     1       0.413   0.726  -1.275  0.00  0.00    +0.000 A 
ATOM     15  C   UNL     1      -0.311   1.017  -2.434  0.00  0.00    +0.000 A 
ATOM     16  C   UNL     1       0.325   1.020  -3.673  0.00  0.00    +0.000 A 
ATOM     17  C   UNL     1       1.685   0.737  -3.755  0.00  0.00    +0.000 A 
ATOM     18  C   UNL     1       2.410   0.446  -2.597  0.00  0.00    +0.000 A 
ENDBRANCH  12  13
ENDBRANCH   1  12
BRANCH   1  19
ATOM     19  C   UNL     1       2.257   2.340   1.074  0.00  0.00    +0.000 C 
ATOM     20  C   UNL     1       1.546   3.220   1.475  0.00  0.00    +0.000 C 
ENDBRANCH   1  19
TORSDOF 5
