REMARK  Name = *****
REMARK  3 active torsions:
REMARK  status: ('A' for Active; 'I' for Inactive)
REMARK    1  A    between atoms: C_4  and  C_7
REMARK    2  A    between atoms: C_7  and  O_8
REMARK    3  A    between atoms: O_8  and  C_9
REMARK                            x       y       z     vdW  Elec       q    Type
REMARK                         _______ _______ _______ _____ _____    ______ ____
ROOT
ATOM      1  C   UNL     1      -5.103  -0.121  -0.005  0.00  0.00    +0.000 A 
ATOM      2  C   UNL     1      -5.199   0.383  -1.305  0.00  0.00    +0.000 A 
ATOM      3  C   UNL     1      -6.412   0.352  -2.012  0.00  0.00    +0.000 A 
ATOM      4  C   UNL     1      -6.517   0.866  -3.315  0.00  0.00    +0.000 A 
ATOM      5  C   UNL     1      -7.732   0.830  -4.001  0.00  0.00    +0.000 A 
ATOM      6  C   UNL     1      -8.856   0.278  -3.395  0.00  0.00    +0.000 A 
ATOM      7  C   UNL     1      -8.769  -0.238  -2.101  0.00  0.00    +0.000 A 
ATOM      8  C   UNL     1      -7.553  -0.208  -1.397  0.00  0.00    +0.000 A 
ATOM      9  C   UNL     1      -7.445  -0.721  -0.096  0.00  0.00    +0.000 A 
ATOM     10  C   UNL     1      -6.229  -0.679   0.596  0.00  0.00    +0.000 A 
ENDROOT
BRANCH   1  11
ATOM     11  O   UNL     1      -3.861  -0.015   0.557  0.00  0.00    +0.000 OA
BRANCH  11  12
ATOM     12  C   UNL     1      -3.743  -0.351   1.940  0.00  0.00    +0.000 C 
BRANCH  12  16
ATOM     13  C   UNL     1       0.189   0.612   3.454  0.00  0.00    +0.000 A 
ATOM     14  C   UNL     1      -0.400   1.425   2.488  0.00  0.00    +0.000 A 
ATOM     15  C   UNL     1      -1.665   1.112   1.988  0.00  0.00    +0.000 A 
ATOM     16  C   UNL     1      -2.351  -0.026   2.438  0.00  0.00    +0.000 A 
ATOM     17  C   UNL     1      -1.753  -0.827   3.422  0.00  0.00    +0.000 A 
ATOM     18  C   UNL     1      -0.488  -0.512   3.923  0.00  0.00    +0.000 A 
ENDBRANCH  12  16
ENDBRANCH  11  12
ENDBRANCH   1  11
TORSDOF 3
