MODEL 1
REMARK VINA RESULT:      -4.8      0.000      0.000
REMARK  Name = *****
REMARK  2 active torsions:
REMARK  status: ('A' for Active; 'I' for Inactive)
REMARK    1  A    between atoms: C_1  and  C_2
REMARK    2  A    between atoms: C_2  and  C_12
REMARK                            x       y       z     vdW  Elec       q    Type
REMARK                         _______ _______ _______ _____ _____    ______ ____
ROOT
ATOM      1  C   UNL     1      87.460  71.967  89.948  0.00  0.00    +0.000 C 
ATOM      2  C   UNL     1      87.214  70.865  88.904  0.00  0.00    +0.000 C 
ATOM      3  C   UNL     1      86.746  69.589  89.640  0.00  0.00    +0.000 C 
ATOM      4  O   UNL     1      86.556  68.486  88.745  0.00  0.00    +0.000 OA
ATOM      5  C   UNL     1      87.613  68.366  87.881  0.00  0.00    +0.000 A 
ATOM      6  C   UNL     1      87.706  67.173  87.166  0.00  0.00    +0.000 A 
ATOM      7  C   UNL     1      88.768  66.971  86.283  0.00  0.00    +0.000 A 
ATOM      8  C   UNL     1      89.735  67.963  86.115  0.00  0.00    +0.000 A 
ATOM      9  C   UNL     1      89.634  69.164  86.819  0.00  0.00    +0.000 A 
ATOM     10  C   UNL     1      88.563  69.371  87.688  0.00  0.00    +0.000 A 
ATOM     11  O   UNL     1      88.507  70.592  88.311  0.00  0.00    +0.000 OA
ENDROOT
BRANCH   2  12
ATOM     12  C   UNL     1      86.237  71.426  87.855  0.00  0.00    +0.000 A 
ATOM     13  C   UNL     1      85.000  71.966  88.256  0.00  0.00    +0.000 A 
ATOM     14  C   UNL     1      84.094  72.473  87.321  0.00  0.00    +0.000 A 
ATOM     15  C   UNL     1      84.401  72.437  85.965  0.00  0.00    +0.000 A 
ATOM     16  C   UNL     1      85.609  71.891  85.544  0.00  0.00    +0.000 A 
ATOM     17  C   UNL     1      86.519  71.386  86.479  0.00  0.00    +0.000 A 
ENDBRANCH   2  12
TORSDOF 1
ENDMDL
