MODEL 1
REMARK VINA RESULT:      -4.6      0.000      0.000
REMARK  Name = *****
REMARK  4 active torsions:
REMARK  status: ('A' for Active; 'I' for Inactive)
REMARK    1  A    between atoms: C_1  and  N_2
REMARK    2  A    between atoms: C_10  and  C_13
REMARK    3  A    between atoms: C_13  and  C_14
REMARK    4  A    between atoms: C_13  and  O_20
REMARK                            x       y       z     vdW  Elec       q    Type
REMARK                         _______ _______ _______ _____ _____    ______ ____
ROOT
ATOM      1  C   UNL     1      88.110  66.821  86.247  0.00  0.00    +0.000 C 
ATOM      2  N   UNL     1      87.892  65.853  87.290  0.00  0.00    +0.000 N 
ATOM      3  C   UNL     1      87.087  66.073  88.410  0.00  0.00    +0.000 A 
ATOM      4  C   UNL     1      87.202  64.997  89.293  0.00  0.00    +0.000 A 
ATOM      5  C   UNL     1      86.589  65.057  90.534  0.00  0.00    +0.000 A 
ATOM      6  C   UNL     1      85.803  66.173  90.844  0.00  0.00    +0.000 A 
ATOM      7  C   UNL     1      85.658  67.225  89.927  0.00  0.00    +0.000 A 
ATOM      8  C   UNL     1      86.316  67.186  88.697  0.00  0.00    +0.000 A 
ATOM      9 CL   UNL     1      86.811  63.844  91.731  0.00  0.00    +0.000 Cl
ATOM     10  C   UNL     1      88.088  63.931  88.685  0.00  0.00    +0.000 C 
ATOM     11  C   UNL     1      88.617  64.661  87.418  0.00  0.00    +0.000 C 
ATOM     12  O   UNL     1      89.494  64.280  86.657  0.00  0.00    +0.000 OA
ATOM     13  F   UNL     1      89.094  63.566  89.531  0.00  0.00    +0.000 F 
ENDROOT
BRANCH  10  14
ATOM     14  C   UNL     1      87.285  62.684  88.202  0.00  0.00    +0.000 C 
BRANCH  14  15
ATOM     15  C   UNL     1      85.773  62.804  88.272  0.00  0.00    +0.000 A 
ATOM     16  C   UNL     1      85.043  63.529  87.317  0.00  0.00    +0.000 A 
ATOM     17  C   UNL     1      83.652  63.616  87.396  0.00  0.00    +0.000 A 
ATOM     18  C   UNL     1      82.968  62.973  88.426  0.00  0.00    +0.000 A 
ATOM     19  C   UNL     1      83.676  62.241  89.375  0.00  0.00    +0.000 A 
ATOM     20  C   UNL     1      85.068  62.154  89.298  0.00  0.00    +0.000 A 
ENDBRANCH  14  15
BRANCH  14  21
ATOM     21  O   UNL     1      87.596  62.299  86.855  0.00  0.00    +0.000 OA
ATOM     22  H   UNL     1      86.874  62.571  86.266  0.00  0.00    +0.000 HD
ENDBRANCH  14  21
ENDBRANCH  10  14
TORSDOF 3
ENDMDL
