MODEL 1
REMARK VINA RESULT:      -4.8      0.000      0.000
REMARK  Name = *****
REMARK  3 active torsions:
REMARK  status: ('A' for Active; 'I' for Inactive)
REMARK    1  A    between atoms: C_3  and  C_8
REMARK    2  A    between atoms: C_8  and  O_9
REMARK    3  A    between atoms: O_9  and  C_10
REMARK                            x       y       z     vdW  Elec       q    Type
REMARK                         _______ _______ _______ _____ _____    ______ ____
ROOT
ATOM      1  C   UNL     1      88.727  68.515  86.945  0.00  0.00    +0.000 A 
ATOM      2  C   UNL     1      89.885  68.086  86.290  0.00  0.00    +0.000 A 
ATOM      3  C   UNL     1      90.067  66.730  86.066  0.00  0.00    +0.000 A 
ATOM      4  C   UNL     1      89.118  65.800  86.469  0.00  0.00    +0.000 A 
ATOM      5  C   UNL     1      87.960  66.207  87.110  0.00  0.00    +0.000 A 
ATOM      6  C   UNL     1      87.765  67.575  87.349  0.00  0.00    +0.000 A 
ATOM      7  S   UNL     1      89.623  64.178  86.054  0.00  0.00    +0.000 S 
ATOM      8  C   UNL     1      91.101  64.867  85.362  0.00  0.00    +0.000 A 
ATOM      9  O   UNL     1      91.965  64.162  84.860  0.00  0.00    +0.000 OA
ATOM     10  O   UNL     1      91.211  66.255  85.431  0.00  0.00    +0.000 OA
ENDROOT
BRANCH   1  11
ATOM     11  O   UNL     1      88.642  69.869  87.118  0.00  0.00    +0.000 OA
BRANCH  11  12
ATOM     12  C   UNL     1      87.946  70.610  86.119  0.00  0.00    +0.000 C 
BRANCH  12  15
ATOM     13  C   UNL     1      85.425  71.745  88.743  0.00  0.00    +0.000 A 
ATOM     14  C   UNL     1      86.555  71.184  88.145  0.00  0.00    +0.000 A 
ATOM     15  C   UNL     1      86.718  71.217  86.752  0.00  0.00    +0.000 A 
ATOM     16  C   UNL     1      85.717  71.803  85.965  0.00  0.00    +0.000 A 
ATOM     17  C   UNL     1      84.588  72.361  86.568  0.00  0.00    +0.000 A 
ATOM     18  C   UNL     1      84.440  72.337  87.953  0.00  0.00    +0.000 A 
ATOM     19 CL   UNL     1      83.371  73.087  85.593  0.00  0.00    +0.000 Cl
ENDBRANCH  12  15
ENDBRANCH  11  12
ENDBRANCH   1  11
TORSDOF 3
ENDMDL
