REMARK  Name = *****
REMARK  4 active torsions:
REMARK  status: ('A' for Active; 'I' for Inactive)
REMARK    1  A    between atoms: C_1  and  N_2
REMARK    2  A    between atoms: C_10  and  C_13
REMARK    3  A    between atoms: C_13  and  C_14
REMARK    4  A    between atoms: C_13  and  O_20
REMARK                            x       y       z     vdW  Elec       q    Type
REMARK                         _______ _______ _______ _____ _____    ______ ____
ROOT
ATOM      1  C   UNL     1       1.295   0.067  -0.056  0.00  0.00    +0.000 C 
ATOM      2  N   UNL     1       2.733   0.041  -0.041  0.00  0.00    +0.000 N 
ATOM      3  C   UNL     1       3.543   1.166  -0.215  0.00  0.00    +0.000 A 
ATOM      4  C   UNL     1       4.887   0.796  -0.150  0.00  0.00    +0.000 A 
ATOM      5  C   UNL     1       5.895   1.731  -0.329  0.00  0.00    +0.000 A 
ATOM      6  C   UNL     1       5.523   3.058  -0.550  0.00  0.00    +0.000 A 
ATOM      7  C   UNL     1       4.170   3.432  -0.600  0.00  0.00    +0.000 A 
ATOM      8  C   UNL     1       3.161   2.477  -0.434  0.00  0.00    +0.000 A 
ATOM      9 CL   UNL     1       6.740   4.257  -0.761  0.00  0.00    +0.000 Cl
ATOM     10  C   UNL     1       4.995  -0.690   0.095  0.00  0.00    +0.000 C 
ATOM     11  C   UNL     1       3.503  -1.115   0.142  0.00  0.00    +0.000 C 
ATOM     12  O   UNL     1       3.078  -2.252   0.302  0.00  0.00    +0.000 OA
ATOM     13  F   UNL     1       5.629  -1.317  -0.948  0.00  0.00    +0.000 F 
ENDROOT
BRANCH  10  14
ATOM     14  C   UNL     1       5.691  -1.117   1.414  0.00  0.00    +0.000 C 
BRANCH  14  15
ATOM     15  C   UNL     1       5.030  -0.649   2.702  0.00  0.00    +0.000 A 
ATOM     16  C   UNL     1       5.256   0.637   3.219  0.00  0.00    +0.000 A 
ATOM     17  C   UNL     1       4.627   1.054   4.392  0.00  0.00    +0.000 A 
ATOM     18  C   UNL     1       3.764   0.192   5.066  0.00  0.00    +0.000 A 
ATOM     19  C   UNL     1       3.531  -1.087   4.567  0.00  0.00    +0.000 A 
ATOM     20  C   UNL     1       4.159  -1.506   3.394  0.00  0.00    +0.000 A 
ENDBRANCH  14  15
BRANCH  14  21
ATOM     21  O   UNL     1       7.074  -0.710   1.435  0.00  0.00    +0.000 OA
ATOM     22  H   UNL     1       7.126   0.259   1.446  0.00  0.00    +0.000 HD
ENDBRANCH  14  21
ENDBRANCH  10  14
TORSDOF 3
