MODEL 1
REMARK VINA RESULT:      -5.0      0.000      0.000
REMARK  Name = *****
REMARK  2 active torsions:
REMARK  status: ('A' for Active; 'I' for Inactive)
REMARK    1  A    between atoms: C_1  and  C_2
REMARK    2  A    between atoms: C_5  and  C_8
REMARK                            x       y       z     vdW  Elec       q    Type
REMARK                         _______ _______ _______ _____ _____    ______ ____
ROOT
ATOM      1  C   UNL     1     102.858 126.017  82.631  0.00  0.00    +0.000 C 
ATOM      2  C   UNL     1     103.325 127.321  83.212  0.00  0.00    +0.000 C 
ATOM      3  C   UNL     1     102.479 128.307  83.525  0.00  0.00    +0.000 C 
ATOM      4  C   UNL     1     101.047 128.091  83.304  0.00  0.00    +0.000 A 
ATOM      5  C   UNL     1     100.054 128.979  83.748  0.00  0.00    +0.000 A 
ATOM      6  C   UNL     1      98.702 128.732  83.487  0.00  0.00    +0.000 A 
ATOM      7  C   UNL     1      98.325 127.596  82.775  0.00  0.00    +0.000 A 
ATOM      8  C   UNL     1      99.298 126.706  82.328  0.00  0.00    +0.000 A 
ATOM      9  C   UNL     1     100.648 126.946  82.602  0.00  0.00    +0.000 A 
ATOM     10  O   UNL     1     101.522 126.021  82.100  0.00  0.00    +0.000 OA
ATOM     11 CL   UNL     1     103.074 129.775  84.198  0.00  0.00    +0.000 Cl
ENDROOT
BRANCH   1  16
ATOM     12  C   UNL     1     106.474 124.181  78.423  0.00  0.00    +0.000 C 
ATOM     13  C   UNL     1     105.564 124.653  79.519  0.00  0.00    +0.000 A 
ATOM     14  C   UNL     1     104.925 123.735  80.358  0.00  0.00    +0.000 A 
ATOM     15  C   UNL     1     104.052 124.175  81.358  0.00  0.00    +0.000 A 
ATOM     16  C   UNL     1     103.789 125.542  81.526  0.00  0.00    +0.000 A 
ATOM     17  C   UNL     1     104.424 126.458  80.673  0.00  0.00    +0.000 A 
ATOM     18  C   UNL     1     105.297 126.017  79.676  0.00  0.00    +0.000 A 
ENDBRANCH   1  16
TORSDOF 1
ENDMDL
