MODEL 1
REMARK VINA RESULT:      -5.3      0.000      0.000
REMARK  Name = *****
REMARK  2 active torsions:
REMARK  status: ('A' for Active; 'I' for Inactive)
REMARK    1  A    between atoms: C_11  and  C_12
REMARK    2  A    between atoms: C_11  and  C_14
REMARK                            x       y       z     vdW  Elec       q    Type
REMARK                         _______ _______ _______ _____ _____    ______ ____
ROOT
ATOM      1  C   UNL     1     103.582 126.766  83.382  0.00  0.00    +0.000 C 
ATOM      2  C   UNL     1     102.796 128.010  83.685  0.00  0.00    +0.000 C 
ATOM      3  O   UNL     1     103.287 128.964  84.278  0.00  0.00    +0.000 OA
ATOM      4  C   UNL     1     101.370 127.995  83.320  0.00  0.00    +0.000 A 
ATOM      5  C   UNL     1     100.529 129.050  83.686  0.00  0.00    +0.000 A 
ATOM      6  C   UNL     1      99.170 128.985  83.376  0.00  0.00    +0.000 A 
ATOM      7  C   UNL     1      98.659 127.869  82.710  0.00  0.00    +0.000 A 
ATOM      8  C   UNL     1      99.506 126.821  82.345  0.00  0.00    +0.000 A 
ATOM      9  C   UNL     1     100.867 126.890  82.637  0.00  0.00    +0.000 A 
ATOM     10  O   UNL     1     101.632 125.830  82.236  0.00  0.00    +0.000 OA
ATOM     11  C   UNL     1     103.053 126.091  82.112  0.00  0.00    +0.000 C 
ENDROOT
BRANCH  11  12
ATOM     12  C   UNL     1     103.776 124.733  81.963  0.00  0.00    +0.000 A 
ATOM     13  C   UNL     1     104.209 124.258  80.711  0.00  0.00    +0.000 A 
ATOM     14  C   UNL     1     104.845 123.019  80.592  0.00  0.00    +0.000 A 
ATOM     15  C   UNL     1     105.056 122.228  81.716  0.00  0.00    +0.000 A 
ATOM     16  C   UNL     1     104.633 122.673  82.965  0.00  0.00    +0.000 A 
ATOM     17  C   UNL     1     103.998 123.912  83.089  0.00  0.00    +0.000 A 
ENDBRANCH  11  12
BRANCH  11  18
ATOM     18  C   UNL     1     103.308 126.930  80.904  0.00  0.00    +0.000 C 
ATOM     19  N   UNL     1     103.505 127.608  79.981  0.00  0.00    +0.000 NA
ENDBRANCH  11  18
TORSDOF 2
ENDMDL
