MODEL 1
REMARK VINA RESULT:      -5.4      0.000      0.000
REMARK  Name = *****
REMARK  5 active torsions:
REMARK  status: ('A' for Active; 'I' for Inactive)
REMARK    1  A    between atoms: C_1  and  C_2
REMARK    2  A    between atoms: C_3  and  C_21
REMARK    3  A    between atoms: C_5  and  O_8
REMARK    4  A    between atoms: O_8  and  C_9
REMARK    5  A    between atoms: C_9  and  C_11
REMARK                            x       y       z     vdW  Elec       q    Type
REMARK                         _______ _______ _______ _____ _____    ______ ____
ROOT
ATOM      1  C   UNL     1      89.681  69.282  85.943  0.00  0.00    +0.000 C 
ATOM      2  O   UNL     1      90.082  69.583  84.827  0.00  0.00    +0.000 OA
ENDROOT
BRANCH   1   3
ATOM      3  C   UNL     1      88.541  69.972  86.615  0.00  0.00    +0.000 A 
ATOM      4  N   UNL     1      87.583  70.536  85.832  0.00  0.00    +0.000 NA
ATOM      5  C   UNL     1      86.557  71.159  86.436  0.00  0.00    +0.000 A 
ATOM      6  C   UNL     1      85.566  71.744  85.661  0.00  0.00    +0.000 A 
ATOM      7  C   UNL     1      84.477  72.406  86.237  0.00  0.00    +0.000 A 
ATOM      8  C   UNL     1      84.369  72.488  87.621  0.00  0.00    +0.000 A 
ATOM      9  C   UNL     1      85.350  71.908  88.424  0.00  0.00    +0.000 A 
ATOM     10  C   UNL     1      86.444  71.245  87.841  0.00  0.00    +0.000 A 
ATOM     11  C   UNL     1      87.446  70.654  88.621  0.00  0.00    +0.000 A 
ATOM     12  C   UNL     1      88.510  70.009  88.003  0.00  0.00    +0.000 A 
ENDBRANCH   1   3
BRANCH   1  13
ATOM     13  O   UNL     1      90.169  68.287  86.774  0.00  0.00    +0.000 OA
BRANCH  13  18
ATOM     14  C   UNL     1      89.243  62.981  84.919  0.00  0.00    +0.000 C 
ATOM     15  C   UNL     1      89.505  64.377  85.415  0.00  0.00    +0.000 A 
ATOM     16  C   UNL     1      90.756  65.002  85.223  0.00  0.00    +0.000 A 
ATOM     17  C   UNL     1      90.953  66.305  85.705  0.00  0.00    +0.000 A 
ATOM     18  C   UNL     1      89.925  66.967  86.372  0.00  0.00    +0.000 A 
ATOM     19  C   UNL     1      88.679  66.373  86.539  0.00  0.00    +0.000 A 
ATOM     20  C   UNL     1      88.475  65.078  86.068  0.00  0.00    +0.000 A 
ATOM     21  C   UNL     1      91.884  64.300  84.517  0.00  0.00    +0.000 C 
ENDBRANCH  13  18
ENDBRANCH   1  13
TORSDOF 3
ENDMDL
