MODEL 1
REMARK VINA RESULT:      -4.8      0.000      0.000
REMARK  Name = *****
REMARK  3 active torsions:
REMARK  status: ('A' for Active; 'I' for Inactive)
REMARK    1  A    between atoms: C_4  and  C_7
REMARK    2  A    between atoms: C_7  and  S_9
REMARK    3  A    between atoms: S_9  and  C_10
REMARK                            x       y       z     vdW  Elec       q    Type
REMARK                         _______ _______ _______ _____ _____    ______ ____
ROOT
ATOM      1  S   UNL     1      89.122  70.216  87.227  0.00  0.00    +0.000 S 
ENDROOT
BRANCH   1   2
ATOM      2  C   UNL     1      89.226  68.514  86.849  0.00  0.00    +0.000 A 
ATOM      3  N   UNL     1      90.303  68.009  86.294  0.00  0.00    +0.000 NA
ATOM      4  C   UNL     1      90.122  66.652  86.084  0.00  0.00    +0.000 A 
ATOM      5  C   UNL     1      91.068  65.770  85.526  0.00  0.00    +0.000 A 
ATOM      6  C   UNL     1      90.750  64.416  85.368  0.00  0.00    +0.000 A 
ATOM      7  C   UNL     1      89.504  63.935  85.759  0.00  0.00    +0.000 A 
ATOM      8  C   UNL     1      88.547  64.790  86.316  0.00  0.00    +0.000 A 
ATOM      9  C   UNL     1      88.878  66.146  86.470  0.00  0.00    +0.000 A 
ATOM     10  S   UNL     1      87.928  67.433  87.111  0.00  0.00    +0.000 S 
ENDBRANCH   1   2
BRANCH   1  11
ATOM     11  C   UNL     1      87.898  70.588  86.024  0.00  0.00    +0.000 C 
ATOM     12  O   UNL     1      88.119  70.377  84.836  0.00  0.00    +0.000 OA
BRANCH  11  16
ATOM     13  C   UNL     1      84.287  72.453  87.432  0.00  0.00    +0.000 A 
ATOM     14  C   UNL     1      84.500  72.342  86.058  0.00  0.00    +0.000 A 
ATOM     15  C   UNL     1      85.666  71.742  85.572  0.00  0.00    +0.000 A 
ATOM     16  C   UNL     1      86.629  71.244  86.462  0.00  0.00    +0.000 A 
ATOM     17  C   UNL     1      86.407  71.372  87.842  0.00  0.00    +0.000 A 
ATOM     18  C   UNL     1      85.241  71.970  88.324  0.00  0.00    +0.000 A 
ENDBRANCH  11  16
ENDBRANCH   1  11
TORSDOF 3
ENDMDL
