MODEL 1
REMARK VINA RESULT:      -5.1      0.000      0.000
REMARK  Name = *****
REMARK  2 active torsions:
REMARK  status: ('A' for Active; 'I' for Inactive)
REMARK    1  A    between atoms: C_1  and  C_2
REMARK    2  A    between atoms: P_4  and  C_13
REMARK                            x       y       z     vdW  Elec       q    Type
REMARK                         _______ _______ _______ _____ _____    ______ ____
ROOT
ATOM      1  C   UNL     1     103.953 129.512  83.430  0.00  0.00    +0.000 C 
ATOM      2  C   UNL     1     103.209 128.217  83.229  0.00  0.00    +0.000 C 
ATOM      3  C   UNL     1     103.900 127.077  83.041  0.00  0.00    +0.000 C 
ATOM      4  P   UNL     1     103.163 125.501  82.813  0.00  0.00    +0.000 P 
ATOM      5  O   UNL     1     102.907 124.603  84.001  0.00  0.00    +0.000 OA
ATOM      6  C   UNL     1     101.592 125.996  82.055  0.00  0.00    +0.000 C 
ATOM      7  C   UNL     1     100.939 127.182  82.721  0.00  0.00    +0.000 A 
ATOM      8  C   UNL     1      99.534 127.250  82.738  0.00  0.00    +0.000 A 
ATOM      9  C   UNL     1      98.884 128.340  83.308  0.00  0.00    +0.000 A 
ATOM     10  C   UNL     1      99.632 129.375  83.855  0.00  0.00    +0.000 A 
ATOM     11  C   UNL     1     101.029 129.321  83.828  0.00  0.00    +0.000 A 
ATOM     12  C   UNL     1     101.715 128.232  83.261  0.00  0.00    +0.000 A 
ENDROOT
BRANCH   4  13
ATOM     13  C   UNL     1     104.187 124.779  81.544  0.00  0.00    +0.000 A 
ATOM     14  C   UNL     1     104.643 125.584  80.490  0.00  0.00    +0.000 A 
ATOM     15  C   UNL     1     105.448 125.054  79.482  0.00  0.00    +0.000 A 
ATOM     16  C   UNL     1     105.809 123.708  79.514  0.00  0.00    +0.000 A 
ATOM     17  C   UNL     1     105.364 122.894  80.553  0.00  0.00    +0.000 A 
ATOM     18  C   UNL     1     104.558 123.425  81.562  0.00  0.00    +0.000 A 
ENDBRANCH   4  13
TORSDOF 1
ENDMDL
