REMARK  Name = *****
REMARK  2 active torsions:
REMARK  status: ('A' for Active; 'I' for Inactive)
REMARK    1  A    between atoms: C_1  and  C_2
REMARK    2  A    between atoms: C_2  and  C_12
REMARK                            x       y       z     vdW  Elec       q    Type
REMARK                         _______ _______ _______ _____ _____    ______ ____
ROOT
ATOM      1  C   UNL     1       1.199   0.064   0.091  0.00  0.00    +0.000 C 
ATOM      2  C   UNL     1       2.717  -0.078  -0.133  0.00  0.00    +0.000 C 
ATOM      3  C   UNL     1       3.229  -1.250   0.731  0.00  0.00    +0.000 C 
ATOM      4  C   UNL     1       4.746  -1.350   0.652  0.00  0.00    +0.000 C 
ATOM      5  C   UNL     1       5.360  -0.000   0.862  0.00  0.00    +0.000 A 
ATOM      6  C   UNL     1       6.716   0.110   1.200  0.00  0.00    +0.000 A 
ATOM      7  C   UNL     1       7.294   1.364   1.402  0.00  0.00    +0.000 A 
ATOM      8  C   UNL     1       6.524   2.517   1.265  0.00  0.00    +0.000 A 
ATOM      9  C   UNL     1       5.178   2.414   0.916  0.00  0.00    +0.000 A 
ATOM     10  C   UNL     1       4.601   1.161   0.702  0.00  0.00    +0.000 A 
ATOM     11  O   UNL     1       3.277   1.167   0.351  0.00  0.00    +0.000 OA
ENDROOT
BRANCH   2  12
ATOM     12  C   UNL     1       2.942  -0.254  -1.645  0.00  0.00    +0.000 A 
ATOM     13  C   UNL     1       3.359   0.823  -2.448  0.00  0.00    +0.000 A 
ATOM     14  C   UNL     1       3.550   0.669  -3.824  0.00  0.00    +0.000 A 
ATOM     15  C   UNL     1       3.317  -0.562  -4.428  0.00  0.00    +0.000 A 
ATOM     16  C   UNL     1       2.887  -1.638  -3.658  0.00  0.00    +0.000 A 
ATOM     17  C   UNL     1       2.695  -1.485  -2.282  0.00  0.00    +0.000 A 
ENDBRANCH   2  12
TORSDOF 1
