MODEL 1
REMARK VINA RESULT:      -5.2      0.000      0.000
REMARK  Name = *****
REMARK  2 active torsions:
REMARK  status: ('A' for Active; 'I' for Inactive)
REMARK    1  A    between atoms: C_1  and  C_2
REMARK    2  A    between atoms: C_5  and  C_8
REMARK                            x       y       z     vdW  Elec       q    Type
REMARK                         _______ _______ _______ _____ _____    ______ ____
ROOT
ATOM      1  C   UNL     1     102.183 125.898  81.942  0.00  0.00    +0.000 C 
ATOM      2  C   UNL     1     103.131 126.442  80.874  0.00  0.00    +0.000 C 
ATOM      3  C   UNL     1     103.795 125.269  80.166  0.00  0.00    +0.000 C 
ATOM      4  C   UNL     1     104.264 124.246  81.159  0.00  0.00    +0.000 A 
ATOM      5  C   UNL     1     105.169 123.251  80.766  0.00  0.00    +0.000 A 
ATOM      6  C   UNL     1     105.610 122.293  81.681  0.00  0.00    +0.000 A 
ATOM      7  C   UNL     1     105.150 122.322  82.996  0.00  0.00    +0.000 A 
ATOM      8  C   UNL     1     104.241 123.302  83.393  0.00  0.00    +0.000 A 
ATOM      9  C   UNL     1     103.787 124.250  82.475  0.00  0.00    +0.000 A 
ATOM     10  O   UNL     1     102.898 125.174  82.955  0.00  0.00    +0.000 OA
ENDROOT
BRANCH   1  15
ATOM     11  C   UNL     1      99.196 130.269  84.411  0.00  0.00    +0.000 C 
ATOM     12  C   UNL     1      99.962 129.131  83.802  0.00  0.00    +0.000 A 
ATOM     13  C   UNL     1      99.294 128.083  83.162  0.00  0.00    +0.000 A 
ATOM     14  C   UNL     1     100.012 127.039  82.571  0.00  0.00    +0.000 A 
ATOM     15  C   UNL     1     101.414 127.026  82.605  0.00  0.00    +0.000 A 
ATOM     16  C   UNL     1     102.079 128.088  83.233  0.00  0.00    +0.000 A 
ATOM     17  C   UNL     1     101.360 129.131  83.823  0.00  0.00    +0.000 A 
ENDBRANCH   1  15
TORSDOF 1
ENDMDL
