REMARK  Name = *****
REMARK  1 active torsions:
REMARK  status: ('A' for Active; 'I' for Inactive)
REMARK    1  A    between atoms: C_2  and  C_12
REMARK                            x       y       z     vdW  Elec       q    Type
REMARK                         _______ _______ _______ _____ _____    ______ ____
ROOT
ATOM      1  C   UNL     1      -2.321  -0.005  -0.482  0.00  0.00    +0.000 C 
ATOM      2  C   UNL     1      -1.916   1.191   0.372  0.00  0.00    +0.000 C 
ATOM      3  O   UNL     1      -0.653   1.726  -0.074  0.00  0.00    +0.000 OA
ATOM      4  C   UNL     1       0.353   0.800  -0.155  0.00  0.00    +0.000 A 
ATOM      5  C   UNL     1       1.657   1.290  -0.107  0.00  0.00    +0.000 A 
ATOM      6  C   UNL     1       2.737   0.407  -0.169  0.00  0.00    +0.000 A 
ATOM      7  C   UNL     1       2.515  -0.966  -0.289  0.00  0.00    +0.000 A 
ATOM      8  C   UNL     1       1.212  -1.459  -0.358  0.00  0.00    +0.000 A 
ATOM      9  C   UNL     1       0.135  -0.570  -0.298  0.00  0.00    +0.000 A 
ATOM     10  C   UNL     1      -1.250  -1.057  -0.421  0.00  0.00    +0.000 C 
ATOM     11  O   UNL     1      -1.499  -2.253  -0.526  0.00  0.00    +0.000 OA
ENDROOT
BRANCH   2  12
ATOM     12  C   UNL     1      -1.921   1.042   1.892  0.00  0.00    +0.000 A 
ATOM     13  C   UNL     1      -1.479   2.125   2.677  0.00  0.00    +0.000 A 
ATOM     14  C   UNL     1      -1.470   2.047   4.071  0.00  0.00    +0.000 A 
ATOM     15  C   UNL     1      -1.908   0.897   4.717  0.00  0.00    +0.000 A 
ATOM     16  C   UNL     1      -2.358  -0.175   3.954  0.00  0.00    +0.000 A 
ATOM     17  C   UNL     1      -2.371  -0.110   2.557  0.00  0.00    +0.000 A 
ATOM     18 CL   UNL     1      -2.911  -1.603   4.742  0.00  0.00    +0.000 Cl
ATOM     19 CL   UNL     1      -0.915   3.388   4.995  0.00  0.00    +0.000 Cl
ENDBRANCH   2  12
TORSDOF 1
