REMARK  Name = *****
REMARK  5 active torsions:
REMARK  status: ('A' for Active; 'I' for Inactive)
REMARK    1  A    between atoms: C_1  and  O_2
REMARK    2  A    between atoms: O_2  and  C_3
REMARK    3  A    between atoms: C_4  and  O_14
REMARK    4  A    between atoms: O_14  and  C_15
REMARK    5  A    between atoms: C_15  and  C_16
REMARK                            x       y       z     vdW  Elec       q    Type
REMARK                         _______ _______ _______ _____ _____    ______ ____
ROOT
ATOM      1  C   UNL     1       3.209  -1.328  -0.198  0.00  0.00    +0.000 A 
ATOM      2  C   UNL     1       4.314  -1.793   0.534  0.00  0.00    +0.000 A 
ATOM      3  C   UNL     1       5.049  -2.879   0.039  0.00  0.00    +0.000 A 
ATOM      4  C   UNL     1       4.665  -3.526  -1.142  0.00  0.00    +0.000 A 
ATOM      5  C   UNL     1       3.540  -3.095  -1.845  0.00  0.00    +0.000 A 
ATOM      6  C   UNL     1       2.824  -2.001  -1.364  0.00  0.00    +0.000 A 
ATOM      7  O   UNL     1       1.685  -1.534  -2.060  0.00  0.00    +0.000 OA
ATOM      8  C   UNL     1       1.240  -2.146  -3.221  0.00  0.00    +0.000 A 
ATOM      9  O   UNL     1       0.256  -1.756  -3.839  0.00  0.00    +0.000 OA
ATOM     10  C   UNL     1       2.014  -3.304  -3.700  0.00  0.00    +0.000 A 
ATOM     11  C   UNL     1       3.098  -3.756  -3.062  0.00  0.00    +0.000 A 
ENDROOT
BRANCH   1  13
ATOM     12  C   UNL     1       3.134   0.933   0.377  0.00  0.00    +0.000 C 
ATOM     13  O   UNL     1       2.414  -0.287   0.210  0.00  0.00    +0.000 OA
ENDBRANCH   1  13
BRANCH   2  14
ATOM     14  O   UNL     1       4.609  -1.140   1.701  0.00  0.00    +0.000 OA
BRANCH  14  15
ATOM     15  C   UNL     1       5.416  -1.834   2.654  0.00  0.00    +0.000 C 
BRANCH  15  16
ATOM     16  C   UNL     1       5.392  -1.097   3.973  0.00  0.00    +0.000 A 
ATOM     17  C   UNL     1       5.269  -1.805   5.177  0.00  0.00    +0.000 A 
ATOM     18  C   UNL     1       5.277  -1.133   6.401  0.00  0.00    +0.000 A 
ATOM     19  C   UNL     1       5.416   0.253   6.435  0.00  0.00    +0.000 A 
ATOM     20  C   UNL     1       5.551   0.968   5.247  0.00  0.00    +0.000 A 
ATOM     21  C   UNL     1       5.546   0.297   4.023  0.00  0.00    +0.000 A 
ENDBRANCH  15  16
ENDBRANCH  14  15
ENDBRANCH   2  14
TORSDOF 4
