REMARK  Name = *****
REMARK  4 active torsions:
REMARK  status: ('A' for Active; 'I' for Inactive)
REMARK    1  A    between atoms: C_1  and  C_2
REMARK    2  A    between atoms: C_2  and  C_7
REMARK    3  A    between atoms: C_7  and  C_8
REMARK    4  A    between atoms: C_7  and  O_17
REMARK                            x       y       z     vdW  Elec       q    Type
REMARK                         _______ _______ _______ _____ _____    ______ ____
ROOT
ATOM      1  C   UNL     1       2.994   0.192  -1.460  0.00  0.00    +0.000 C 
ENDROOT
BRANCH   1   2
ATOM      2  C   UNL     1       2.472   1.388  -2.225  0.00  0.00    +0.000 A 
ATOM      3  C   UNL     1       2.868   2.695  -2.007  0.00  0.00    +0.000 A 
ATOM      4  S   UNL     1       2.087   3.815  -3.019  0.00  0.00    +0.000 S 
ATOM      5  C   UNL     1       1.195   2.582  -3.817  0.00  0.00    +0.000 A 
ATOM      6  C   UNL     1       0.269   2.760  -4.865  0.00  0.00    +0.000 A 
ATOM      7  C   UNL     1      -0.369   1.644  -5.406  0.00  0.00    +0.000 A 
ATOM      8  C   UNL     1      -0.096   0.376  -4.917  0.00  0.00    +0.000 A 
ATOM      9  C   UNL     1       0.822   0.205  -3.876  0.00  0.00    +0.000 A 
ATOM     10  C   UNL     1       1.493   1.317  -3.300  0.00  0.00    +0.000 A 
ENDBRANCH   1   2
BRANCH   1  12
ATOM     11  C   UNL     1       0.860  -0.067  -0.047  0.00  0.00    +0.000 C 
ATOM     12  C   UNL     1       2.391   0.031  -0.037  0.00  0.00    +0.000 C 
ATOM     13  C   UNL     1       3.024  -1.145   0.779  0.00  0.00    +0.000 C 
ATOM     14  C   UNL     1       3.898  -0.183   1.606  0.00  0.00    +0.000 C 
ATOM     15  C   UNL     1       2.969   0.898   1.095  0.00  0.00    +0.000 C 
ATOM     16  C   UNL     1       2.731   2.145   1.513  0.00  0.00    +0.000 C 
ENDBRANCH   1  12
BRANCH   1  17
ATOM     17  O   UNL     1       4.428   0.212  -1.407  0.00  0.00    +0.000 OA
ATOM     18  H   UNL     1       4.722   0.991  -0.910  0.00  0.00    +0.000 HD
ENDBRANCH   1  17
TORSDOF 3
