MODEL 1
REMARK VINA RESULT:      -4.6      0.000      0.000
REMARK  Name = *****
REMARK  2 active torsions:
REMARK  status: ('A' for Active; 'I' for Inactive)
REMARK    1  A    between atoms: C_7  and  N_11
REMARK    2  A    between atoms: N_11  and  C_12
REMARK                            x       y       z     vdW  Elec       q    Type
REMARK                         _______ _______ _______ _____ _____    ______ ____
ROOT
ATOM      1  C   UNL     1      88.593  68.301  87.203  0.00  0.00    +0.000 A 
ATOM      2  C   UNL     1      89.723  68.074  86.399  0.00  0.00    +0.000 A 
ATOM      3  C   UNL     1      90.006  66.796  85.914  0.00  0.00    +0.000 A 
ATOM      4  C   UNL     1      89.142  65.772  86.250  0.00  0.00    +0.000 A 
ATOM      5  C   UNL     1      88.026  65.991  87.044  0.00  0.00    +0.000 A 
ATOM      6  C   UNL     1      87.729  67.253  87.530  0.00  0.00    +0.000 A 
ATOM      7  C   UNL     1      87.313  64.701  87.187  0.00  0.00    +0.000 C 
ATOM      8  C   UNL     1      88.269  63.775  86.428  0.00  0.00    +0.000 C 
ATOM      9  N   UNL     1      88.155  62.494  86.279  0.00  0.00    +0.000 NA
ATOM     10  O   UNL     1      89.316  64.461  85.838  0.00  0.00    +0.000 OA
ATOM     11  H   UNL     1      87.408  62.014  86.703  0.00  0.00    +0.000 HD
ENDROOT
BRANCH   7  12
ATOM     12  N   UNL     1      87.111  64.278  88.585  0.00  0.00    +0.000 N 
ATOM     13 BR   UNL     1      88.615  63.925  89.635  0.00  0.00    +0.000 Br
BRANCH  12  14
ATOM     14  C   UNL     1      85.879  63.647  88.868  0.00  0.00    +0.000 A 
ATOM     15  C   UNL     1      84.796  63.665  87.974  0.00  0.00    +0.000 A 
ATOM     16  C   UNL     1      83.585  63.031  88.278  0.00  0.00    +0.000 A 
ATOM     17  C   UNL     1      83.441  62.355  89.484  0.00  0.00    +0.000 A 
ATOM     18  C   UNL     1      84.499  62.304  90.384  0.00  0.00    +0.000 A 
ATOM     19  C   UNL     1      85.706  62.943  90.075  0.00  0.00    +0.000 A 
ATOM     20 CL   UNL     1      81.957  61.574  89.859  0.00  0.00    +0.000 Cl
ENDBRANCH  12  14
ENDBRANCH   7  12
TORSDOF 2
ENDMDL
