MODEL 1
REMARK VINA RESULT:      -5.1      0.000      0.000
REMARK  Name = *****
REMARK  3 active torsions:
REMARK  status: ('A' for Active; 'I' for Inactive)
REMARK    1  A    between atoms: C_1  and  C_2
REMARK    2  A    between atoms: C_2  and  C_3
REMARK    3  A    between atoms: C_5  and  C_13
REMARK                            x       y       z     vdW  Elec       q    Type
REMARK                         _______ _______ _______ _____ _____    ______ ____
ROOT
ATOM      1  C   UNL     1      99.460 127.671  82.582  0.00  0.00    +0.000 C 
ATOM      2  C   UNL     1     100.437 126.490  82.472  0.00  0.00    +0.000 C 
ATOM      3  C   UNL     1     101.841 127.011  82.175  0.00  0.00    +0.000 C 
ATOM      4  O   UNL     1     102.322 127.794  83.274  0.00  0.00    +0.000 OA
ATOM      5  C   UNL     1     101.470 128.796  83.655  0.00  0.00    +0.000 A 
ATOM      6  C   UNL     1     102.056 129.826  84.395  0.00  0.00    +0.000 A 
ATOM      7  C   UNL     1     101.294 130.916  84.805  0.00  0.00    +0.000 A 
ATOM      8  C   UNL     1      99.945 130.975  84.471  0.00  0.00    +0.000 A 
ATOM      9  C   UNL     1      99.354 129.935  83.748  0.00  0.00    +0.000 A 
ATOM     10  C   UNL     1     100.101 128.811  83.356  0.00  0.00    +0.000 A 
ENDROOT
BRANCH   3  11
ATOM     11  C   UNL     1     102.796 125.857  81.920  0.00  0.00    +0.000 A 
ATOM     12  C   UNL     1     103.205 125.042  82.988  0.00  0.00    +0.000 A 
ATOM     13  C   UNL     1     104.099 123.990  82.779  0.00  0.00    +0.000 A 
ATOM     14  C   UNL     1     104.598 123.740  81.502  0.00  0.00    +0.000 A 
ATOM     15  C   UNL     1     104.207 124.546  80.434  0.00  0.00    +0.000 A 
ATOM     16  C   UNL     1     103.315 125.600  80.642  0.00  0.00    +0.000 A 
ENDBRANCH   3  11
BRANCH   1  18
ATOM     17  C   UNL     1      98.253 126.385  84.453  0.00  0.00    +0.000 C 
ATOM     18  C   UNL     1      98.111 127.211  83.181  0.00  0.00    +0.000 C 
ENDBRANCH   1  18
TORSDOF 2
ENDMDL
