REMARK  Name = *****
REMARK  2 active torsions:
REMARK  status: ('A' for Active; 'I' for Inactive)
REMARK    1  A    between atoms: C_2  and  C_12
REMARK    2  A    between atoms: C_15  and  C_18
REMARK                            x       y       z     vdW  Elec       q    Type
REMARK                         _______ _______ _______ _____ _____    ______ ____
ROOT
ATOM      1  C   UNL     1      -2.287   0.270  -0.435  0.00  0.00    +0.000 C 
ATOM      2  C   UNL     1      -1.765   1.424   0.415  0.00  0.00    +0.000 C 
ATOM      3  O   UNL     1      -0.460   1.836  -0.042  0.00  0.00    +0.000 OA
ATOM      4  C   UNL     1       0.453   0.818  -0.117  0.00  0.00    +0.000 A 
ATOM      5  C   UNL     1       1.798   1.181  -0.068  0.00  0.00    +0.000 A 
ATOM      6  C   UNL     1       2.789   0.199  -0.125  0.00  0.00    +0.000 A 
ATOM      7  C   UNL     1       2.437  -1.147  -0.242  0.00  0.00    +0.000 A 
ATOM      8  C   UNL     1       1.092  -1.513  -0.311  0.00  0.00    +0.000 A 
ATOM      9  C   UNL     1       0.105  -0.525  -0.255  0.00  0.00    +0.000 A 
ATOM     10  C   UNL     1      -1.320  -0.878  -0.381  0.00  0.00    +0.000 C 
ATOM     11  O   UNL     1      -1.681  -2.045  -0.498  0.00  0.00    +0.000 OA
ENDROOT
BRANCH   2  12
ATOM     12  C   UNL     1      -1.781   1.277   1.935  0.00  0.00    +0.000 A 
ATOM     13  C   UNL     1      -2.315   0.163   2.599  0.00  0.00    +0.000 A 
ATOM     14  C   UNL     1      -2.304   0.089   3.996  0.00  0.00    +0.000 A 
ATOM     15  C   UNL     1      -1.762   1.125   4.766  0.00  0.00    +0.000 A 
ATOM     16  C   UNL     1      -1.246   2.248   4.111  0.00  0.00    +0.000 A 
ATOM     17  C   UNL     1      -1.256   2.322   2.716  0.00  0.00    +0.000 A 
BRANCH  15  18
ATOM     18  C   UNL     1      -1.782   1.054   6.270  0.00  0.00    +0.000 C 
ATOM     19  F   UNL     1      -1.680  -0.218   6.747  0.00  0.00    +0.000 F 
ATOM     20  F   UNL     1      -0.764   1.749   6.853  0.00  0.00    +0.000 F 
ENDBRANCH  15  18
ENDBRANCH   2  12
TORSDOF 2
