MODEL 1
REMARK VINA RESULT:      -4.4      0.000      0.000
REMARK  Name = *****
REMARK  7 active torsions:
REMARK  status: ('A' for Active; 'I' for Inactive)
REMARK    1  A    between atoms: C_4  and  C_7
REMARK    2  A    between atoms: C_7  and  C_8
REMARK    3  A    between atoms: C_7  and  O_20
REMARK    4  A    between atoms: C_8  and  C_9
REMARK    5  A    between atoms: C_8  and  C_12
REMARK    6  A    between atoms: C_9  and  C_10
REMARK    7  A    between atoms: C_12  and  C_14
REMARK                            x       y       z     vdW  Elec       q    Type
REMARK                         _______ _______ _______ _____ _____    ______ ____
ROOT
ATOM      1  C   UNL     1      88.479  65.535  86.039  0.00  0.00    +0.000 C 
ENDROOT
BRANCH   1   2
ATOM      2  C   UNL     1      89.462  66.635  86.441  0.00  0.00    +0.000 C 
ATOM      3  O   UNL     1      90.676  66.479  86.291  0.00  0.00    +0.000 OA
BRANCH   2   4
ATOM      4  C   UNL     1      88.964  67.952  86.952  0.00  0.00    +0.000 A 
ATOM      5  C   UNL     1      87.740  68.102  87.616  0.00  0.00    +0.000 A 
ATOM      6  C   UNL     1      87.317  69.369  88.033  0.00  0.00    +0.000 A 
ATOM      7  C   UNL     1      88.108  70.490  87.792  0.00  0.00    +0.000 A 
ATOM      8  C   UNL     1      89.327  70.351  87.133  0.00  0.00    +0.000 A 
ATOM      9  C   UNL     1      89.752  69.089  86.714  0.00  0.00    +0.000 A 
ENDBRANCH   2   4
ENDBRANCH   1   2
BRANCH   1  10
ATOM     10  C   UNL     1      88.731  64.244  86.859  0.00  0.00    +0.000 C 
BRANCH  10  14
ATOM     11  C   UNL     1      87.294  64.377  90.946  0.00  0.00    +0.000 A 
ATOM     12  C   UNL     1      86.484  64.846  89.915  0.00  0.00    +0.000 A 
ATOM     13  C   UNL     1      86.936  64.811  88.593  0.00  0.00    +0.000 A 
ATOM     14  C   UNL     1      88.205  64.300  88.283  0.00  0.00    +0.000 A 
ATOM     15  C   UNL     1      89.007  63.824  89.335  0.00  0.00    +0.000 A 
ATOM     16  C   UNL     1      88.557  63.868  90.657  0.00  0.00    +0.000 A 
ENDBRANCH  10  14
BRANCH  10  17
ATOM     17  O   UNL     1      90.096  63.832  86.822  0.00  0.00    +0.000 OA
ATOM     18  H   UNL     1      90.214  63.169  86.125  0.00  0.00    +0.000 HD
ENDBRANCH  10  17
ENDBRANCH   1  10
BRANCH   1  19
ATOM     19  C   UNL     1      88.647  65.316  84.518  0.00  0.00    +0.000 C 
BRANCH  19  20
ATOM     20  C   UNL     1      87.540  65.964  83.685  0.00  0.00    +0.000 C 
ATOM     21  I   UNL     1      85.726  66.099  84.819  0.00  0.00    +0.000 I 
ENDBRANCH  19  20
ENDBRANCH   1  19
TORSDOF 7
ENDMDL
