MODEL 1
REMARK VINA RESULT:      -5.3      0.000      0.000
REMARK  Name = *****
REMARK  1 active torsions:
REMARK  status: ('A' for Active; 'I' for Inactive)
REMARK    1  A    between atoms: C_10  and  C_11
REMARK                            x       y       z     vdW  Elec       q    Type
REMARK                         _______ _______ _______ _____ _____    ______ ____
ROOT
ATOM      1  C   UNL     1     103.428 125.464  80.462  0.00  0.00    +0.000 C 
ATOM      2  C   UNL     1     104.587 124.608  79.971  0.00  0.00    +0.000 C 
ATOM      3  C   UNL     1     104.825 123.458  80.898  0.00  0.00    +0.000 A 
ATOM      4  C   UNL     1     104.292 123.439  82.185  0.00  0.00    +0.000 A 
ATOM      5  N   UNL     1     104.478 122.422  83.050  0.00  0.00    +0.000 NA
ATOM      6  C   UNL     1     105.241 121.390  82.634  0.00  0.00    +0.000 A 
ATOM      7  C   UNL     1     105.833 121.324  81.384  0.00  0.00    +0.000 A 
ATOM      8  C   UNL     1     105.622 122.379  80.505  0.00  0.00    +0.000 A 
ATOM      9  O   UNL     1     103.496 124.436  82.676  0.00  0.00    +0.000 OA
ATOM     10  C   UNL     1     103.582 125.676  81.968  0.00  0.00    +0.000 C 
ENDROOT
BRANCH  10  11
ATOM     11  C   UNL     1     102.499 126.616  82.478  0.00  0.00    +0.000 A 
ATOM     12  C   UNL     1     101.135 126.334  82.289  0.00  0.00    +0.000 A 
ATOM     13  C   UNL     1     100.150 127.219  82.743  0.00  0.00    +0.000 A 
ATOM     14  C   UNL     1     100.521 128.404  83.384  0.00  0.00    +0.000 A 
ATOM     15  C   UNL     1     101.875 128.698  83.570  0.00  0.00    +0.000 A 
ATOM     16  C   UNL     1     102.857 127.811  83.119  0.00  0.00    +0.000 A 
ATOM     17 CL   UNL     1      99.364 129.549  83.964  0.00  0.00    +0.000 Cl
ATOM     18 CL   UNL     1      98.498 126.792  82.470  0.00  0.00    +0.000 Cl
ENDBRANCH  10  11
TORSDOF 1
ENDMDL
