MODEL 1
REMARK VINA RESULT:      -5.0      0.000      0.000
REMARK  Name = *****
REMARK  1 active torsions:
REMARK  status: ('A' for Active; 'I' for Inactive)
REMARK    1  A    between atoms: C_2  and  C_12
REMARK                            x       y       z     vdW  Elec       q    Type
REMARK                         _______ _______ _______ _____ _____    ______ ____
ROOT
ATOM      1  C   UNL     1      89.656  70.775  86.064  0.00  0.00    +0.000 C 
ATOM      2  C   UNL     1      89.314  69.936  87.297  0.00  0.00    +0.000 C 
ATOM      3  O   UNL     1      88.310  70.609  88.081  0.00  0.00    +0.000 OA
ATOM      4  C   UNL     1      87.240  71.120  87.391  0.00  0.00    +0.000 A 
ATOM      5  C   UNL     1      86.136  71.467  88.176  0.00  0.00    +0.000 A 
ATOM      6  C   UNL     1      84.971  71.937  87.576  0.00  0.00    +0.000 A 
ATOM      7  C   UNL     1      84.907  72.056  86.192  0.00  0.00    +0.000 A 
ATOM      8  C   UNL     1      86.015  71.724  85.409  0.00  0.00    +0.000 A 
ATOM      9  C   UNL     1      87.211  71.285  86.001  0.00  0.00    +0.000 A 
ATOM     10  C   UNL     1      88.420  70.917  85.187  0.00  0.00    +0.000 C 
ATOM     11 BR   UNL     1      88.826  72.284  83.835  0.00  0.00    +0.000 Br
ENDROOT
BRANCH   2  12
ATOM     12  C   UNL     1      88.988  68.466  87.032  0.00  0.00    +0.000 A 
ATOM     13  C   UNL     1      89.887  67.647  86.324  0.00  0.00    +0.000 A 
ATOM     14  C   UNL     1      89.604  66.298  86.094  0.00  0.00    +0.000 A 
ATOM     15  C   UNL     1      88.427  65.739  86.583  0.00  0.00    +0.000 A 
ATOM     16  C   UNL     1      87.537  66.524  87.309  0.00  0.00    +0.000 A 
ATOM     17  C   UNL     1      87.819  67.873  87.538  0.00  0.00    +0.000 A 
ENDBRANCH   2  12
TORSDOF 1
ENDMDL
