REMARK  Name = *****
REMARK  4 active torsions:
REMARK  status: ('A' for Active; 'I' for Inactive)
REMARK    1  A    between atoms: C_1  and  O_2
REMARK    2  A    between atoms: O_2  and  C_3
REMARK    3  A    between atoms: C_3  and  C_5
REMARK    4  A    between atoms: C_6  and  C_14
REMARK                            x       y       z     vdW  Elec       q    Type
REMARK                         _______ _______ _______ _____ _____    ______ ____
ROOT
ATOM      1  C   UNL     1       4.786   0.852   1.181  0.00  0.00    +0.000 C 
ATOM      2  C   UNL     1       5.447   2.227   0.917  0.00  0.00    +0.000 C 
ATOM      3  O   UNL     1       6.098   2.705   2.126  0.00  0.00    +0.000 OA
ATOM      4  C   UNL     1       5.774   1.798   3.093  0.00  0.00    +0.000 A 
ATOM      5  C   UNL     1       6.167   1.916   4.412  0.00  0.00    +0.000 A 
ATOM      6  C   UNL     1       5.787   0.912   5.303  0.00  0.00    +0.000 A 
ATOM      7  C   UNL     1       5.031  -0.183   4.857  0.00  0.00    +0.000 A 
ATOM      8  C   UNL     1       4.649  -0.284   3.517  0.00  0.00    +0.000 A 
ATOM      9  C   UNL     1       5.026   0.726   2.644  0.00  0.00    +0.000 A 
ENDROOT
BRANCH   2  10
ATOM     10  C   UNL     1       6.471   2.204  -0.246  0.00  0.00    +0.000 C 
ATOM     11  C   UNL     1       7.728   1.369   0.070  0.00  0.00    +0.000 C 
ATOM     12  C   UNL     1       8.723   1.385  -1.089  0.00  0.00    +0.000 C 
ATOM     13  C   UNL     1       9.112   2.807  -1.477  0.00  0.00    +0.000 C 
ATOM     14  C   UNL     1       7.884   3.659  -1.777  0.00  0.00    +0.000 C 
ATOM     15  C   UNL     1       6.888   3.640  -0.620  0.00  0.00    +0.000 C 
ENDBRANCH   2  10
BRANCH   1  16
ATOM     16  C   UNL     1       3.328   0.862   0.769  0.00  0.00    +0.000 C 
ATOM     17  O   UNL     1       2.380   0.524   1.465  0.00  0.00    +0.000 OA
BRANCH  16  19
ATOM     18  C   UNL     1       1.881   1.226  -1.043  0.00  0.00    +0.000 C 
ATOM     19  O   UNL     1       3.221   1.224  -0.546  0.00  0.00    +0.000 OA
ENDBRANCH  16  19
ENDBRANCH   1  16
TORSDOF 3
