MODEL 1
REMARK VINA RESULT:      -4.6      0.000      0.000
REMARK  Name = *****
REMARK  1 active torsions:
REMARK  status: ('A' for Active; 'I' for Inactive)
REMARK    1  A    between atoms: C_4  and  P_7
REMARK                            x       y       z     vdW  Elec       q    Type
REMARK                         _______ _______ _______ _____ _____    ______ ____
ROOT
ATOM      1  P   UNL     1     101.727 126.610  83.760  0.00  0.00    +0.000 P 
ATOM      2  O   UNL     1     101.508 125.441  84.675  0.00  0.00    +0.000 OA
ATOM      3  N   UNL     1     100.413 127.459  83.223  0.00  0.00    +0.000 N 
ATOM      4  C   UNL     1     100.410 128.793  83.697  0.00  0.00    +0.000 A 
ATOM      5  C   UNL     1      99.358 129.663  83.425  0.00  0.00    +0.000 A 
ATOM      6  C   UNL     1      99.434 130.992  83.850  0.00  0.00    +0.000 A 
ATOM      7  C   UNL     1     100.567 131.455  84.528  0.00  0.00    +0.000 A 
ATOM      8  C   UNL     1     101.636 130.595  84.784  0.00  0.00    +0.000 A 
ATOM      9  C   UNL     1     101.561 129.270  84.362  0.00  0.00    +0.000 A 
ATOM     10  S   UNL     1     102.882 128.101  84.661  0.00  0.00    +0.000 S 
ATOM     11  H   UNL     1      99.714 127.081  82.641  0.00  0.00    +0.000 HD
ENDROOT
BRANCH   1  15
ATOM     12  C   UNL     1     104.634 125.621  80.221  0.00  0.00    +0.000 C 
ATOM     13  C   UNL     1     104.000 124.476  81.003  0.00  0.00    +0.000 C 
ATOM     14  C   UNL     1     103.427 124.954  82.334  0.00  0.00    +0.000 C 
ATOM     15  C   UNL     1     102.435 126.115  82.158  0.00  0.00    +0.000 C 
ATOM     16  C   UNL     1     103.086 127.255  81.361  0.00  0.00    +0.000 C 
ATOM     17  C   UNL     1     103.655 126.773  80.030  0.00  0.00    +0.000 C 
ENDBRANCH   1  15
TORSDOF 1
ENDMDL
