MODEL 1
REMARK VINA RESULT:      -5.1      0.000      0.000
REMARK  Name = *****
REMARK  2 active torsions:
REMARK  status: ('A' for Active; 'I' for Inactive)
REMARK    1  A    between atoms: C_1  and  C_2
REMARK    2  A    between atoms: C_9  and  C_12
REMARK                            x       y       z     vdW  Elec       q    Type
REMARK                         _______ _______ _______ _____ _____    ______ ____
ROOT
ATOM      1  C   UNL     1      82.665  73.480  87.337  0.00  0.00    +0.000 C 
ATOM      2  C   UNL     1      83.930  72.681  87.444  0.00  0.00    +0.000 A 
ATOM      3  C   UNL     1      84.682  72.382  86.299  0.00  0.00    +0.000 A 
ATOM      4  C   UNL     1      85.881  71.664  86.396  0.00  0.00    +0.000 A 
ATOM      5  C   UNL     1      86.336  71.254  87.651  0.00  0.00    +0.000 A 
ATOM      6  C   UNL     1      85.599  71.558  88.797  0.00  0.00    +0.000 A 
ATOM      7  C   UNL     1      84.407  72.275  88.696  0.00  0.00    +0.000 A 
ATOM      8  O   UNL     1      87.483  70.538  87.852  0.00  0.00    +0.000 OA
ATOM      9  C   UNL     1      88.333  70.275  86.719  0.00  0.00    +0.000 C 
ATOM     10  C   UNL     1      87.802  70.685  85.369  0.00  0.00    +0.000 C 
ATOM     11  C   UNL     1      86.648  71.339  85.205  0.00  0.00    +0.000 C 
ENDROOT
BRANCH   9  12
ATOM     12  C   UNL     1      88.700  68.799  86.742  0.00  0.00    +0.000 A 
ATOM     13  C   UNL     1      87.845  67.853  87.331  0.00  0.00    +0.000 A 
ATOM     14  C   UNL     1      88.175  66.497  87.331  0.00  0.00    +0.000 A 
ATOM     15  C   UNL     1      89.360  66.068  86.738  0.00  0.00    +0.000 A 
ATOM     16  C   UNL     1      90.216  66.993  86.144  0.00  0.00    +0.000 A 
ATOM     17  C   UNL     1      89.889  68.351  86.143  0.00  0.00    +0.000 A 
ENDBRANCH   9  12
TORSDOF 1
ENDMDL
