MODEL 1
REMARK VINA RESULT:      -4.9      0.000      0.000
REMARK  Name = *****
REMARK  1 active torsions:
REMARK  status: ('A' for Active; 'I' for Inactive)
REMARK    1  A    between atoms: C_2  and  C_12
REMARK                            x       y       z     vdW  Elec       q    Type
REMARK                         _______ _______ _______ _____ _____    ______ ____
ROOT
ATOM      1  C   UNL     1     103.472 125.699  80.418  0.00  0.00    +0.000 C 
ATOM      2  C   UNL     1     103.550 125.829  81.940  0.00  0.00    +0.000 C 
ATOM      3  O   UNL     1     103.463 124.547  82.579  0.00  0.00    +0.000 OA
ATOM      4  C   UNL     1     104.299 123.590  82.070  0.00  0.00    +0.000 A 
ATOM      5  C   UNL     1     104.500 122.469  82.877  0.00  0.00    +0.000 A 
ATOM      6  C   UNL     1     105.314 121.427  82.438  0.00  0.00    +0.000 A 
ATOM      7  C   UNL     1     105.920 121.499  81.186  0.00  0.00    +0.000 A 
ATOM      8  C   UNL     1     105.708 122.613  80.372  0.00  0.00    +0.000 A 
ATOM      9  C   UNL     1     104.892 123.672  80.806  0.00  0.00    +0.000 A 
ATOM     10  C   UNL     1     104.632 124.852  79.918  0.00  0.00    +0.000 C 
ATOM     11 BR   UNL     1     106.256 125.948  79.815  0.00  0.00    +0.000 Br
ENDROOT
BRANCH   2  12
ATOM     12  C   UNL     1     102.422 126.716  82.444  0.00  0.00    +0.000 A 
ATOM     13  C   UNL     1     102.679 127.930  83.100  0.00  0.00    +0.000 A 
ATOM     14  C   UNL     1     101.629 128.715  83.581  0.00  0.00    +0.000 A 
ATOM     15  C   UNL     1     100.311 128.293  83.419  0.00  0.00    +0.000 A 
ATOM     16  C   UNL     1     100.041 127.086  82.777  0.00  0.00    +0.000 A 
ATOM     17  C   UNL     1     101.089 126.301  82.294  0.00  0.00    +0.000 A 
ENDBRANCH   2  12
TORSDOF 1
ENDMDL
