MODEL 1
REMARK VINA RESULT:      -5.1      0.000      0.000
REMARK  Name = *****
REMARK  1 active torsions:
REMARK  status: ('A' for Active; 'I' for Inactive)
REMARK    1  A    between atoms: C_3  and  C_11
REMARK                            x       y       z     vdW  Elec       q    Type
REMARK                         _______ _______ _______ _____ _____    ______ ____
ROOT
ATOM      1  C   UNL     1      86.525  68.453  88.743  0.00  0.00    +0.000 C 
ATOM      2  C   UNL     1      86.755  69.594  89.727  0.00  0.00    +0.000 C 
ATOM      3  C   UNL     1      87.152  70.881  88.944  0.00  0.00    +0.000 C 
ATOM      4  O   UNL     1      88.415  70.641  88.269  0.00  0.00    +0.000 OA
ATOM      5  C   UNL     1      88.575  69.428  87.653  0.00  0.00    +0.000 A 
ATOM      6  C   UNL     1      89.684  69.314  86.814  0.00  0.00    +0.000 A 
ATOM      7  C   UNL     1      89.909  68.133  86.108  0.00  0.00    +0.000 A 
ATOM      8  C   UNL     1      89.025  67.064  86.242  0.00  0.00    +0.000 A 
ATOM      9  C   UNL     1      87.925  67.171  87.094  0.00  0.00    +0.000 A 
ATOM     10  C   UNL     1      87.701  68.350  87.817  0.00  0.00    +0.000 A 
ATOM     11 CL   UNL     1      87.544  72.198  90.147  0.00  0.00    +0.000 Cl
ATOM     12 CL   UNL     1      85.360  69.707  90.845  0.00  0.00    +0.000 Cl
ENDROOT
BRANCH   3  13
ATOM     13  C   UNL     1      86.106  71.466  87.969  0.00  0.00    +0.000 A 
ATOM     14  C   UNL     1      84.912  72.056  88.430  0.00  0.00    +0.000 A 
ATOM     15  C   UNL     1      83.957  72.568  87.546  0.00  0.00    +0.000 A 
ATOM     16  C   UNL     1      84.178  72.523  86.175  0.00  0.00    +0.000 A 
ATOM     17  C   UNL     1      85.360  71.978  85.689  0.00  0.00    +0.000 A 
ATOM     18  C   UNL     1      86.312  71.463  86.574  0.00  0.00    +0.000 A 
ENDBRANCH   3  13
TORSDOF 1
ENDMDL
