MODEL 1
REMARK VINA RESULT:      -4.2      0.000      0.000
REMARK  Name = *****
REMARK  3 active torsions:
REMARK  status: ('A' for Active; 'I' for Inactive)
REMARK    1  A    between atoms: C_4  and  C_7
REMARK    2  A    between atoms: C_7  and  C_8
REMARK    3  A    between atoms: C_7  and  O_17
REMARK                            x       y       z     vdW  Elec       q    Type
REMARK                         _______ _______ _______ _____ _____    ______ ____
ROOT
ATOM      1  C   UNL     1     103.803 125.165  82.690  0.00  0.00    +0.000 C 
ENDROOT
BRANCH   1   2
ATOM      2  C   UNL     1     102.709 126.164  82.879  0.00  0.00    +0.000 A 
ATOM      3  C   UNL     1     102.660 127.425  83.439  0.00  0.00    +0.000 A 
ATOM      4  C   UNL     1     101.318 127.872  83.318  0.00  0.00    +0.000 A 
ATOM      5  C   UNL     1     100.610 129.034  83.669  0.00  0.00    +0.000 A 
ATOM      6  C   UNL     1      99.240 129.104  83.372  0.00  0.00    +0.000 A 
ATOM      7  C   UNL     1      98.585 128.044  82.740  0.00  0.00    +0.000 A 
ATOM      8  C   UNL     1      99.272 126.878  82.383  0.00  0.00    +0.000 A 
ATOM      9  C   UNL     1     100.630 126.839  82.692  0.00  0.00    +0.000 A 
ATOM     10  O   UNL     1     101.470 125.800  82.431  0.00  0.00    +0.000 OA
ENDBRANCH   1   2
BRANCH   1  14
ATOM     11  C   UNL     1     107.078 124.617  80.659  0.00  0.00    +0.000 C 
ATOM     12  C   UNL     1     106.377 125.967  80.725  0.00  0.00    +0.000 C 
ATOM     13  S   UNL     1     104.682 125.930  80.077  0.00  0.00    +0.000 S 
ATOM     14  C   UNL     1     103.925 124.696  81.211  0.00  0.00    +0.000 C 
ATOM     15  S   UNL     1     104.784 123.083  81.004  0.00  0.00    +0.000 S 
ATOM     16  C   UNL     1     106.454 123.542  81.540  0.00  0.00    +0.000 C 
ENDBRANCH   1  14
BRANCH   1  17
ATOM     17  O   UNL     1     103.491 124.079  83.572  0.00  0.00    +0.000 OA
ATOM     18  H   UNL     1     102.743 124.328  84.139  0.00  0.00    +0.000 HD
ENDBRANCH   1  17
TORSDOF 3
ENDMDL
