MODEL 1
REMARK VINA RESULT:      -4.3      0.000      0.000
REMARK  Name = *****
REMARK  5 active torsions:
REMARK  status: ('A' for Active; 'I' for Inactive)
REMARK    1  A    between atoms: C_1  and  O_2
REMARK    2  A    between atoms: O_2  and  C_3
REMARK    3  A    between atoms: C_5  and  C_13
REMARK    4  A    between atoms: C_5  and  O_18
REMARK    5  A    between atoms: O_18  and  C_19
REMARK                            x       y       z     vdW  Elec       q    Type
REMARK                         _______ _______ _______ _____ _____    ______ ____
ROOT
ATOM      1  C   UNL     1     103.410 124.930  84.232  0.00  0.00    +0.000 C 
ATOM      2  C   UNL     1     102.101 125.710  84.200  0.00  0.00    +0.000 C 
ATOM      3  C   UNL     1     102.224 126.837  83.170  0.00  0.00    +0.000 C 
ATOM      4  O   UNL     1     102.450 126.315  81.852  0.00  0.00    +0.000 OA
ATOM      5  C   UNL     1     103.359 125.299  81.744  0.00  0.00    +0.000 A 
ATOM      6  C   UNL     1     103.766 124.985  80.446  0.00  0.00    +0.000 A 
ATOM      7  C   UNL     1     104.711 123.982  80.230  0.00  0.00    +0.000 A 
ATOM      8  C   UNL     1     105.251 123.294  81.313  0.00  0.00    +0.000 A 
ATOM      9  C   UNL     1     104.835 123.598  82.609  0.00  0.00    +0.000 A 
ATOM     10  C   UNL     1     103.866 124.588  82.836  0.00  0.00    +0.000 A 
ENDROOT
BRANCH   3  11
ATOM     11  C   UNL     1     100.911 127.622  83.156  0.00  0.00    +0.000 A 
ATOM     12  C   UNL     1     100.676 128.902  83.638  0.00  0.00    +0.000 A 
ATOM     13  C   UNL     1      99.321 129.315  83.487  0.00  0.00    +0.000 A 
ATOM     14  C   UNL     1      98.549 128.335  82.909  0.00  0.00    +0.000 A 
ATOM     15  S   UNL     1      99.451 126.929  82.558  0.00  0.00    +0.000 S 
ENDBRANCH   3  11
BRANCH   1  17
ATOM     16  C   UNL     1     103.949 123.970  86.393  0.00  0.00    +0.000 C 
ATOM     17  O   UNL     1     103.368 123.792  85.108  0.00  0.00    +0.000 OA
ENDBRANCH   1  17
BRANCH   3  18
ATOM     18  O   UNL     1     103.258 127.739  83.611  0.00  0.00    +0.000 OA
ATOM     19  C   UNL     1     103.882 128.470  82.560  0.00  0.00    +0.000 C 
ENDBRANCH   3  18
TORSDOF 3
ENDMDL
