MODEL 1
REMARK VINA RESULT:      -5.2      0.000      0.000
REMARK  Name = *****
REMARK  2 active torsions:
REMARK  status: ('A' for Active; 'I' for Inactive)
REMARK    1  A    between atoms: C_1  and  C_2
REMARK    2  A    between atoms: C_11  and  C_13
REMARK                            x       y       z     vdW  Elec       q    Type
REMARK                         _______ _______ _______ _____ _____    ______ ____
ROOT
ATOM      1  C   UNL     1     105.064 128.904  82.881  0.00  0.00    +0.000 C 
ATOM      2  C   UNL     1     103.685 128.389  82.588  0.00  0.00    +0.000 C 
ATOM      3  C   UNL     1     102.650 128.633  83.404  0.00  0.00    +0.000 C 
ATOM      4  C   UNL     1     101.268 128.205  83.146  0.00  0.00    +0.000 A 
ATOM      5  C   UNL     1     100.269 129.067  83.644  0.00  0.00    +0.000 A 
ATOM      6  C   UNL     1      98.911 128.770  83.512  0.00  0.00    +0.000 A 
ATOM      7  C   UNL     1      98.524 127.594  82.886  0.00  0.00    +0.000 A 
ATOM      8  C   UNL     1      99.499 126.728  82.398  0.00  0.00    +0.000 A 
ATOM      9  C   UNL     1     100.870 127.022  82.510  0.00  0.00    +0.000 A 
ATOM     10  O   UNL     1     101.639 126.017  82.008  0.00  0.00    +0.000 OA
ATOM     11  C   UNL     1     102.987 126.166  81.557  0.00  0.00    +0.000 C 
ATOM     12  C   UNL     1     103.510 127.593  81.330  0.00  0.00    +0.000 C 
ENDROOT
BRANCH  11  13
ATOM     13  C   UNL     1     103.933 125.250  82.382  0.00  0.00    +0.000 C 
ATOM     14  C   UNL     1     103.346 124.783  83.724  0.00  0.00    +0.000 C 
ATOM     15  C   UNL     1     104.265 123.807  84.456  0.00  0.00    +0.000 C 
ATOM     16  C   UNL     1     104.523 122.576  83.600  0.00  0.00    +0.000 C 
ATOM     17  C   UNL     1     105.159 122.960  82.276  0.00  0.00    +0.000 C 
ATOM     18  C   UNL     1     104.355 124.025  81.559  0.00  0.00    +0.000 C 
ATOM     19  O   UNL     1     104.213 123.956  80.337  0.00  0.00    +0.000 OA
ENDBRANCH  11  13
TORSDOF 1
ENDMDL
