MODEL 1
REMARK VINA RESULT:      -4.8      0.000      0.000
REMARK  Name = *****
REMARK  5 active torsions:
REMARK  status: ('A' for Active; 'I' for Inactive)
REMARK    1  A    between atoms: C_1  and  C_2
REMARK    2  A    between atoms: C_2  and  C_4
REMARK    3  A    between atoms: C_4  and  C_5
REMARK    4  A    between atoms: C_6  and  C_14
REMARK    5  A    between atoms: C_14  and  C_16
REMARK                            x       y       z     vdW  Elec       q    Type
REMARK                         _______ _______ _______ _____ _____    ______ ____
ROOT
ATOM      1  C   UNL     1      88.569  70.123  85.866  0.00  0.00    +0.000 C 
ATOM      2  C   UNL     1      88.775  69.419  87.232  0.00  0.00    +0.000 C 
ATOM      3  O   UNL     1      88.029  70.143  88.243  0.00  0.00    +0.000 OA
ATOM      4  C   UNL     1      87.070  70.818  87.535  0.00  0.00    +0.000 A 
ATOM      5  C   UNL     1      85.986  71.450  88.106  0.00  0.00    +0.000 A 
ATOM      6  C   UNL     1      85.089  72.101  87.258  0.00  0.00    +0.000 A 
ATOM      7  C   UNL     1      85.297  72.108  85.869  0.00  0.00    +0.000 A 
ATOM      8  C   UNL     1      86.411  71.472  85.313  0.00  0.00    +0.000 A 
ATOM      9  C   UNL     1      87.292  70.831  86.168  0.00  0.00    +0.000 A 
ENDROOT
BRANCH   2  10
ATOM     10  C   UNL     1      88.325  67.947  87.220  0.00  0.00    +0.000 C 
ATOM     11  O   UNL     1      87.459  67.514  87.983  0.00  0.00    +0.000 OA
BRANCH  10  12
ATOM     12  C   UNL     1      88.942  67.007  86.230  0.00  0.00    +0.000 A 
ATOM     13  C   UNL     1      88.194  66.310  85.272  0.00  0.00    +0.000 A 
ATOM     14  C   UNL     1      88.825  65.438  84.382  0.00  0.00    +0.000 A 
ATOM     15  C   UNL     1      90.206  65.252  84.440  0.00  0.00    +0.000 A 
ATOM     16  C   UNL     1      90.959  65.940  85.388  0.00  0.00    +0.000 A 
ATOM     17  C   UNL     1      90.331  66.813  86.278  0.00  0.00    +0.000 A 
ENDBRANCH  10  12
ENDBRANCH   2  10
BRANCH   1  18
ATOM     18  C   UNL     1      89.673  71.136  85.542  0.00  0.00    +0.000 C 
BRANCH  18  20
ATOM     19  C   UNL     1      90.062  69.470  83.626  0.00  0.00    +0.000 C 
ATOM     20  C   UNL     1      90.456  70.758  84.300  0.00  0.00    +0.000 C 
ATOM     21  O   UNL     1      91.333  71.480  83.830  0.00  0.00    +0.000 OA
ENDBRANCH  18  20
ENDBRANCH   1  18
TORSDOF 4
ENDMDL
