REMARK  Name = *****
REMARK  1 active torsions:
REMARK  status: ('A' for Active; 'I' for Inactive)
REMARK    1  A    between atoms: C_11  and  C_12
REMARK                            x       y       z     vdW  Elec       q    Type
REMARK                         _______ _______ _______ _____ _____    ______ ____
ROOT
ATOM      1  C   UNL     1      -2.466   0.656  -0.348  0.00  0.00    +0.000 C 
ATOM      2  C   UNL     1      -1.283   1.543   0.008  0.00  0.00    +0.000 C 
ATOM      3  C   UNL     1      -0.009   0.755   0.008  0.00  0.00    +0.000 A 
ATOM      4  C   UNL     1      -0.018  -0.639   0.039  0.00  0.00    +0.000 A 
ATOM      5  N   UNL     1       1.104  -1.388   0.033  0.00  0.00    +0.000 NA
ATOM      6  C   UNL     1       2.286  -0.728   0.022  0.00  0.00    +0.000 A 
ATOM      7  C   UNL     1       2.398   0.652   0.014  0.00  0.00    +0.000 A 
ATOM      8  C   UNL     1       1.230   1.406   0.009  0.00  0.00    +0.000 A 
ATOM      9 CL   UNL     1       3.933   1.417   0.007  0.00  0.00    +0.000 Cl
ATOM     10  O   UNL     1      -1.169  -1.377   0.038  0.00  0.00    +0.000 OA
ATOM     11  C   UNL     1      -2.345  -0.657   0.426  0.00  0.00    +0.000 C 
ENDROOT
BRANCH  11  12
ATOM     12  C   UNL     1      -3.570  -1.525   0.183  0.00  0.00    +0.000 A 
ATOM     13  C   UNL     1      -4.691  -1.400   1.021  0.00  0.00    +0.000 A 
ATOM     14  C   UNL     1      -5.836  -2.169   0.798  0.00  0.00    +0.000 A 
ATOM     15  C   UNL     1      -5.871  -3.067  -0.266  0.00  0.00    +0.000 A 
ATOM     16  C   UNL     1      -4.772  -3.201  -1.111  0.00  0.00    +0.000 A 
ATOM     17  C   UNL     1      -3.628  -2.430  -0.889  0.00  0.00    +0.000 A 
ATOM     18 CL   UNL     1      -7.282  -4.012  -0.541  0.00  0.00    +0.000 Cl
ENDBRANCH  11  12
TORSDOF 1
