REMARK  Name = *****
REMARK  2 active torsions:
REMARK  status: ('A' for Active; 'I' for Inactive)
REMARK    1  A    between atoms: C_1  and  C_2
REMARK    2  A    between atoms: C_9  and  C_12
REMARK                            x       y       z     vdW  Elec       q    Type
REMARK                         _______ _______ _______ _____ _____    ______ ____
ROOT
ATOM      1  C   UNL     1       1.094  -0.161   0.060  0.00  0.00    +0.000 C 
ATOM      2  C   UNL     1       2.591  -0.101  -0.027  0.00  0.00    +0.000 A 
ATOM      3  C   UNL     1       3.260   1.130   0.017  0.00  0.00    +0.000 A 
ATOM      4  C   UNL     1       4.661   1.188  -0.027  0.00  0.00    +0.000 A 
ATOM      5  C   UNL     1       5.390  -0.000  -0.134  0.00  0.00    +0.000 A 
ATOM      6  C   UNL     1       4.733  -1.229  -0.150  0.00  0.00    +0.000 A 
ATOM      7  C   UNL     1       3.339  -1.281  -0.095  0.00  0.00    +0.000 A 
ATOM      8  O   UNL     1       6.757  -0.050  -0.187  0.00  0.00    +0.000 OA
ATOM      9  C   UNL     1       7.396   1.199  -0.496  0.00  0.00    +0.000 C 
ATOM     10  C   UNL     1       6.831   2.341   0.349  0.00  0.00    +0.000 C 
ATOM     11  C   UNL     1       5.358   2.517   0.012  0.00  0.00    +0.000 C 
ENDROOT
BRANCH   9  12
ATOM     12  C   UNL     1       8.890   1.057  -0.265  0.00  0.00    +0.000 A 
ATOM     13  C   UNL     1       9.799   1.645  -1.159  0.00  0.00    +0.000 A 
ATOM     14  C   UNL     1      11.175   1.546  -0.942  0.00  0.00    +0.000 A 
ATOM     15  C   UNL     1      11.659   0.862   0.171  0.00  0.00    +0.000 A 
ATOM     16  C   UNL     1      10.769   0.277   1.069  0.00  0.00    +0.000 A 
ATOM     17  C   UNL     1       9.393   0.377   0.855  0.00  0.00    +0.000 A 
ENDBRANCH   9  12
TORSDOF 1
