MODEL 1
REMARK VINA RESULT:      -5.0      0.000      0.000
REMARK  Name = *****
REMARK  1 active torsions:
REMARK  status: ('A' for Active; 'I' for Inactive)
REMARK    1  A    between atoms: C_4  and  C_7
REMARK                            x       y       z     vdW  Elec       q    Type
REMARK                         _______ _______ _______ _____ _____    ______ ____
ROOT
ATOM      1  C   UNL     1     102.485 127.173  83.842  0.00  0.00    +0.000 C 
ATOM      2  C   UNL     1     101.121 126.476  83.669  0.00  0.00    +0.000 C 
ATOM      3  C   UNL     1     100.153 127.486  83.112  0.00  0.00    +0.000 C 
ATOM      4  O   UNL     1      99.283 127.200  82.295  0.00  0.00    +0.000 OA
ATOM      5  C   UNL     1     100.266 128.856  83.649  0.00  0.00    +0.000 A 
ATOM      6  C   UNL     1      99.282 129.812  83.381  0.00  0.00    +0.000 A 
ATOM      7  C   UNL     1      99.380 131.079  83.955  0.00  0.00    +0.000 A 
ATOM      8  C   UNL     1     100.452 131.384  84.795  0.00  0.00    +0.000 A 
ATOM      9  C   UNL     1     101.437 130.428  85.054  0.00  0.00    +0.000 A 
ATOM     10  C   UNL     1     101.353 129.166  84.466  0.00  0.00    +0.000 A 
ATOM     11  O   UNL     1     102.371 128.295  84.747  0.00  0.00    +0.000 OA
ATOM     12 CL   UNL     1     100.396 125.866  85.202  0.00  0.00    +0.000 Cl
ATOM     13 CL   UNL     1     103.652 126.014  84.625  0.00  0.00    +0.000 Cl
ENDROOT
BRANCH   1  17
ATOM     14  C   UNL     1     104.509 128.378  80.160  0.00  0.00    +0.000 A 
ATOM     15  C   UNL     1     104.769 129.040  81.354  0.00  0.00    +0.000 A 
ATOM     16  C   UNL     1     104.121 128.647  82.528  0.00  0.00    +0.000 A 
ATOM     17  C   UNL     1     103.182 127.595  82.530  0.00  0.00    +0.000 A 
ATOM     18  C   UNL     1     102.955 126.926  81.312  0.00  0.00    +0.000 A 
ATOM     19  C   UNL     1     103.608 127.319  80.140  0.00  0.00    +0.000 A 
ENDBRANCH   1  17
TORSDOF 1
ENDMDL
