MODEL 1
REMARK VINA RESULT:      -5.2      0.000      0.000
REMARK  Name = *****
REMARK  4 active torsions:
REMARK  status: ('A' for Active; 'I' for Inactive)
REMARK    1  A    between atoms: C_1  and  C_2
REMARK    2  A    between atoms: C_10  and  O_12
REMARK    3  A    between atoms: O_12  and  C_13
REMARK    4  A    between atoms: C_13  and  C_14
REMARK                            x       y       z     vdW  Elec       q    Type
REMARK                         _______ _______ _______ _____ _____    ______ ____
ROOT
ATOM      1  C   UNL     1      88.084  63.737  87.803  0.00  0.00    +0.000 C 
ATOM      2  C   UNL     1      88.941  64.580  86.904  0.00  0.00    +0.000 C 
ATOM      3  C   UNL     1      89.806  64.017  86.039  0.00  0.00    +0.000 C 
ATOM      4  C   UNL     1      90.676  64.813  85.114  0.00  0.00    +0.000 C 
ATOM      5  C   UNL     1      90.980  66.213  85.646  0.00  0.00    +0.000 C 
ATOM      6  C   UNL     1      89.783  66.860  86.298  0.00  0.00    +0.000 A 
ATOM      7  C   UNL     1      88.814  66.059  86.938  0.00  0.00    +0.000 A 
ATOM      8  C   UNL     1      87.753  66.701  87.591  0.00  0.00    +0.000 A 
ATOM      9  C   UNL     1      87.659  68.096  87.606  0.00  0.00    +0.000 A 
ATOM     10  C   UNL     1      88.621  68.885  86.978  0.00  0.00    +0.000 A 
ATOM     11  C   UNL     1      89.688  68.265  86.332  0.00  0.00    +0.000 A 
ENDROOT
BRANCH  10  12
ATOM     12  O   UNL     1      88.407  70.232  87.077  0.00  0.00    +0.000 OA
BRANCH  12  13
ATOM     13  C   UNL     1      87.761  70.869  85.979  0.00  0.00    +0.000 C 
BRANCH  13  14
ATOM     14  C   UNL     1      86.458  71.447  86.471  0.00  0.00    +0.000 A 
ATOM     15  C   UNL     1      86.176  71.501  87.844  0.00  0.00    +0.000 A 
ATOM     16  C   UNL     1      84.963  72.023  88.298  0.00  0.00    +0.000 A 
ATOM     17  C   UNL     1      84.017  72.488  87.385  0.00  0.00    +0.000 A 
ATOM     18  C   UNL     1      84.281  72.425  86.018  0.00  0.00    +0.000 A 
ATOM     19  C   UNL     1      85.492  71.903  85.562  0.00  0.00    +0.000 A 
ENDBRANCH  13  14
ENDBRANCH  12  13
ENDBRANCH  10  12
TORSDOF 3
ENDMDL
