MODEL 1
REMARK VINA RESULT:      -5.0      0.000      0.000
REMARK  Name = *****
REMARK  4 active torsions:
REMARK  status: ('A' for Active; 'I' for Inactive)
REMARK    1  A    between atoms: C_1  and  C_2
REMARK    2  A    between atoms: C_7  and  O_10
REMARK    3  A    between atoms: O_10  and  C_11
REMARK    4  A    between atoms: C_11  and  C_12
REMARK                            x       y       z     vdW  Elec       q    Type
REMARK                         _______ _______ _______ _____ _____    ______ ____
ROOT
ATOM      1  C   UNL     1     105.264 120.068  81.809  0.00  0.00    +0.000 C 
ATOM      2  C   UNL     1     104.814 121.486  81.975  0.00  0.00    +0.000 A 
ATOM      3  C   UNL     1     104.812 122.371  80.967  0.00  0.00    +0.000 A 
ATOM      4  C   UNL     1     104.364 123.735  81.188  0.00  0.00    +0.000 A 
ATOM      5  C   UNL     1     103.941 124.111  82.458  0.00  0.00    +0.000 A 
ATOM      6  C   UNL     1     103.498 125.403  82.743  0.00  0.00    +0.000 A 
ATOM      7  C   UNL     1     103.479 126.352  81.723  0.00  0.00    +0.000 A 
ATOM      8  C   UNL     1     103.901 125.986  80.439  0.00  0.00    +0.000 A 
ATOM      9  C   UNL     1     104.343 124.686  80.169  0.00  0.00    +0.000 A 
ATOM     10  O   UNL     1     103.942 123.183  83.518  0.00  0.00    +0.000 OA
ATOM     11  C   UNL     1     104.362 121.870  83.338  0.00  0.00    +0.000 A 
ATOM     12  O   UNL     1     104.358 121.066  84.264  0.00  0.00    +0.000 OA
ENDROOT
BRANCH   7  13
ATOM     13  O   UNL     1     103.076 127.653  81.838  0.00  0.00    +0.000 OA
BRANCH  13  14
ATOM     14  C   UNL     1     103.101 128.229  83.145  0.00  0.00    +0.000 C 
BRANCH  14  15
ATOM     15  C   UNL     1     101.704 128.670  83.518  0.00  0.00    +0.000 A 
ATOM     16  C   UNL     1     100.587 127.914  83.128  0.00  0.00    +0.000 A 
ATOM     17  C   UNL     1      99.300 128.343  83.450  0.00  0.00    +0.000 A 
ATOM     18  C   UNL     1      99.105 129.529  84.154  0.00  0.00    +0.000 A 
ATOM     19  C   UNL     1     100.206 130.293  84.537  0.00  0.00    +0.000 A 
ATOM     20  C   UNL     1     101.498 129.869  84.219  0.00  0.00    +0.000 A 
ATOM     21 CL   UNL     1      97.941 127.401  82.971  0.00  0.00    +0.000 Cl
ENDBRANCH  14  15
ENDBRANCH  13  14
ENDBRANCH   7  13
TORSDOF 3
ENDMDL
