MODEL 1
REMARK VINA RESULT:      -5.3      0.000      0.000
REMARK  Name = *****
REMARK  2 active torsions:
REMARK  status: ('A' for Active; 'I' for Inactive)
REMARK    1  A    between atoms: C_7  and  C_9
REMARK    2  A    between atoms: C_12  and  C_13
REMARK                            x       y       z     vdW  Elec       q    Type
REMARK                         _______ _______ _______ _____ _____    ______ ____
ROOT
ATOM      1  C   UNL     1     103.493 128.123  82.022  0.00  0.00    +0.000 C 
ATOM      2  C   UNL     1     103.417 127.042  80.955  0.00  0.00    +0.000 C 
ATOM      3  C   UNL     1     103.761 125.714  81.560  0.00  0.00    +0.000 A 
ATOM      4  C   UNL     1     103.633 125.503  82.936  0.00  0.00    +0.000 A 
ATOM      5  C   UNL     1     103.956 124.263  83.493  0.00  0.00    +0.000 A 
ATOM      6  C   UNL     1     104.392 123.216  82.679  0.00  0.00    +0.000 A 
ATOM      7  C   UNL     1     104.501 123.417  81.302  0.00  0.00    +0.000 A 
ATOM      8  C   UNL     1     104.184 124.658  80.740  0.00  0.00    +0.000 A 
ATOM      9  O   UNL     1     103.196 126.452  83.818  0.00  0.00    +0.000 OA
ATOM     10  C   UNL     1     102.716 127.694  83.272  0.00  0.00    +0.000 C 
ENDROOT
BRANCH  10  11
ATOM     11  C   UNL     1     101.200 127.729  83.096  0.00  0.00    +0.000 A 
ATOM     12  C   UNL     1     100.480 126.660  82.540  0.00  0.00    +0.000 A 
ATOM     13  C   UNL     1      99.093 126.732  82.389  0.00  0.00    +0.000 A 
ATOM     14  C   UNL     1      98.402 127.869  82.796  0.00  0.00    +0.000 A 
ATOM     15  C   UNL     1      99.097 128.937  83.359  0.00  0.00    +0.000 A 
ATOM     16  C   UNL     1     100.483 128.866  83.509  0.00  0.00    +0.000 A 
ENDBRANCH  10  11
BRANCH   7  17
ATOM     17  C   UNL     1     104.954 122.306  80.441  0.00  0.00    +0.000 C 
ATOM     18  O   UNL     1     106.007 121.714  80.641  0.00  0.00    +0.000 OA
ENDBRANCH   7  17
TORSDOF 2
ENDMDL
