MODEL 1
REMARK VINA RESULT:      -4.9      0.000      0.000
REMARK  Name = *****
REMARK  2 active torsions:
REMARK  status: ('A' for Active; 'I' for Inactive)
REMARK    1  A    between atoms: C_1  and  C_2
REMARK    2  A    between atoms: C_2  and  C_11
REMARK                            x       y       z     vdW  Elec       q    Type
REMARK                         _______ _______ _______ _____ _____    ______ ____
ROOT
ATOM      1  C   UNL     1      89.662  70.721  86.442  0.00  0.00    +0.000 C 
ATOM      2  C   UNL     1      88.299  70.047  86.677  0.00  0.00    +0.000 C 
ATOM      3  C   UNL     1      87.812  70.391  88.116  0.00  0.00    +0.000 C 
ATOM      4  C   UNL     1      86.562  71.125  87.818  0.00  0.00    +0.000 A 
ATOM      5  C   UNL     1      85.642  71.674  88.694  0.00  0.00    +0.000 A 
ATOM      6  C   UNL     1      84.535  72.339  88.159  0.00  0.00    +0.000 A 
ATOM      7  C   UNL     1      84.369  72.445  86.769  0.00  0.00    +0.000 A 
ATOM      8  C   UNL     1      85.309  71.887  85.901  0.00  0.00    +0.000 A 
ATOM      9  C   UNL     1      86.393  71.234  86.452  0.00  0.00    +0.000 A 
ATOM     10  O   UNL     1      87.379  70.642  85.712  0.00  0.00    +0.000 OA
ENDROOT
BRANCH   2  11
ATOM     11  C   UNL     1      88.362  68.500  86.425  0.00  0.00    +0.000 C 
ATOM     12  C   UNL     1      87.534  67.695  87.452  0.00  0.00    +0.000 C 
ATOM     13  C   UNL     1      87.602  66.188  87.203  0.00  0.00    +0.000 C 
ATOM     14  C   UNL     1      89.036  65.681  87.167  0.00  0.00    +0.000 C 
ATOM     15  C   UNL     1      89.865  66.456  86.152  0.00  0.00    +0.000 C 
ATOM     16  C   UNL     1      89.811  67.959  86.417  0.00  0.00    +0.000 C 
ENDBRANCH   2  11
TORSDOF 1
ENDMDL
