MODEL 1
REMARK VINA RESULT:      -5.3      0.000      0.000
REMARK  Name = *****
REMARK  3 active torsions:
REMARK  status: ('A' for Active; 'I' for Inactive)
REMARK    1  A    between atoms: C_1  and  C_2
REMARK    2  A    between atoms: C_3  and  C_11
REMARK    3  A    between atoms: C_11  and  C_13
REMARK                            x       y       z     vdW  Elec       q    Type
REMARK                         _______ _______ _______ _____ _____    ______ ____
ROOT
ATOM      1  C   UNL     1      89.903  69.565  85.103  0.00  0.00    +0.000 C 
ATOM      2  C   UNL     1      89.579  68.819  86.391  0.00  0.00    +0.000 C 
ATOM      3  C   UNL     1      88.109  69.043  86.844  0.00  0.00    +0.000 C 
ATOM      4  C   UNL     1      87.737  67.795  87.667  0.00  0.00    +0.000 C 
ATOM      5  C   UNL     1      88.571  66.743  87.005  0.00  0.00    +0.000 A 
ATOM      6  C   UNL     1      88.424  65.369  87.091  0.00  0.00    +0.000 A 
ATOM      7  C   UNL     1      89.339  64.562  86.412  0.00  0.00    +0.000 A 
ATOM      8  C   UNL     1      90.387  65.133  85.675  0.00  0.00    +0.000 A 
ATOM      9  C   UNL     1      90.534  66.520  85.607  0.00  0.00    +0.000 A 
ATOM     10  C   UNL     1      89.614  67.318  86.270  0.00  0.00    +0.000 A 
ENDROOT
BRANCH   3  11
ATOM     11  C   UNL     1      87.938  70.313  87.664  0.00  0.00    +0.000 C 
ATOM     12  O   UNL     1      88.826  70.726  88.408  0.00  0.00    +0.000 OA
BRANCH  11  13
ATOM     13  C   UNL     1      86.658  71.087  87.574  0.00  0.00    +0.000 A 
ATOM     14  C   UNL     1      86.189  71.437  86.298  0.00  0.00    +0.000 A 
ATOM     15  C   UNL     1      84.998  72.149  86.149  0.00  0.00    +0.000 A 
ATOM     16  C   UNL     1      84.263  72.520  87.272  0.00  0.00    +0.000 A 
ATOM     17  C   UNL     1      84.720  72.179  88.545  0.00  0.00    +0.000 A 
ATOM     18  C   UNL     1      85.913  71.465  88.698  0.00  0.00    +0.000 A 
ENDBRANCH  11  13
ENDBRANCH   3  11
TORSDOF 2
ENDMDL
