MODEL 1
REMARK VINA RESULT:      -4.7      0.000      0.000
REMARK  Name = *****
REMARK  2 active torsions:
REMARK  status: ('A' for Active; 'I' for Inactive)
REMARK    1  A    between atoms: C_2  and  C_10
REMARK    2  A    between atoms: C_10  and  C_11
REMARK                            x       y       z     vdW  Elec       q    Type
REMARK                         _______ _______ _______ _____ _____    ______ ____
ROOT
ATOM      1  C   UNL     1      89.132  64.415  86.762  0.00  0.00    +0.000 C 
ATOM      2  C   UNL     1      88.875  65.843  86.243  0.00  0.00    +0.000 C 
ATOM      3  O   UNL     1      87.713  66.378  86.940  0.00  0.00    +0.000 OA
ATOM      4  C   UNL     1      87.604  65.607  88.065  0.00  0.00    +0.000 A 
ATOM      5  C   UNL     1      86.768  65.896  89.123  0.00  0.00    +0.000 A 
ATOM      6  C   UNL     1      86.763  65.019  90.209  0.00  0.00    +0.000 A 
ATOM      7  C   UNL     1      87.583  63.877  90.205  0.00  0.00    +0.000 A 
ATOM      8  C   UNL     1      88.412  63.597  89.115  0.00  0.00    +0.000 A 
ATOM      9  C   UNL     1      88.413  64.483  88.053  0.00  0.00    +0.000 A 
ENDROOT
BRANCH   2  10
ATOM     10  C   UNL     1      90.087  66.766  86.476  0.00  0.00    +0.000 C 
BRANCH  10  11
ATOM     11  C   UNL     1      89.869  68.162  85.936  0.00  0.00    +0.000 A 
ATOM     12  C   UNL     1      89.867  68.390  84.553  0.00  0.00    +0.000 A 
ATOM     13  C   UNL     1      89.678  69.677  84.047  0.00  0.00    +0.000 A 
ATOM     14  C   UNL     1      89.497  70.744  84.924  0.00  0.00    +0.000 A 
ATOM     15  C   UNL     1      89.503  70.534  86.301  0.00  0.00    +0.000 A 
ATOM     16  C   UNL     1      89.690  69.246  86.807  0.00  0.00    +0.000 A 
ATOM     17 CL   UNL     1      89.267  72.332  84.302  0.00  0.00    +0.000 Cl
ENDBRANCH  10  11
ENDBRANCH   2  10
TORSDOF 2
ENDMDL
