REMARK  Name = *****
REMARK  4 active torsions:
REMARK  status: ('A' for Active; 'I' for Inactive)
REMARK    1  A    between atoms: C_1  and  C_2
REMARK    2  A    between atoms: C_5  and  S_8
REMARK    3  A    between atoms: S_8  and  C_11
REMARK    4  A    between atoms: C_12  and  C_13
REMARK                            x       y       z     vdW  Elec       q    Type
REMARK                         _______ _______ _______ _____ _____    ______ ____
ROOT
ATOM      1  S   UNL     1      -3.480  -0.207  -0.153  0.00  0.00    +0.000 S 
ATOM      2  O   UNL     1      -3.843  -0.625  -1.495  0.00  0.00    +0.000 OA
ATOM      3  O   UNL     1      -3.776  -1.051   0.991  0.00  0.00    +0.000 OA
ENDROOT
BRANCH   1   8
ATOM      4  C   UNL     1       2.529   0.695  -0.175  0.00  0.00    +0.000 C 
ATOM      5  C   UNL     1       1.048   0.448  -0.175  0.00  0.00    +0.000 A 
ATOM      6  C   UNL     1       0.389   0.107   1.015  0.00  0.00    +0.000 A 
ATOM      7  C   UNL     1      -0.992  -0.098   1.026  0.00  0.00    +0.000 A 
ATOM      8  C   UNL     1      -1.718   0.061  -0.157  0.00  0.00    +0.000 A 
ATOM      9  C   UNL     1      -1.076   0.399  -1.351  0.00  0.00    +0.000 A 
ATOM     10  C   UNL     1       0.305   0.602  -1.353  0.00  0.00    +0.000 A 
ENDBRANCH   1   8
BRANCH   1  11
ATOM     11  C   UNL     1      -4.090   1.392   0.139  0.00  0.00    +0.000 C 
ATOM     12  C   UNL     1      -5.406   1.660   0.201  0.00  0.00    +0.000 C 
BRANCH  12  13
ATOM     13  C   UNL     1      -6.563   0.698   0.045  0.00  0.00    +0.000 C 
ATOM     14  C   UNL     1      -7.402   1.075  -1.185  0.00  0.00    +0.000 C 
ATOM     15  C   UNL     1      -8.622   0.167  -1.330  0.00  0.00    +0.000 C 
ATOM     16  C   UNL     1      -9.473   0.160  -0.064  0.00  0.00    +0.000 C 
ATOM     17  C   UNL     1      -8.648  -0.205   1.166  0.00  0.00    +0.000 C 
ATOM     18  C   UNL     1      -7.428   0.702   1.316  0.00  0.00    +0.000 C 
ENDBRANCH  12  13
ENDBRANCH   1  11
TORSDOF 3
