MODEL 1
REMARK VINA RESULT:      -5.1      0.000      0.000
REMARK  Name = *****
REMARK  3 active torsions:
REMARK  status: ('A' for Active; 'I' for Inactive)
REMARK    1  A    between atoms: C_4  and  C_7
REMARK    2  A    between atoms: C_7  and  O_8
REMARK    3  A    between atoms: O_8  and  C_9
REMARK                            x       y       z     vdW  Elec       q    Type
REMARK                         _______ _______ _______ _____ _____    ______ ____
ROOT
ATOM      1  C   UNL     1     103.810 126.333  81.777  0.00  0.00    +0.000 A 
ATOM      2  C   UNL     1     103.912 125.283  82.693  0.00  0.00    +0.000 A 
ATOM      3  C   UNL     1     104.273 123.989  82.282  0.00  0.00    +0.000 A 
ATOM      4  C   UNL     1     104.387 122.931  83.199  0.00  0.00    +0.000 A 
ATOM      5  C   UNL     1     104.750 121.653  82.773  0.00  0.00    +0.000 A 
ATOM      6  C   UNL     1     105.002 121.415  81.426  0.00  0.00    +0.000 A 
ATOM      7  C   UNL     1     104.892 122.454  80.501  0.00  0.00    +0.000 A 
ATOM      8  C   UNL     1     104.529 123.747  80.915  0.00  0.00    +0.000 A 
ATOM      9  C   UNL     1     104.414 124.805  80.001  0.00  0.00    +0.000 A 
ATOM     10  C   UNL     1     104.056 126.090  80.428  0.00  0.00    +0.000 A 
ENDROOT
BRANCH   1  11
ATOM     11  O   UNL     1     103.458 127.535  82.326  0.00  0.00    +0.000 OA
BRANCH  11  12
ATOM     12  C   UNL     1     102.700 127.499  83.536  0.00  0.00    +0.000 C 
BRANCH  12  16
ATOM     13  C   UNL     1      98.492 128.146  82.792  0.00  0.00    +0.000 A 
ATOM     14  C   UNL     1      99.089 126.949  82.401  0.00  0.00    +0.000 A 
ATOM     15  C   UNL     1     100.450 126.740  82.629  0.00  0.00    +0.000 A 
ATOM     16  C   UNL     1     101.234 127.731  83.239  0.00  0.00    +0.000 A 
ATOM     17  C   UNL     1     100.616 128.925  83.641  0.00  0.00    +0.000 A 
ATOM     18  C   UNL     1      99.254 129.132  83.414  0.00  0.00    +0.000 A 
ENDBRANCH  12  16
ENDBRANCH  11  12
ENDBRANCH   1  11
TORSDOF 3
ENDMDL
