MODEL 1
REMARK VINA RESULT:      -5.4      0.000      0.000
REMARK  Name = *****
REMARK  1 active torsions:
REMARK  status: ('A' for Active; 'I' for Inactive)
REMARK    1  A    between atoms: C_2  and  C_13
REMARK                            x       y       z     vdW  Elec       q    Type
REMARK                         _______ _______ _______ _____ _____    ______ ____
ROOT
ATOM      1  C   UNL     1     102.868 125.295  83.617  0.00  0.00    +0.000 C 
ATOM      2  C   UNL     1     102.116 125.831  82.406  0.00  0.00    +0.000 C 
ATOM      3  O   UNL     1     103.030 126.274  81.386  0.00  0.00    +0.000 OA
ATOM      4  C   UNL     1     103.920 125.307  81.003  0.00  0.00    +0.000 A 
ATOM      5  C   UNL     1     104.278 124.225  81.811  0.00  0.00    +0.000 A 
ATOM      6  C   UNL     1     103.710 124.136  83.170  0.00  0.00    +0.000 C 
ATOM      7  O   UNL     1     103.974 123.188  83.903  0.00  0.00    +0.000 OA
ATOM      8  C   UNL     1     105.191 123.268  81.356  0.00  0.00    +0.000 A 
ATOM      9  C   UNL     1     105.758 123.409  80.088  0.00  0.00    +0.000 A 
ATOM     10  C   UNL     1     105.413 124.504  79.300  0.00  0.00    +0.000 A 
ATOM     11  C   UNL     1     104.503 125.456  79.746  0.00  0.00    +0.000 A 
ATOM     12  F   UNL     1     105.968 124.641  78.089  0.00  0.00    +0.000 F 
ENDROOT
BRANCH   2  13
ATOM     13  C   UNL     1     101.221 126.991  82.809  0.00  0.00    +0.000 A 
ATOM     14  C   UNL     1      99.838 126.973  82.558  0.00  0.00    +0.000 A 
ATOM     15  C   UNL     1      99.037 128.060  82.914  0.00  0.00    +0.000 A 
ATOM     16  C   UNL     1      99.616 129.171  83.513  0.00  0.00    +0.000 A 
ATOM     17  C   UNL     1     100.982 129.217  83.763  0.00  0.00    +0.000 A 
ATOM     18  C   UNL     1     101.785 128.130  83.411  0.00  0.00    +0.000 A 
ATOM     19  F   UNL     1      98.848 130.215  83.851  0.00  0.00    +0.000 F 
ENDBRANCH   2  13
TORSDOF 1
ENDMDL
