MODEL 1
REMARK VINA RESULT:      -5.2      0.000      0.000
REMARK  Name = *****
REMARK  3 active torsions:
REMARK  status: ('A' for Active; 'I' for Inactive)
REMARK    1  A    between atoms: C_4  and  C_6
REMARK    2  A    between atoms: C_6  and  C_7
REMARK    3  A    between atoms: C_6  and  O_17
REMARK                            x       y       z     vdW  Elec       q    Type
REMARK                         _______ _______ _______ _____ _____    ______ ____
ROOT
ATOM      1  C   UNL     1      87.862  70.776  88.026  0.00  0.00    +0.000 A 
ATOM      2  C   UNL     1      88.276  70.596  89.362  0.00  0.00    +0.000 A 
ATOM      3  C   UNL     1      87.464  70.978  90.426  0.00  0.00    +0.000 A 
ATOM      4  C   UNL     1      86.219  71.543  90.177  0.00  0.00    +0.000 A 
ATOM      5  C   UNL     1      85.764  71.733  88.865  0.00  0.00    +0.000 A 
ATOM      6  C   UNL     1      84.499  72.303  88.644  0.00  0.00    +0.000 A 
ATOM      7  C   UNL     1      84.014  72.501  87.354  0.00  0.00    +0.000 A 
ATOM      8  C   UNL     1      84.789  72.128  86.266  0.00  0.00    +0.000 A 
ATOM      9  C   UNL     1      86.050  71.561  86.469  0.00  0.00    +0.000 A 
ATOM     10  C   UNL     1      86.578  71.350  87.766  0.00  0.00    +0.000 A 
ENDROOT
BRANCH   1  11
ATOM     11  C   UNL     1      88.779  70.329  86.892  0.00  0.00    +0.000 C 
BRANCH  11  15
ATOM     12  C   UNL     1      88.416  66.551  87.069  0.00  0.00    +0.000 C 
ATOM     13  C   UNL     1      89.734  66.665  86.310  0.00  0.00    +0.000 C 
ATOM     14  C   UNL     1      90.010  68.131  86.348  0.00  0.00    +0.000 C 
ATOM     15  C   UNL     1      88.939  68.841  86.733  0.00  0.00    +0.000 C 
ATOM     16  C   UNL     1      87.775  67.936  87.019  0.00  0.00    +0.000 C 
ENDBRANCH  11  15
BRANCH  11  17
ATOM     17  O   UNL     1      90.084  70.901  87.032  0.00  0.00    +0.000 OA
ATOM     18  H   UNL     1      90.690  70.238  87.401  0.00  0.00    +0.000 HD
ENDBRANCH  11  17
ENDBRANCH   1  11
TORSDOF 3
ENDMDL
