REMARK  Name = *****
REMARK  2 active torsions:
REMARK  status: ('A' for Active; 'I' for Inactive)
REMARK    1  A    between atoms: C_2  and  C_10
REMARK    2  A    between atoms: C_10  and  C_12
REMARK                            x       y       z     vdW  Elec       q    Type
REMARK                         _______ _______ _______ _____ _____    ______ ____
ROOT
ATOM      1  C   UNL     1       1.538   1.587   0.071  0.00  0.00    +0.000 C 
ATOM      2  C   UNL     1       2.531   0.444  -0.211  0.00  0.00    +0.000 C 
ATOM      3  O   UNL     1       1.864  -0.816   0.036  0.00  0.00    +0.000 OA
ATOM      4  C   UNL     1       0.530  -0.518  -0.038  0.00  0.00    +0.000 A 
ATOM      5  C   UNL     1      -0.476  -1.460  -0.076  0.00  0.00    +0.000 A 
ATOM      6  C   UNL     1      -1.794  -1.004  -0.142  0.00  0.00    +0.000 A 
ATOM      7  C   UNL     1      -2.071   0.374  -0.157  0.00  0.00    +0.000 A 
ATOM      8  C   UNL     1      -1.035   1.310  -0.104  0.00  0.00    +0.000 A 
ATOM      9  C   UNL     1       0.265   0.840  -0.050  0.00  0.00    +0.000 A 
ENDROOT
BRANCH   2  10
ATOM     10  C   UNL     1       3.105   0.497  -1.636  0.00  0.00    +0.000 C 
ATOM     11  O   UNL     1       3.043   1.508  -2.337  0.00  0.00    +0.000 OA
BRANCH  10  12
ATOM     12  C   UNL     1       3.833  -0.689  -2.180  0.00  0.00    +0.000 A 
ATOM     13  C   UNL     1       4.369  -1.684  -1.356  0.00  0.00    +0.000 A 
ATOM     14  C   UNL     1       5.050  -2.761  -1.926  0.00  0.00    +0.000 A 
ATOM     15  C   UNL     1       5.211  -2.855  -3.307  0.00  0.00    +0.000 A 
ATOM     16  C   UNL     1       4.688  -1.861  -4.132  0.00  0.00    +0.000 A 
ATOM     17  C   UNL     1       4.005  -0.780  -3.570  0.00  0.00    +0.000 A 
ATOM     18 CL   UNL     1       5.707  -3.985  -0.909  0.00  0.00    +0.000 Cl
ENDBRANCH  10  12
ENDBRANCH   2  10
TORSDOF 2
