MODEL 1
REMARK VINA RESULT:      -5.5      0.000      0.000
REMARK  Name = *****
REMARK  3 active torsions:
REMARK  status: ('A' for Active; 'I' for Inactive)
REMARK    1  A    between atoms: C_1  and  C_2
REMARK    2  A    between atoms: C_4  and  C_19
REMARK    3  A    between atoms: C_9  and  C_13
REMARK                            x       y       z     vdW  Elec       q    Type
REMARK                         _______ _______ _______ _____ _____    ______ ____
ROOT
ATOM      1  C   UNL     1     106.122 124.624  78.179  0.00  0.00    +0.000 C 
ATOM      2  C   UNL     1     105.502 124.518  79.542  0.00  0.00    +0.000 A 
ATOM      3  C   UNL     1     105.858 123.475  80.406  0.00  0.00    +0.000 A 
ATOM      4  C   UNL     1     105.273 123.344  81.681  0.00  0.00    +0.000 A 
ATOM      5  C   UNL     1     104.296 124.280  82.076  0.00  0.00    +0.000 A 
ATOM      6  C   UNL     1     103.657 124.270  83.422  0.00  0.00    +0.000 C 
ATOM      7  O   UNL     1     103.889 123.402  84.256  0.00  0.00    +0.000 OA
ATOM      8  C   UNL     1     102.752 125.426  83.744  0.00  0.00    +0.000 C 
ATOM      9  C   UNL     1     102.020 125.813  82.473  0.00  0.00    +0.000 C 
ATOM     10  O   UNL     1     102.956 126.241  81.474  0.00  0.00    +0.000 OA
ATOM     11  C   UNL     1     103.910 125.298  81.193  0.00  0.00    +0.000 A 
ATOM     12  C   UNL     1     104.517 125.423  79.941  0.00  0.00    +0.000 A 
ATOM     13  C   UNL     1     105.731 122.215  82.562  0.00  0.00    +0.000 C 
ENDROOT
BRANCH   9  14
ATOM     14  C   UNL     1     101.038 126.937  82.744  0.00  0.00    +0.000 A 
ATOM     15  C   UNL     1     101.440 128.126  83.374  0.00  0.00    +0.000 A 
ATOM     16  C   UNL     1     100.516 129.139  83.640  0.00  0.00    +0.000 A 
ATOM     17  C   UNL     1      99.179 128.975  83.287  0.00  0.00    +0.000 A 
ATOM     18  C   UNL     1      98.763 127.798  82.668  0.00  0.00    +0.000 A 
ATOM     19  C   UNL     1      99.685 126.784  82.400  0.00  0.00    +0.000 A 
ENDBRANCH   9  14
TORSDOF 1
ENDMDL
