MODEL 1
REMARK VINA RESULT:      -5.0      0.000      0.000
REMARK  Name = *****
REMARK  1 active torsions:
REMARK  status: ('A' for Active; 'I' for Inactive)
REMARK    1  A    between atoms: C_2  and  C_12
REMARK                            x       y       z     vdW  Elec       q    Type
REMARK                         _______ _______ _______ _____ _____    ______ ____
ROOT
ATOM      1  C   UNL     1      86.532  64.292  87.157  0.00  0.00    +0.000 C 
ATOM      2  C   UNL     1      88.009  64.664  87.030  0.00  0.00    +0.000 C 
ATOM      3  O   UNL     1      88.792  63.970  88.019  0.00  0.00    +0.000 OA
ATOM      4  C   UNL     1      88.348  64.108  89.304  0.00  0.00    +0.000 A 
ATOM      5  C   UNL     1      89.287  63.906  90.313  0.00  0.00    +0.000 A 
ATOM      6  C   UNL     1      88.911  64.033  91.652  0.00  0.00    +0.000 A 
ATOM      7  C   UNL     1      87.593  64.352  91.984  0.00  0.00    +0.000 A 
ATOM      8  C   UNL     1      86.646  64.537  90.975  0.00  0.00    +0.000 A 
ATOM      9  C   UNL     1      87.028  64.406  89.637  0.00  0.00    +0.000 A 
ATOM     10  C   UNL     1      86.041  64.551  88.555  0.00  0.00    +0.000 C 
ATOM     11  O   UNL     1      84.871  64.830  88.795  0.00  0.00    +0.000 OA
ENDROOT
BRANCH   2  12
ATOM     12  C   UNL     1      88.394  66.143  86.974  0.00  0.00    +0.000 A 
ATOM     13  C   UNL     1      89.611  66.550  86.383  0.00  0.00    +0.000 A 
ATOM     14  C   UNL     1      89.984  67.898  86.337  0.00  0.00    +0.000 A 
ATOM     15  C   UNL     1      89.145  68.864  86.877  0.00  0.00    +0.000 A 
ATOM     16  C   UNL     1      87.935  68.498  87.454  0.00  0.00    +0.000 A 
ATOM     17  C   UNL     1      87.562  67.151  87.500  0.00  0.00    +0.000 A 
ATOM     18 CL   UNL     1      89.601  70.522  86.823  0.00  0.00    +0.000 Cl
ATOM     19 CL   UNL     1      90.705  65.422  85.655  0.00  0.00    +0.000 Cl
ENDBRANCH   2  12
TORSDOF 1
ENDMDL
