MODEL 1
REMARK VINA RESULT:      -4.8      0.000      0.000
REMARK  Name = *****
REMARK  5 active torsions:
REMARK  status: ('A' for Active; 'I' for Inactive)
REMARK    1  A    between atoms: C_1  and  O_2
REMARK    2  A    between atoms: O_2  and  N_3
REMARK    3  A    between atoms: C_10  and  O_12
REMARK    4  A    between atoms: O_12  and  C_13
REMARK    5  A    between atoms: C_13  and  C_14
REMARK                            x       y       z     vdW  Elec       q    Type
REMARK                         _______ _______ _______ _____ _____    ______ ____
ROOT
ATOM      1  N   UNL     1      89.310  64.736  86.421  0.00  0.00    +0.000 N 
ATOM      2  C   UNL     1      90.469  64.735  85.701  0.00  0.00    +0.000 A 
ATOM      3  C   UNL     1      90.866  66.045  85.557  0.00  0.00    +0.000 A 
ATOM      4  C   UNL     1      89.884  66.867  86.184  0.00  0.00    +0.000 A 
ATOM      5  C   UNL     1      88.907  66.017  86.709  0.00  0.00    +0.000 A 
ATOM      6  C   UNL     1      87.778  66.500  87.382  0.00  0.00    +0.000 A 
ATOM      7  C   UNL     1      87.653  67.885  87.522  0.00  0.00    +0.000 A 
ATOM      8  C   UNL     1      88.609  68.764  87.008  0.00  0.00    +0.000 A 
ATOM      9  C   UNL     1      89.734  68.263  86.342  0.00  0.00    +0.000 A 
ENDROOT
BRANCH   1  11
ATOM     10  C   UNL     1      88.100  63.005  85.532  0.00  0.00    +0.000 C 
ATOM     11  O   UNL     1      88.588  63.581  86.740  0.00  0.00    +0.000 OA
ENDBRANCH   1  11
BRANCH   8  12
ATOM     12  O   UNL     1      88.330  70.087  87.223  0.00  0.00    +0.000 OA
BRANCH  12  13
ATOM     13  C   UNL     1      87.839  70.835  86.114  0.00  0.00    +0.000 C 
BRANCH  13  14
ATOM     14  C   UNL     1      86.493  71.404  86.490  0.00  0.00    +0.000 A 
ATOM     15  C   UNL     1      85.602  71.838  85.497  0.00  0.00    +0.000 A 
ATOM     16  C   UNL     1      84.363  72.378  85.846  0.00  0.00    +0.000 A 
ATOM     17  C   UNL     1      84.005  72.495  87.188  0.00  0.00    +0.000 A 
ATOM     18  C   UNL     1      84.888  72.081  88.183  0.00  0.00    +0.000 A 
ATOM     19  C   UNL     1      86.129  71.542  87.837  0.00  0.00    +0.000 A 
ENDBRANCH  13  14
ENDBRANCH  12  13
ENDBRANCH   8  12
TORSDOF 4
ENDMDL
