MODEL 1
REMARK VINA RESULT:      -5.1      0.000      0.000
REMARK  Name = *****
REMARK  3 active torsions:
REMARK  status: ('A' for Active; 'I' for Inactive)
REMARK    1  A    between atoms: C_1  and  N_2
REMARK    2  A    between atoms: N_13  and  N_14
REMARK    3  A    between atoms: C_15  and  C_16
REMARK                            x       y       z     vdW  Elec       q    Type
REMARK                         _______ _______ _______ _____ _____    ______ ____
ROOT
ATOM      1  C   UNL     1     102.028 125.598  85.533  0.00  0.00    +0.000 C 
ATOM      2  N   UNL     1     102.471 125.501  84.152  0.00  0.00    +0.000 N 
ATOM      3  C   UNL     1     103.747 124.978  83.939  0.00  0.00    +0.000 A 
ATOM      4  O   UNL     1     104.493 124.587  84.834  0.00  0.00    +0.000 OA
ATOM      5  C   UNL     1     104.202 124.902  82.545  0.00  0.00    +0.000 A 
ATOM      6  C   UNL     1     105.468 124.402  82.216  0.00  0.00    +0.000 A 
ATOM      7  C   UNL     1     105.864 124.350  80.881  0.00  0.00    +0.000 A 
ATOM      8  C   UNL     1     104.997 124.797  79.884  0.00  0.00    +0.000 A 
ATOM      9  C   UNL     1     103.735 125.293  80.228  0.00  0.00    +0.000 A 
ATOM     10  C   UNL     1     103.329 125.349  81.563  0.00  0.00    +0.000 A 
ATOM     11  N   UNL     1     102.062 125.849  81.860  0.00  0.00    +0.000 NA
ATOM     12  C   UNL     1     101.652 125.916  83.094  0.00  0.00    +0.000 A 
ATOM     13  N   UNL     1     100.390 126.415  83.383  0.00  0.00    +0.000 N 
ATOM     14  H   UNL     1     100.161 126.572  84.328  0.00  0.00    +0.000 HD
ENDROOT
BRANCH  13  15
ATOM     15  N   UNL     1      99.443 126.701  82.441  0.00  0.00    +0.000 NA
ATOM     16  C   UNL     1      98.688 127.745  82.618  0.00  0.00    +0.000 C 
BRANCH  16  17
ATOM     17  C   UNL     1      98.789 128.782  83.661  0.00  0.00    +0.000 A 
ATOM     18  C   UNL     1      99.408 130.009  83.403  0.00  0.00    +0.000 A 
ATOM     19  C   UNL     1      99.466 130.977  84.406  0.00  0.00    +0.000 A 
ATOM     20  C   UNL     1      98.897 130.722  85.655  0.00  0.00    +0.000 A 
ATOM     21  C   UNL     1      98.260 129.505  85.902  0.00  0.00    +0.000 A 
ATOM     22  C   UNL     1      98.198 128.534  84.902  0.00  0.00    +0.000 A 
ENDBRANCH  16  17
ENDBRANCH  13  15
TORSDOF 2
ENDMDL
