MODEL 1
REMARK VINA RESULT:      -5.2      0.000      0.000
REMARK  Name = *****
REMARK  3 active torsions:
REMARK  status: ('A' for Active; 'I' for Inactive)
REMARK    1  A    between atoms: C_1  and  O_2
REMARK    2  A    between atoms: O_2  and  C_3
REMARK    3  A    between atoms: C_12  and  C_13
REMARK                            x       y       z     vdW  Elec       q    Type
REMARK                         _______ _______ _______ _____ _____    ______ ____
ROOT
ATOM      1  C   UNL     1     103.532 127.345  82.406  0.00  0.00    +0.000 C 
ATOM      2  C   UNL     1     102.748 128.356  83.255  0.00  0.00    +0.000 C 
ATOM      3  C   UNL     1     101.260 128.139  83.138  0.00  0.00    +0.000 A 
ATOM      4  C   UNL     1     100.373 129.126  83.592  0.00  0.00    +0.000 A 
ATOM      5  C   UNL     1      98.994 128.940  83.479  0.00  0.00    +0.000 A 
ATOM      6  C   UNL     1      98.490 127.769  82.916  0.00  0.00    +0.000 A 
ATOM      7  C   UNL     1      99.366 126.779  82.472  0.00  0.00    +0.000 A 
ATOM      8  C   UNL     1     100.745 126.955  82.598  0.00  0.00    +0.000 A 
ATOM      9  O   UNL     1     101.528 125.927  82.144  0.00  0.00    +0.000 OA
ATOM     10  C   UNL     1     102.875 125.960  82.644  0.00  0.00    +0.000 C 
ENDROOT
BRANCH  10  11
ATOM     11  C   UNL     1     103.683 124.775  82.129  0.00  0.00    +0.000 A 
ATOM     12  C   UNL     1     104.045 124.650  80.779  0.00  0.00    +0.000 A 
ATOM     13  C   UNL     1     104.779 123.548  80.333  0.00  0.00    +0.000 A 
ATOM     14  C   UNL     1     105.156 122.550  81.229  0.00  0.00    +0.000 A 
ATOM     15  C   UNL     1     104.795 122.651  82.571  0.00  0.00    +0.000 A 
ATOM     16  C   UNL     1     104.062 123.753  83.018  0.00  0.00    +0.000 A 
ENDBRANCH  10  11
BRANCH   1  18
ATOM     17  C   UNL     1     104.602 128.634  80.675  0.00  0.00    +0.000 C 
ATOM     18  O   UNL     1     103.492 127.839  81.055  0.00  0.00    +0.000 OA
ENDBRANCH   1  18
TORSDOF 2
ENDMDL
