REMARK  Name = *****
REMARK  2 active torsions:
REMARK  status: ('A' for Active; 'I' for Inactive)
REMARK    1  A    between atoms: C_7  and  N_11
REMARK    2  A    between atoms: N_11  and  C_12
REMARK                            x       y       z     vdW  Elec       q    Type
REMARK                         _______ _______ _______ _____ _____    ______ ____
ROOT
ATOM      1  C   UNL     1       1.883   1.050  -0.398  0.00  0.00    +0.000 A 
ATOM      2  C   UNL     1       2.136  -0.331  -0.338  0.00  0.00    +0.000 A 
ATOM      3  C   UNL     1       1.097  -1.235  -0.106  0.00  0.00    +0.000 A 
ATOM      4  C   UNL     1      -0.176  -0.726   0.061  0.00  0.00    +0.000 A 
ATOM      5  C   UNL     1      -0.430   0.636   0.004  0.00  0.00    +0.000 A 
ATOM      6  C   UNL     1       0.588   1.545  -0.229  0.00  0.00    +0.000 A 
ATOM      7  C   UNL     1      -1.885   0.833   0.197  0.00  0.00    +0.000 C 
ATOM      8  C   UNL     1      -2.325  -0.613   0.449  0.00  0.00    +0.000 C 
ATOM      9  N   UNL     1      -3.520  -1.024   0.731  0.00  0.00    +0.000 NA
ATOM     10  O   UNL     1      -1.287  -1.517   0.303  0.00  0.00    +0.000 OA
ATOM     11  H   UNL     1      -4.252  -0.374   0.833  0.00  0.00    +0.000 HD
ENDROOT
BRANCH   7  12
ATOM     12  N   UNL     1      -2.226   1.728   1.318  0.00  0.00    +0.000 N 
ATOM     13 BR   UNL     1      -1.574   1.315   3.019  0.00  0.00    +0.000 Br
BRANCH  12  14
ATOM     14  C   UNL     1      -3.417   2.474   1.172  0.00  0.00    +0.000 A 
ATOM     15  C   UNL     1      -4.434   2.475   2.141  0.00  0.00    +0.000 A 
ATOM     16  C   UNL     1      -5.605   3.224   1.972  0.00  0.00    +0.000 A 
ATOM     17  C   UNL     1      -5.774   3.997   0.830  0.00  0.00    +0.000 A 
ATOM     18  C   UNL     1      -4.780   4.031  -0.141  0.00  0.00    +0.000 A 
ATOM     19  C   UNL     1      -3.613   3.278   0.033  0.00  0.00    +0.000 A 
ATOM     20 CL   UNL     1      -7.210   4.919   0.621  0.00  0.00    +0.000 Cl
ENDBRANCH  12  14
ENDBRANCH   7  12
TORSDOF 2
