MODEL 1
REMARK VINA RESULT:      -4.8      0.000      0.000
REMARK  Name = *****
REMARK  1 active torsions:
REMARK  status: ('A' for Active; 'I' for Inactive)
REMARK    1  A    between atoms: C_2  and  C_12
REMARK                            x       y       z     vdW  Elec       q    Type
REMARK                         _______ _______ _______ _____ _____    ______ ____
ROOT
ATOM      1  C   UNL     1      87.904  68.413  87.180  0.00  0.00    +0.000 C 
ATOM      2  C   UNL     1      86.901  69.525  87.466  0.00  0.00    +0.000 C 
ATOM      3  O   UNL     1      86.592  70.252  86.259  0.00  0.00    +0.000 OA
ATOM      4  C   UNL     1      87.690  70.723  85.589  0.00  0.00    +0.000 A 
ATOM      5  C   UNL     1      87.481  71.796  84.725  0.00  0.00    +0.000 A 
ATOM      6  C   UNL     1      88.555  72.339  84.014  0.00  0.00    +0.000 A 
ATOM      7  C   UNL     1      89.836  71.804  84.161  0.00  0.00    +0.000 A 
ATOM      8  C   UNL     1      90.046  70.719  85.011  0.00  0.00    +0.000 A 
ATOM      9  C   UNL     1      88.967  70.177  85.716  0.00  0.00    +0.000 A 
ATOM     10  C   UNL     1      89.151  68.996  86.579  0.00  0.00    +0.000 C 
ATOM     11  O   UNL     1      90.256  68.489  86.740  0.00  0.00    +0.000 OA
ENDROOT
BRANCH   2  12
ATOM     12  C   UNL     1      87.187  70.491  88.614  0.00  0.00    +0.000 A 
ATOM     13  C   UNL     1      88.416  70.549  89.289  0.00  0.00    +0.000 A 
ATOM     14  C   UNL     1      88.613  71.451  90.341  0.00  0.00    +0.000 A 
ATOM     15  C   UNL     1      87.582  72.299  90.735  0.00  0.00    +0.000 A 
ATOM     16  C   UNL     1      86.352  72.252  90.088  0.00  0.00    +0.000 A 
ATOM     17  C   UNL     1      86.156  71.353  89.038  0.00  0.00    +0.000 A 
ATOM     18 CL   UNL     1      87.828  73.404  92.030  0.00  0.00    +0.000 Cl
ENDBRANCH   2  12
TORSDOF 1
ENDMDL
