REMARK  Name = *****
REMARK  3 active torsions:
REMARK  status: ('A' for Active; 'I' for Inactive)
REMARK    1  A    between atoms: C_4  and  C_7
REMARK    2  A    between atoms: C_8  and  S_18
REMARK    3  A    between atoms: C_9  and  S_17
REMARK                            x       y       z     vdW  Elec       q    Type
REMARK                         _______ _______ _______ _____ _____    ______ ____
ROOT
ATOM      1  C   UNL     1      -2.976   0.855  -0.287  0.00  0.00    +0.000 C 
ATOM      2  C   UNL     1      -3.361   0.975  -1.761  0.00  0.00    +0.000 C 
ATOM      3  C   UNL     1      -4.539   0.497  -2.217  0.00  0.00    +0.000 C 
ATOM      4  C   UNL     1      -5.470  -0.126  -1.249  0.00  0.00    +0.000 A 
ATOM      5  C   UNL     1      -6.767  -0.571  -1.577  0.00  0.00    +0.000 A 
ATOM      6  C   UNL     1      -7.607  -1.157  -0.624  0.00  0.00    +0.000 A 
ATOM      7  C   UNL     1      -7.170  -1.315   0.684  0.00  0.00    +0.000 A 
ATOM      8  C   UNL     1      -5.896  -0.881   1.033  0.00  0.00    +0.000 A 
ATOM      9  C   UNL     1      -5.061  -0.285   0.079  0.00  0.00    +0.000 A 
ATOM     10  O   UNL     1      -3.843   0.090   0.559  0.00  0.00    +0.000 OA
ENDROOT
BRANCH   1  14
ATOM     11  C   UNL     1       0.978  -0.796   0.365  0.00  0.00    +0.000 A 
ATOM     12  C   UNL     1       0.669   0.481   0.828  0.00  0.00    +0.000 A 
ATOM     13  C   UNL     1      -0.607   1.010   0.623  0.00  0.00    +0.000 A 
ATOM     14  C   UNL     1      -1.588   0.267  -0.055  0.00  0.00    +0.000 A 
ATOM     15  C   UNL     1      -1.265  -1.025  -0.504  0.00  0.00    +0.000 A 
ATOM     16  C   UNL     1       0.011  -1.550  -0.298  0.00  0.00    +0.000 A 
ENDBRANCH   1  14
BRANCH   3  17
ATOM     17  S   UNL     1      -5.039   0.592  -3.889  0.00  0.00    +0.000 S 
ATOM     18  H   UNL     1      -4.061   1.190  -4.621  0.00  0.00    +0.000 HD
ENDBRANCH   3  17
BRANCH   2  19
ATOM     19  S   UNL     1      -2.238   1.845  -2.819  0.00  0.00    +0.000 S 
ATOM     20  H   UNL     1      -1.138   2.213  -2.108  0.00  0.00    +0.000 HD
ENDBRANCH   2  19
TORSDOF 3
