MODEL 1
REMARK VINA RESULT:      -5.1      0.000      0.000
REMARK  Name = *****
REMARK  4 active torsions:
REMARK  status: ('A' for Active; 'I' for Inactive)
REMARK    1  A    between atoms: C_1  and  C_2
REMARK    2  A    between atoms: C_2  and  C_21
REMARK    3  A    between atoms: C_12  and  C_13
REMARK    4  A    between atoms: C_12  and  O_20
REMARK                            x       y       z     vdW  Elec       q    Type
REMARK                         _______ _______ _______ _____ _____    ______ ____
ROOT
ATOM      1  C   UNL     1     101.548 126.165  84.627  0.00  0.00    +0.000 C 
ATOM      2  C   UNL     1     102.014 127.121  83.512  0.00  0.00    +0.000 C 
ATOM      3  C   UNL     1     103.302 127.833  83.893  0.00  0.00    +0.000 C 
ATOM      4  O   UNL     1     103.664 127.993  85.055  0.00  0.00    +0.000 OA
ATOM      5  C   UNL     1     104.102 128.393  82.784  0.00  0.00    +0.000 A 
ATOM      6  C   UNL     1     105.210 129.204  83.048  0.00  0.00    +0.000 A 
ATOM      7  C   UNL     1     105.929 129.757  81.988  0.00  0.00    +0.000 A 
ATOM      8  C   UNL     1     105.538 129.503  80.672  0.00  0.00    +0.000 A 
ATOM      9  C   UNL     1     104.433 128.688  80.414  0.00  0.00    +0.000 A 
ATOM     10  C   UNL     1     103.723 128.120  81.472  0.00  0.00    +0.000 A 
ATOM     11  O   UNL     1     102.658 127.330  81.135  0.00  0.00    +0.000 OA
ATOM     12  C   UNL     1     102.256 126.393  82.156  0.00  0.00    +0.000 C 
ATOM     13  C   UNL     1     100.931 128.224  83.391  0.00  0.00    +0.000 C 
ENDROOT
BRANCH  12  14
ATOM     14  C   UNL     1     103.205 125.186  82.067  0.00  0.00    +0.000 A 
ATOM     15  C   UNL     1     103.663 124.451  83.175  0.00  0.00    +0.000 A 
ATOM     16  C   UNL     1     104.562 123.388  83.024  0.00  0.00    +0.000 A 
ATOM     17  C   UNL     1     105.032 123.043  81.760  0.00  0.00    +0.000 A 
ATOM     18  C   UNL     1     104.612 123.757  80.645  0.00  0.00    +0.000 A 
ATOM     19  C   UNL     1     103.715 124.818  80.802  0.00  0.00    +0.000 A 
ATOM     20  I   UNL     1     106.367 121.468  81.543  0.00  0.00    +0.000 I 
ENDBRANCH  12  14
BRANCH  12  21
ATOM     21  O   UNL     1     100.979 125.893  81.723  0.00  0.00    +0.000 OA
ATOM     22  H   UNL     1     100.460 125.617  82.494  0.00  0.00    +0.000 HD
ENDBRANCH  12  21
TORSDOF 2
ENDMDL
