MODEL 1
REMARK VINA RESULT:      -5.1      0.000      0.000
REMARK  Name = *****
REMARK  1 active torsions:
REMARK  status: ('A' for Active; 'I' for Inactive)
REMARK    1  A    between atoms: C_3  and  C_11
REMARK                            x       y       z     vdW  Elec       q    Type
REMARK                         _______ _______ _______ _____ _____    ______ ____
ROOT
ATOM      1  C   UNL     1      87.497  70.950  85.261  0.00  0.00    +0.000 C 
ATOM      2  C   UNL     1      88.946  70.936  85.706  0.00  0.00    +0.000 C 
ATOM      3  C   UNL     1      89.130  70.132  86.999  0.00  0.00    +0.000 C 
ATOM      4  O   UNL     1      88.307  70.641  88.073  0.00  0.00    +0.000 OA
ATOM      5  C   UNL     1      87.088  71.166  87.740  0.00  0.00    +0.000 A 
ATOM      6  C   UNL     1      86.276  71.529  88.815  0.00  0.00    +0.000 A 
ATOM      7  C   UNL     1      85.002  72.051  88.589  0.00  0.00    +0.000 A 
ATOM      8  C   UNL     1      84.537  72.208  87.285  0.00  0.00    +0.000 A 
ATOM      9  C   UNL     1      85.348  71.850  86.207  0.00  0.00    +0.000 A 
ATOM     10  C   UNL     1      86.635  71.340  86.427  0.00  0.00    +0.000 A 
ATOM     11 BR   UNL     1      90.100  70.354  84.248  0.00  0.00    +0.000 Br
ENDROOT
BRANCH   3  12
ATOM     12  C   UNL     1      89.006  68.611  86.908  0.00  0.00    +0.000 A 
ATOM     13  C   UNL     1      90.067  67.862  86.367  0.00  0.00    +0.000 A 
ATOM     14  C   UNL     1      89.986  66.472  86.257  0.00  0.00    +0.000 A 
ATOM     15  C   UNL     1      88.845  65.805  86.689  0.00  0.00    +0.000 A 
ATOM     16  C   UNL     1      87.787  66.526  87.235  0.00  0.00    +0.000 A 
ATOM     17  C   UNL     1      87.867  67.917  87.345  0.00  0.00    +0.000 A 
ENDBRANCH   3  12
TORSDOF 1
ENDMDL
