MODEL 1
REMARK VINA RESULT:      -4.6      0.000      0.000
REMARK  Name = *****
REMARK  1 active torsions:
REMARK  status: ('A' for Active; 'I' for Inactive)
REMARK    1  A    between atoms: C_4  and  C_7
REMARK                            x       y       z     vdW  Elec       q    Type
REMARK                         _______ _______ _______ _____ _____    ______ ____
ROOT
ATOM      1  C   UNL     1      88.117  70.067  85.580  0.00  0.00    +0.000 C 
ATOM      2  C   UNL     1      89.558  69.809  85.129  0.00  0.00    +0.000 C 
ATOM      3  C   UNL     1      90.289  71.120  84.896  0.00  0.00    +0.000 C 
ATOM      4  C   UNL     1      89.427  72.064  84.112  0.00  0.00    +0.000 A 
ATOM      5  C   UNL     1      89.995  73.192  83.503  0.00  0.00    +0.000 A 
ATOM      6  C   UNL     1      89.200  74.075  82.770  0.00  0.00    +0.000 A 
ATOM      7  C   UNL     1      87.832  73.839  82.642  0.00  0.00    +0.000 A 
ATOM      8  C   UNL     1      87.259  72.726  83.255  0.00  0.00    +0.000 A 
ATOM      9  C   UNL     1      88.049  71.850  83.999  0.00  0.00    +0.000 A 
ATOM     10  O   UNL     1      87.394  70.789  84.566  0.00  0.00    +0.000 OA
ENDROOT
BRANCH   1  14
ATOM     11  C   UNL     1      86.954  70.804  89.766  0.00  0.00    +0.000 C 
ATOM     12  C   UNL     1      88.438  70.658  89.453  0.00  0.00    +0.000 C 
ATOM     13  C   UNL     1      88.672  70.015  88.088  0.00  0.00    +0.000 C 
ATOM     14  C   UNL     1      87.945  70.766  86.959  0.00  0.00    +0.000 C 
ATOM     15  C   UNL     1      86.447  70.925  87.297  0.00  0.00    +0.000 C 
ATOM     16  C   UNL     1      86.231  71.568  88.664  0.00  0.00    +0.000 C 
ENDBRANCH   1  14
TORSDOF 1
ENDMDL
