MODEL 1
REMARK VINA RESULT:      -4.4      0.000      0.000
REMARK  Name = *****
REMARK  4 active torsions:
REMARK  status: ('A' for Active; 'I' for Inactive)
REMARK    1  A    between atoms: C_5  and  C_7
REMARK    2  A    between atoms: C_7  and  C_8
REMARK    3  A    between atoms: C_7  and  C_10
REMARK    4  A    between atoms: C_8  and  O_9
REMARK                            x       y       z     vdW  Elec       q    Type
REMARK                         _______ _______ _______ _____ _____    ______ ____
ROOT
ATOM      1  C   UNL     1      87.626  64.332  87.424  0.00  0.00    +0.000 C 
ENDROOT
BRANCH   1   6
ATOM      2  C   UNL     1      90.899  64.555  85.422  0.00  0.00    +0.000 A 
ATOM      3  C   UNL     1      91.146  65.923  85.407  0.00  0.00    +0.000 A 
ATOM      4  C   UNL     1      90.258  66.791  86.037  0.00  0.00    +0.000 A 
ATOM      5  C   UNL     1      89.123  66.295  86.690  0.00  0.00    +0.000 A 
ATOM      6  C   UNL     1      88.863  64.911  86.732  0.00  0.00    +0.000 A 
ATOM      7  C   UNL     1      89.768  64.054  86.072  0.00  0.00    +0.000 A 
ATOM      8 CL   UNL     1      88.071  67.462  87.414  0.00  0.00    +0.000 Cl
ENDBRANCH   1   6
BRANCH   1   9
ATOM      9  C   UNL     1      87.743  64.320  88.956  0.00  0.00    +0.000 A 
ATOM     10  C   UNL     1      88.908  63.851  89.598  0.00  0.00    +0.000 A 
ATOM     11  C   UNL     1      89.021  63.852  90.990  0.00  0.00    +0.000 A 
ATOM     12  C   UNL     1      87.977  64.325  91.777  0.00  0.00    +0.000 A 
ATOM     13  C   UNL     1      86.819  64.802  91.169  0.00  0.00    +0.000 A 
ATOM     14  C   UNL     1      86.700  64.803  89.773  0.00  0.00    +0.000 A 
ATOM     15 CL   UNL     1      85.221  65.419  89.122  0.00  0.00    +0.000 Cl
ENDBRANCH   1   9
BRANCH   1  16
ATOM     16  C   UNL     1      87.262  62.960  86.798  0.00  0.00    +0.000 C 
BRANCH  16  17
ATOM     17  O   UNL     1      86.376  62.193  87.613  0.00  0.00    +0.000 OA
ATOM     18  H   UNL     1      86.646  61.262  87.597  0.00  0.00    +0.000 HD
ENDBRANCH  16  17
ENDBRANCH   1  16
TORSDOF 4
ENDMDL
