REMARK  Name = *****
REMARK  1 active torsions:
REMARK  status: ('A' for Active; 'I' for Inactive)
REMARK    1  A    between atoms: C_3  and  C_13
REMARK                            x       y       z     vdW  Elec       q    Type
REMARK                         _______ _______ _______ _____ _____    ______ ____
ROOT
ATOM      1  C   UNL     1      -3.256  -0.016  -0.312  0.00  0.00    +0.000 C 
ATOM      2  C   UNL     1      -1.976   0.178   0.048  0.00  0.00    +0.000 C 
ATOM      3  C   UNL     1      -1.405   1.457   0.594  0.00  0.00    +0.000 C 
ATOM      4  O   UNL     1      -0.177   1.808  -0.079  0.00  0.00    +0.000 OA
ATOM      5  C   UNL     1       0.747   0.799  -0.136  0.00  0.00    +0.000 A 
ATOM      6  C   UNL     1       2.084   1.180  -0.246  0.00  0.00    +0.000 A 
ATOM      7  C   UNL     1       3.083   0.206  -0.315  0.00  0.00    +0.000 A 
ATOM      8  C   UNL     1       2.745  -1.148  -0.288  0.00  0.00    +0.000 A 
ATOM      9  C   UNL     1       1.406  -1.531  -0.200  0.00  0.00    +0.000 A 
ATOM     10  C   UNL     1       0.408  -0.553  -0.127  0.00  0.00    +0.000 A 
ATOM     11  C   UNL     1      -1.012  -0.942  -0.099  0.00  0.00    +0.000 C 
ATOM     12  O   UNL     1      -1.363  -2.112  -0.190  0.00  0.00    +0.000 OA
ENDROOT
BRANCH   3  13
ATOM     13  C   UNL     1      -1.223   1.535   2.112  0.00  0.00    +0.000 A 
ATOM     14  C   UNL     1      -1.691   0.546   2.994  0.00  0.00    +0.000 A 
ATOM     15  C   UNL     1      -1.514   0.677   4.375  0.00  0.00    +0.000 A 
ATOM     16  C   UNL     1      -0.877   1.799   4.898  0.00  0.00    +0.000 A 
ATOM     17  C   UNL     1      -0.418   2.796   4.042  0.00  0.00    +0.000 A 
ATOM     18  C   UNL     1      -0.592   2.667   2.663  0.00  0.00    +0.000 A 
ENDBRANCH   3  13
TORSDOF 1
