MODEL 1
REMARK VINA RESULT:      -5.4      0.000      0.000
REMARK  Name = *****
REMARK  2 active torsions:
REMARK  status: ('A' for Active; 'I' for Inactive)
REMARK    1  A    between atoms: C_2  and  C_11
REMARK    2  A    between atoms: C_2  and  O_21
REMARK                            x       y       z     vdW  Elec       q    Type
REMARK                         _______ _______ _______ _____ _____    ______ ____
ROOT
ATOM      1  C   UNL     1      89.955  66.503  84.271  0.00  0.00    +0.000 C 
ATOM      2  C   UNL     1      90.310  66.111  85.721  0.00  0.00    +0.000 C 
ATOM      3  O   UNL     1      90.466  67.290  86.531  0.00  0.00    +0.000 OA
ATOM      4  C   UNL     1      89.536  68.260  86.267  0.00  0.00    +0.000 A 
ATOM      5  C   UNL     1      89.439  69.292  87.200  0.00  0.00    +0.000 A 
ATOM      6  C   UNL     1      88.499  70.308  87.020  0.00  0.00    +0.000 A 
ATOM      7  C   UNL     1      87.659  70.291  85.906  0.00  0.00    +0.000 A 
ATOM      8  C   UNL     1      87.766  69.265  84.967  0.00  0.00    +0.000 A 
ATOM      9  C   UNL     1      88.715  68.257  85.140  0.00  0.00    +0.000 A 
ATOM     10  O   UNL     1      88.772  67.301  84.164  0.00  0.00    +0.000 OA
ENDROOT
BRANCH   2  11
ATOM     11  C   UNL     1      89.311  65.127  86.351  0.00  0.00    +0.000 A 
ATOM     12  C   UNL     1      89.062  65.178  87.727  0.00  0.00    +0.000 A 
ATOM     13  C   UNL     1      88.172  64.266  88.311  0.00  0.00    +0.000 A 
ATOM     14  C   UNL     1      87.880  64.286  89.685  0.00  0.00    +0.000 A 
ATOM     15  C   UNL     1      86.988  63.366  90.238  0.00  0.00    +0.000 A 
ATOM     16  C   UNL     1      86.377  62.412  89.427  0.00  0.00    +0.000 A 
ATOM     17  C   UNL     1      86.658  62.376  88.061  0.00  0.00    +0.000 A 
ATOM     18  C   UNL     1      87.555  63.301  87.496  0.00  0.00    +0.000 A 
ATOM     19  C   UNL     1      87.878  63.312  86.139  0.00  0.00    +0.000 A 
ATOM     20  N   UNL     1      88.735  64.185  85.558  0.00  0.00    +0.000 NA
ENDBRANCH   2  11
BRANCH   2  21
ATOM     21  O   UNL     1      91.586  65.445  85.727  0.00  0.00    +0.000 OA
ATOM     22  H   UNL     1      91.466  64.520  85.993  0.00  0.00    +0.000 HD
ENDBRANCH   2  21
TORSDOF 2
ENDMDL
