REMARK  Name = *****
REMARK  6 active torsions:
REMARK  status: ('A' for Active; 'I' for Inactive)
REMARK    1  A    between atoms: C_1  and  C_2
REMARK    2  A    between atoms: C_2  and  C_3
REMARK    3  A    between atoms: C_2  and  S_12
REMARK    4  A    between atoms: C_3  and  C_4
REMARK    5  A    between atoms: C_3  and  O_11
REMARK    6  A    between atoms: S_12  and  C_13
REMARK                            x       y       z     vdW  Elec       q    Type
REMARK                         _______ _______ _______ _____ _____    ______ ____
ROOT
ATOM      1  C   UNL     1       2.916   1.253   0.124  0.00  0.00    +0.000 C 
ENDROOT
BRANCH   1   2
ATOM      2  C   UNL     1       4.426   1.139   0.258  0.00  0.00    +0.000 A 
ATOM      3  C   UNL     1       5.193   0.512  -0.739  0.00  0.00    +0.000 A 
ATOM      4  C   UNL     1       6.579   0.406  -0.609  0.00  0.00    +0.000 A 
ATOM      5  C   UNL     1       7.209   0.926   0.520  0.00  0.00    +0.000 A 
ATOM      6  C   UNL     1       6.465   1.551   1.517  0.00  0.00    +0.000 A 
ATOM      7  C   UNL     1       5.078   1.658   1.386  0.00  0.00    +0.000 A 
ATOM      8 CL   UNL     1       8.917   0.796   0.681  0.00  0.00    +0.000 Cl
ENDBRANCH   1   2
BRANCH   1  10
ATOM      9  C   UNL     1       0.679   0.052  -0.082  0.00  0.00    +0.000 C 
ATOM     10  C   UNL     1       2.172  -0.104   0.226  0.00  0.00    +0.000 C 
BRANCH  10  11
ATOM     11  S   UNL     1       2.345  -0.814   1.924  0.00  0.00    +0.000 S 
BRANCH  11  12
ATOM     12  C   UNL     1       2.176  -2.549   1.554  0.00  0.00    +0.000 A 
ATOM     13  C   UNL     1       3.168  -3.231   0.842  0.00  0.00    +0.000 A 
ATOM     14  C   UNL     1       3.027  -4.593   0.569  0.00  0.00    +0.000 A 
ATOM     15  C   UNL     1       1.899  -5.281   1.013  0.00  0.00    +0.000 A 
ATOM     16  C   UNL     1       0.914  -4.609   1.735  0.00  0.00    +0.000 A 
ATOM     17  C   UNL     1       1.054  -3.247   2.010  0.00  0.00    +0.000 A 
ENDBRANCH  11  12
ENDBRANCH  10  11
ENDBRANCH   1  10
BRANCH   1  18
ATOM     18  O   UNL     1       2.636   1.872  -1.140  0.00  0.00    +0.000 OA
ATOM     19  H   UNL     1       2.976   1.313  -1.856  0.00  0.00    +0.000 HD
ENDBRANCH   1  18
TORSDOF 5
