MODEL 1
REMARK VINA RESULT:      -4.9      0.000      0.000
REMARK  Name = *****
REMARK  1 active torsions:
REMARK  status: ('A' for Active; 'I' for Inactive)
REMARK    1  A    between atoms: C_2  and  C_12
REMARK                            x       y       z     vdW  Elec       q    Type
REMARK                         _______ _______ _______ _____ _____    ______ ____
ROOT
ATOM      1  C   UNL     1      87.943  68.384  87.166  0.00  0.00    +0.000 C 
ATOM      2  C   UNL     1      86.915  69.469  87.472  0.00  0.00    +0.000 C 
ATOM      3  O   UNL     1      86.577  70.197  86.275  0.00  0.00    +0.000 OA
ATOM      4  C   UNL     1      87.657  70.697  85.596  0.00  0.00    +0.000 A 
ATOM      5  C   UNL     1      87.411  71.768  84.736  0.00  0.00    +0.000 A 
ATOM      6  C   UNL     1      88.463  72.342  84.020  0.00  0.00    +0.000 A 
ATOM      7  C   UNL     1      89.760  71.842  84.153  0.00  0.00    +0.000 A 
ATOM      8  C   UNL     1      90.005  70.759  84.996  0.00  0.00    +0.000 A 
ATOM      9  C   UNL     1      88.948  70.185  85.709  0.00  0.00    +0.000 A 
ATOM     10  C   UNL     1      89.171  69.008  86.566  0.00  0.00    +0.000 C 
ATOM     11  O   UNL     1      90.292  68.539  86.730  0.00  0.00    +0.000 OA
ENDROOT
BRANCH   2  12
ATOM     12  C   UNL     1      87.193  70.436  88.622  0.00  0.00    +0.000 A 
ATOM     13  C   UNL     1      86.135  71.233  89.101  0.00  0.00    +0.000 A 
ATOM     14  C   UNL     1      86.320  72.134  90.156  0.00  0.00    +0.000 A 
ATOM     15  C   UNL     1      87.574  72.247  90.759  0.00  0.00    +0.000 A 
ATOM     16  C   UNL     1      88.630  71.455  90.304  0.00  0.00    +0.000 A 
ATOM     17  C   UNL     1      88.442  70.555  89.249  0.00  0.00    +0.000 A 
ATOM     18 CL   UNL     1      87.885  73.332  92.065  0.00  0.00    +0.000 Cl
ATOM     19 CL   UNL     1      84.960  73.072  90.661  0.00  0.00    +0.000 Cl
ENDBRANCH   2  12
TORSDOF 1
ENDMDL
