MODEL 1
REMARK VINA RESULT:      -4.4      0.000      0.000
REMARK  Name = *****
REMARK  6 active torsions:
REMARK  status: ('A' for Active; 'I' for Inactive)
REMARK    1  A    between atoms: C_1  and  C_2
REMARK    2  A    between atoms: C_2  and  C_3
REMARK    3  A    between atoms: C_2  and  N_9
REMARK    4  A    between atoms: N_9  and  C_10
REMARK    5  A    between atoms: N_9  and  S_12
REMARK    6  A    between atoms: S_12  and  C_15
REMARK                            x       y       z     vdW  Elec       q    Type
REMARK                         _______ _______ _______ _____ _____    ______ ____
ROOT
ATOM      1  N   UNL     1      87.992  68.708  85.955  0.00  0.00    +0.000 N 
ENDROOT
BRANCH   1   2
ATOM      2  S   UNL     1      88.443  70.348  86.053  0.00  0.00    +0.000 S 
ATOM      3  O   UNL     1      89.457  70.542  87.070  0.00  0.00    +0.000 OA
ATOM      4  O   UNL     1      88.647  70.837  84.703  0.00  0.00    +0.000 OA
BRANCH   2   5
ATOM      5  C   UNL     1      86.952  71.096  86.679  0.00  0.00    +0.000 A 
ATOM      6  C   UNL     1      86.742  71.132  88.061  0.00  0.00    +0.000 A 
ATOM      7  C   UNL     1      85.578  71.712  88.564  0.00  0.00    +0.000 A 
ATOM      8  C   UNL     1      84.636  72.257  87.689  0.00  0.00    +0.000 A 
ATOM      9  C   UNL     1      84.857  72.231  86.310  0.00  0.00    +0.000 A 
ATOM     10  C   UNL     1      86.020  71.652  85.798  0.00  0.00    +0.000 A 
ENDBRANCH   2   5
ENDBRANCH   1   2
BRANCH   1  12
ATOM     11  C   UNL     1      87.281  67.409  87.922  0.00  0.00    +0.000 C 
ATOM     12  C   UNL     1      88.469  67.811  87.040  0.00  0.00    +0.000 C 
BRANCH  12  13
ATOM     13  C   UNL     1      89.258  66.622  86.505  0.00  0.00    +0.000 A 
ATOM     14  C   UNL     1      90.484  66.775  85.837  0.00  0.00    +0.000 A 
ATOM     15  C   UNL     1      91.190  65.661  85.373  0.00  0.00    +0.000 A 
ATOM     16  C   UNL     1      90.685  64.380  85.576  0.00  0.00    +0.000 A 
ATOM     17  C   UNL     1      89.477  64.208  86.247  0.00  0.00    +0.000 A 
ATOM     18  C   UNL     1      88.771  65.320  86.711  0.00  0.00    +0.000 A 
ENDBRANCH  12  13
ENDBRANCH   1  12
BRANCH   1  19
ATOM     19  C   UNL     1      87.185  68.383  84.933  0.00  0.00    +0.000 C 
ATOM     20  C   UNL     1      86.463  68.106  84.015  0.00  0.00    +0.000 C 
ENDBRANCH   1  19
TORSDOF 5
ENDMDL
