MODEL 1
REMARK VINA RESULT:      -5.1      0.000      0.000
REMARK  Name = *****
REMARK  3 active torsions:
REMARK  status: ('A' for Active; 'I' for Inactive)
REMARK    1  A    between atoms: C_1  and  O_2
REMARK    2  A    between atoms: O_2  and  C_3
REMARK    3  A    between atoms: C_3  and  C_15
REMARK                            x       y       z     vdW  Elec       q    Type
REMARK                         _______ _______ _______ _____ _____    ______ ____
ROOT
ATOM      1  C   UNL     1     103.713 126.750  81.732  0.00  0.00    +0.000 C 
ATOM      2  C   UNL     1     103.593 126.038  80.393  0.00  0.00    +0.000 C 
ATOM      3  C   UNL     1     104.246 124.892  80.136  0.00  0.00    +0.000 C 
ATOM      4  C   UNL     1     105.222 124.288  81.137  0.00  0.00    +0.000 C 
ATOM      5  C   UNL     1     106.554 124.018  80.407  0.00  0.00    +0.000 C 
ATOM      6  C   UNL     1     107.525 123.105  81.160  0.00  0.00    +0.000 C 
ATOM      7  C   UNL     1     107.306 121.627  80.841  0.00  0.00    +0.000 C 
ATOM      8  C   UNL     1     106.044 121.010  81.435  0.00  0.00    +0.000 C 
ATOM      9  C   UNL     1     104.741 121.735  81.104  0.00  0.00    +0.000 C 
ATOM     10  C   UNL     1     104.610 123.065  81.846  0.00  0.00    +0.000 C 
ATOM     11  O   UNL     1     105.524 125.293  82.138  0.00  0.00    +0.000 OA
ATOM     12  O   UNL     1     104.243 125.784  82.677  0.00  0.00    +0.000 OA
ENDROOT
BRANCH   1  13
ATOM     13  C   UNL     1     102.370 127.163  82.353  0.00  0.00    +0.000 A 
ATOM     14  C   UNL     1     102.231 128.335  83.124  0.00  0.00    +0.000 A 
ATOM     15  C   UNL     1     100.991 128.706  83.651  0.00  0.00    +0.000 A 
ATOM     16  C   UNL     1      99.874 127.920  83.398  0.00  0.00    +0.000 A 
ATOM     17  C   UNL     1      99.970 126.776  82.620  0.00  0.00    +0.000 A 
ATOM     18  C   UNL     1     101.209 126.405  82.092  0.00  0.00    +0.000 A 
ATOM     19  F   UNL     1      98.686 128.279  83.904  0.00  0.00    +0.000 F 
ENDBRANCH   1  13
BRANCH   1  21
ATOM     20  C   UNL     1     104.603 128.560  80.390  0.00  0.00    +0.000 C 
ATOM     21  O   UNL     1     104.606 127.871  81.631  0.00  0.00    +0.000 OA
ENDBRANCH   1  21
TORSDOF 2
ENDMDL
