MODEL 1
REMARK VINA RESULT:      -5.7      0.000      0.000
REMARK  Name = *****
REMARK  2 active torsions:
REMARK  status: ('A' for Active; 'I' for Inactive)
REMARK    1  A    between atoms: C_1  and  C_2
REMARK    2  A    between atoms: C_4  and  C_8
REMARK                            x       y       z     vdW  Elec       q    Type
REMARK                         _______ _______ _______ _____ _____    ______ ____
ROOT
ATOM      1  C   UNL     1     101.850 126.855  82.151  0.00  0.00    +0.000 C 
ATOM      2  C   UNL     1     100.452 126.279  82.337  0.00  0.00    +0.000 C 
ATOM      3  C   UNL     1      99.496 127.424  82.521  0.00  0.00    +0.000 C 
ATOM      4  O   UNL     1      98.325 127.370  82.162  0.00  0.00    +0.000 OA
ATOM      5  C   UNL     1     100.021 128.606  83.233  0.00  0.00    +0.000 A 
ATOM      6  C   UNL     1      99.177 129.668  83.570  0.00  0.00    +0.000 A 
ATOM      7  C   UNL     1      99.684 130.748  84.293  0.00  0.00    +0.000 A 
ATOM      8  C   UNL     1     101.026 130.760  84.682  0.00  0.00    +0.000 A 
ATOM      9  C   UNL     1     101.865 129.697  84.341  0.00  0.00    +0.000 A 
ATOM     10  C   UNL     1     101.366 128.626  83.601  0.00  0.00    +0.000 A 
ATOM     11  O   UNL     1     102.248 127.623  83.300  0.00  0.00    +0.000 OA
ENDROOT
BRANCH   1  15
ATOM     12  C   UNL     1     104.602 122.970  83.896  0.00  0.00    +0.000 C 
ATOM     13  C   UNL     1     104.184 123.868  82.770  0.00  0.00    +0.000 A 
ATOM     14  C   UNL     1     103.266 124.906  82.984  0.00  0.00    +0.000 A 
ATOM     15  C   UNL     1     102.858 125.741  81.931  0.00  0.00    +0.000 A 
ATOM     16  C   UNL     1     103.368 125.504  80.646  0.00  0.00    +0.000 A 
ATOM     17  C   UNL     1     104.271 124.465  80.423  0.00  0.00    +0.000 A 
ATOM     18  C   UNL     1     104.675 123.649  81.479  0.00  0.00    +0.000 A 
ENDBRANCH   1  15
TORSDOF 1
ENDMDL
