MODEL 1
REMARK VINA RESULT:      -4.9      0.000      0.000
REMARK  Name = *****
REMARK  3 active torsions:
REMARK  status: ('A' for Active; 'I' for Inactive)
REMARK    1  A    between atoms: C_1  and  C_2
REMARK    2  A    between atoms: N_12  and  N_13
REMARK    3  A    between atoms: C_14  and  C_15
REMARK                            x       y       z     vdW  Elec       q    Type
REMARK                         _______ _______ _______ _____ _____    ______ ____
ROOT
ATOM      1  C   UNL     1      89.721  64.138  85.850  0.00  0.00    +0.000 C 
ATOM      2  C   UNL     1      89.034  65.382  86.356  0.00  0.00    +0.000 A 
ATOM      3  N   UNL     1      89.690  66.501  86.318  0.00  0.00    +0.000 NA
ATOM      4  C   UNL     1      89.045  67.661  86.766  0.00  0.00    +0.000 A 
ATOM      5  C   UNL     1      89.753  68.865  86.763  0.00  0.00    +0.000 A 
ATOM      6  C   UNL     1      89.144  70.053  87.178  0.00  0.00    +0.000 A 
ATOM      7  C   UNL     1      87.815  70.046  87.598  0.00  0.00    +0.000 A 
ATOM      8  C   UNL     1      87.096  68.851  87.607  0.00  0.00    +0.000 A 
ATOM      9  C   UNL     1      87.718  67.666  87.192  0.00  0.00    +0.000 A 
ATOM     10  C   UNL     1      86.989  66.384  87.203  0.00  0.00    +0.000 A 
ATOM     11  O   UNL     1      85.801  66.371  87.524  0.00  0.00    +0.000 OA
ATOM     12  N   UNL     1      87.749  65.261  86.863  0.00  0.00    +0.000 N 
ENDROOT
BRANCH  12  13
ATOM     13  N   UNL     1      87.091  64.052  86.769  0.00  0.00    +0.000 NA
ATOM     14  C   UNL     1      86.974  63.333  87.848  0.00  0.00    +0.000 C 
BRANCH  14  15
ATOM     15  C   UNL     1      87.452  63.632  89.210  0.00  0.00    +0.000 A 
ATOM     16  C   UNL     1      88.821  63.578  89.490  0.00  0.00    +0.000 A 
ATOM     17  C   UNL     1      89.282  63.884  90.771  0.00  0.00    +0.000 A 
ATOM     18  C   UNL     1      88.382  64.265  91.765  0.00  0.00    +0.000 A 
ATOM     19  C   UNL     1      87.018  64.353  91.477  0.00  0.00    +0.000 A 
ATOM     20  C   UNL     1      86.551  64.047  90.196  0.00  0.00    +0.000 A 
ATOM     21 CL   UNL     1      84.856  64.191  89.896  0.00  0.00    +0.000 Cl
ENDBRANCH  14  15
ENDBRANCH  12  13
TORSDOF 2
ENDMDL
