MODEL 1
REMARK VINA RESULT:      -4.8      0.000      0.000
REMARK  Name = *****
REMARK  4 active torsions:
REMARK  status: ('A' for Active; 'I' for Inactive)
REMARK    1  A    between atoms: C_4  and  C_7
REMARK    2  A    between atoms: C_7  and  O_8
REMARK    3  A    between atoms: O_8  and  C_9
REMARK    4  A    between atoms: N_15  and  N_18
REMARK                            x       y       z     vdW  Elec       q    Type
REMARK                         _______ _______ _______ _____ _____    ______ ____
ROOT
ATOM      1  C   UNL     1      88.108  68.422  87.517  0.00  0.00    +0.000 A 
ATOM      2  C   UNL     1      87.758  67.072  87.652  0.00  0.00    +0.000 A 
ATOM      3  C   UNL     1      88.540  66.074  87.038  0.00  0.00    +0.000 A 
ATOM      4  C   UNL     1      89.658  66.460  86.290  0.00  0.00    +0.000 A 
ATOM      5  C   UNL     1      90.006  67.812  86.122  0.00  0.00    +0.000 A 
ATOM      6  C   UNL     1      89.210  68.782  86.744  0.00  0.00    +0.000 A 
ATOM      7  N   UNL     1      90.238  65.296  85.832  0.00  0.00    +0.000 N 
ATOM      8  C   UNL     1      89.529  64.200  86.246  0.00  0.00    +0.000 A 
ATOM      9  C   UNL     1      88.465  64.652  86.995  0.00  0.00    +0.000 A 
ENDROOT
BRANCH   7  10
ATOM     10  N   UNL     1      91.398  65.284  85.063  0.00  0.00    +0.000 NA
ATOM     11  O   UNL     1      91.213  65.087  83.856  0.00  0.00    +0.000 OA
ENDBRANCH   7  10
BRANCH   1  12
ATOM     12  O   UNL     1      87.288  69.286  88.193  0.00  0.00    +0.000 OA
BRANCH  12  13
ATOM     13  C   UNL     1      87.544  70.683  88.033  0.00  0.00    +0.000 C 
BRANCH  13  17
ATOM     14  C   UNL     1      84.260  72.529  85.914  0.00  0.00    +0.000 A 
ATOM     15  C   UNL     1      85.332  71.981  85.213  0.00  0.00    +0.000 A 
ATOM     16  C   UNL     1      86.391  71.390  85.905  0.00  0.00    +0.000 A 
ATOM     17  C   UNL     1      86.395  71.350  87.308  0.00  0.00    +0.000 A 
ATOM     18  C   UNL     1      85.300  71.888  87.999  0.00  0.00    +0.000 A 
ATOM     19  C   UNL     1      84.243  72.481  87.306  0.00  0.00    +0.000 A 
ENDBRANCH  13  17
ENDBRANCH  12  13
ENDBRANCH   1  12
TORSDOF 4
ENDMDL
