MODEL 1
REMARK VINA RESULT:      -5.4      0.000      0.000
REMARK  Name = *****
REMARK  2 active torsions:
REMARK  status: ('A' for Active; 'I' for Inactive)
REMARK    1  A    between atoms: C_1  and  C_2
REMARK    2  A    between atoms: C_9  and  C_13
REMARK                            x       y       z     vdW  Elec       q    Type
REMARK                         _______ _______ _______ _____ _____    ______ ____
ROOT
ATOM      1  C   UNL     1     105.130 122.751  80.396  0.00  0.00    +0.000 C 
ATOM      2  C   UNL     1     104.434 123.989  80.877  0.00  0.00    +0.000 A 
ATOM      3  C   UNL     1     103.972 124.077  82.197  0.00  0.00    +0.000 A 
ATOM      4  C   UNL     1     103.354 125.249  82.646  0.00  0.00    +0.000 A 
ATOM      5  C   UNL     1     103.191 126.335  81.787  0.00  0.00    +0.000 A 
ATOM      6  C   UNL     1     103.680 126.268  80.485  0.00  0.00    +0.000 A 
ATOM      7  C   UNL     1     104.298 125.100  80.032  0.00  0.00    +0.000 A 
ATOM      8  O   UNL     1     102.594 127.510  82.162  0.00  0.00    +0.000 OA
ATOM      9  C   UNL     1     101.668 127.342  83.254  0.00  0.00    +0.000 C 
ATOM     10  C   UNL     1     102.366 126.717  84.456  0.00  0.00    +0.000 C 
ATOM     11  C   UNL     1     102.908 125.377  84.046  0.00  0.00    +0.000 C 
ATOM     12  O   UNL     1     103.042 124.450  84.839  0.00  0.00    +0.000 OA
ENDROOT
BRANCH   9  13
ATOM     13  C   UNL     1     101.087 128.699  83.626  0.00  0.00    +0.000 A 
ATOM     14  C   UNL     1     101.882 129.647  84.299  0.00  0.00    +0.000 A 
ATOM     15  C   UNL     1     101.366 130.889  84.673  0.00  0.00    +0.000 A 
ATOM     16  C   UNL     1     100.043 131.208  84.387  0.00  0.00    +0.000 A 
ATOM     17  C   UNL     1      99.234 130.281  83.732  0.00  0.00    +0.000 A 
ATOM     18  C   UNL     1      99.748 129.035  83.357  0.00  0.00    +0.000 A 
ATOM     19 CL   UNL     1      98.666 127.937  82.573  0.00  0.00    +0.000 Cl
ENDBRANCH   9  13
TORSDOF 1
ENDMDL
