MODEL 1
REMARK VINA RESULT:      -5.1      0.000      0.000
REMARK  Name = *****
REMARK  2 active torsions:
REMARK  status: ('A' for Active; 'I' for Inactive)
REMARK    1  A    between atoms: C_6  and  C_11
REMARK    2  A    between atoms: C_6  and  O_17
REMARK                            x       y       z     vdW  Elec       q    Type
REMARK                         _______ _______ _______ _____ _____    ______ ____
ROOT
ATOM      1  C   UNL     1      99.151 128.831  84.189  0.00  0.00    +0.000 C 
ATOM      2  C   UNL     1      98.488 127.923  83.157  0.00  0.00    +0.000 C 
ATOM      3  C   UNL     1      99.361 126.716  82.819  0.00  0.00    +0.000 C 
ATOM      4  C   UNL     1     100.763 127.149  82.366  0.00  0.00    +0.000 C 
ATOM      5  C   UNL     1     101.636 125.925  82.036  0.00  0.00    +0.000 C 
ATOM      6  C   UNL     1     103.081 126.295  81.628  0.00  0.00    +0.000 C 
ATOM      7  C   UNL     1     103.706 127.245  82.675  0.00  0.00    +0.000 C 
ATOM      8  C   UNL     1     102.832 128.462  82.993  0.00  0.00    +0.000 C 
ATOM      9  C   UNL     1     101.429 128.032  83.436  0.00  0.00    +0.000 C 
ATOM     10  C   UNL     1     100.553 129.251  83.757  0.00  0.00    +0.000 C 
ENDROOT
BRANCH   6  11
ATOM     11  C   UNL     1     103.880 125.011  81.374  0.00  0.00    +0.000 A 
ATOM     12  C   UNL     1     104.020 124.068  82.413  0.00  0.00    +0.000 A 
ATOM     13  C   UNL     1     104.757 122.893  82.241  0.00  0.00    +0.000 A 
ATOM     14  C   UNL     1     105.377 122.636  81.023  0.00  0.00    +0.000 A 
ATOM     15  C   UNL     1     105.256 123.552  79.982  0.00  0.00    +0.000 A 
ATOM     16  C   UNL     1     104.518 124.727  80.155  0.00  0.00    +0.000 A 
ENDBRANCH   6  11
BRANCH   6  17
ATOM     17  O   UNL     1     103.048 126.992  80.371  0.00  0.00    +0.000 OA
ATOM     18  H   UNL     1     103.188 126.361  79.647  0.00  0.00    +0.000 HD
ENDBRANCH   6  17
TORSDOF 2
ENDMDL
