MODEL 1
REMARK VINA RESULT:      -5.4      0.000      0.000
REMARK  Name = *****
REMARK  1 active torsions:
REMARK  status: ('A' for Active; 'I' for Inactive)
REMARK    1  A    between atoms: C_1  and  C_2
REMARK                            x       y       z     vdW  Elec       q    Type
REMARK                         _______ _______ _______ _____ _____    ______ ____
ROOT
ATOM      1  C   UNL     1      87.129  68.006  85.207  0.00  0.00    +0.000 C 
ATOM      2  C   UNL     1      88.541  68.270  85.734  0.00  0.00    +0.000 C 
ATOM      3  C   UNL     1      88.548  68.694  87.200  0.00  0.00    +0.000 C 
ATOM      4  C   UNL     1      88.550  70.211  87.419  0.00  0.00    +0.000 C 
ATOM      5  C   UNL     1      87.228  70.915  87.280  0.00  0.00    +0.000 A 
ATOM      6  C   UNL     1      86.571  71.389  86.152  0.00  0.00    +0.000 A 
ATOM      7  C   UNL     1      85.332  72.018  86.306  0.00  0.00    +0.000 A 
ATOM      8  C   UNL     1      84.769  72.182  87.578  0.00  0.00    +0.000 A 
ATOM      9  C   UNL     1      85.448  71.734  88.712  0.00  0.00    +0.000 A 
ATOM     10  C   UNL     1      86.678  71.119  88.540  0.00  0.00    +0.000 A 
ATOM     11  C   UNL     1      87.608  70.602  89.569  0.00  0.00    +0.000 C 
ATOM     12  O   UNL     1      88.836  70.385  88.848  0.00  0.00    +0.000 OA
ATOM     13  O   UNL     1      89.574  70.882  86.686  0.00  0.00    +0.000 OA
ATOM     14  C   UNL     1      89.790  70.454  85.406  0.00  0.00    +0.000 A 
ATOM     15  C   UNL     1      90.552  71.317  84.614  0.00  0.00    +0.000 A 
ATOM     16  C   UNL     1      90.840  70.992  83.291  0.00  0.00    +0.000 A 
ATOM     17  C   UNL     1      90.373  69.794  82.758  0.00  0.00    +0.000 A 
ATOM     18  C   UNL     1      89.623  68.924  83.551  0.00  0.00    +0.000 A 
ATOM     19  C   UNL     1      89.320  69.245  84.885  0.00  0.00    +0.000 A 
ENDROOT
TORSDOF 0
ENDMDL
