MODEL 1
REMARK VINA RESULT:      -4.2      0.000      0.000
REMARK  Name = *****
REMARK  4 active torsions:
REMARK  status: ('A' for Active; 'I' for Inactive)
REMARK    1  A    between atoms: C_1  and  N_2
REMARK    2  A    between atoms: N_2  and  C_3
REMARK    3  A    between atoms: N_2  and  S_9
REMARK    4  A    between atoms: S_9  and  C_12
REMARK                            x       y       z     vdW  Elec       q    Type
REMARK                         _______ _______ _______ _____ _____    ______ ____
ROOT
ATOM      1  S   UNL     1     104.124 127.281  81.662  0.00  0.00    +0.000 S 
ATOM      2  O   UNL     1     103.467 127.615  80.418  0.00  0.00    +0.000 OA
ATOM      3  O   UNL     1     105.394 127.869  82.031  0.00  0.00    +0.000 OA
ENDROOT
BRANCH   1   4
ATOM      4  C   UNL     1     104.315 125.509  81.629  0.00  0.00    +0.000 A 
ATOM      5  C   UNL     1     104.144 124.790  82.818  0.00  0.00    +0.000 A 
ATOM      6  C   UNL     1     104.290 123.402  82.806  0.00  0.00    +0.000 A 
ATOM      7  C   UNL     1     104.602 122.748  81.613  0.00  0.00    +0.000 A 
ATOM      8  C   UNL     1     104.766 123.468  80.427  0.00  0.00    +0.000 A 
ATOM      9  C   UNL     1     104.619 124.856  80.431  0.00  0.00    +0.000 A 
ATOM     10 CL   UNL     1     104.785 121.037  81.603  0.00  0.00    +0.000 Cl
ENDBRANCH   1   4
BRANCH   1  12
ATOM     11  C   UNL     1     103.566 128.555  83.958  0.00  0.00    +0.000 C 
ATOM     12  N   UNL     1     103.049 127.535  82.989  0.00  0.00    +0.000 NA
BRANCH  12  13
ATOM     13  C   UNL     1     101.589 127.821  82.650  0.00  0.00    +0.000 C 
ATOM     14  C   UNL     1     101.020 128.793  83.710  0.00  0.00    +0.000 C 
ATOM     15  C   UNL     1      99.538 129.097  83.508  0.00  0.00    +0.000 C 
ATOM     16  C   UNL     1      98.706 127.826  83.469  0.00  0.00    +0.000 C 
ATOM     17  C   UNL     1      99.226 126.877  82.401  0.00  0.00    +0.000 C 
ATOM     18  C   UNL     1     100.709 126.562  82.591  0.00  0.00    +0.000 C 
ENDBRANCH  12  13
ENDBRANCH   1  12
TORSDOF 3
ENDMDL
