MODEL 1
REMARK VINA RESULT:      -5.1      0.000      0.000
REMARK  Name = *****
REMARK  6 active torsions:
REMARK  status: ('A' for Active; 'I' for Inactive)
REMARK    1  A    between atoms: C_1  and  C_2
REMARK    2  A    between atoms: C_5  and  C_8
REMARK    3  A    between atoms: C_8  and  O_21
REMARK    4  A    between atoms: C_10  and  O_19
REMARK    5  A    between atoms: O_19  and  C_20
REMARK    6  A    between atoms: O_21  and  C_22
REMARK                            x       y       z     vdW  Elec       q    Type
REMARK                         _______ _______ _______ _____ _____    ______ ____
ROOT
ATOM      1  C   UNL     1      87.291  70.782  88.463  0.00  0.00    +0.000 C 
ATOM      2  C   UNL     1      86.759  69.639  89.350  0.00  0.00    +0.000 C 
ATOM      3  C   UNL     1      86.500  68.364  88.561  0.00  0.00    +0.000 C 
ATOM      4  C   UNL     1      87.710  68.057  87.723  0.00  0.00    +0.000 A 
ATOM      5  C   UNL     1      88.589  69.075  87.350  0.00  0.00    +0.000 A 
ATOM      6  O   UNL     1      88.450  70.383  87.708  0.00  0.00    +0.000 OA
ATOM      7  C   UNL     1      89.719  68.787  86.578  0.00  0.00    +0.000 A 
ATOM      8  C   UNL     1      89.982  67.480  86.171  0.00  0.00    +0.000 A 
ATOM      9  C   UNL     1      89.115  66.460  86.547  0.00  0.00    +0.000 A 
ATOM     10  C   UNL     1      87.988  66.741  87.319  0.00  0.00    +0.000 A 
ATOM     11 CL   UNL     1      89.436  64.841  86.061  0.00  0.00    +0.000 Cl
ENDROOT
BRANCH   1  16
ATOM     12  C   UNL     1      83.106  73.232  85.150  0.00  0.00    +0.000 C 
ATOM     13  C   UNL     1      84.163  72.580  85.990  0.00  0.00    +0.000 A 
ATOM     14  C   UNL     1      84.046  72.548  87.382  0.00  0.00    +0.000 A 
ATOM     15  C   UNL     1      85.048  71.965  88.164  0.00  0.00    +0.000 A 
ATOM     16  C   UNL     1      86.201  71.409  87.578  0.00  0.00    +0.000 A 
ATOM     17  C   UNL     1      86.315  71.466  86.179  0.00  0.00    +0.000 A 
ATOM     18  C   UNL     1      85.311  72.046  85.397  0.00  0.00    +0.000 A 
ENDBRANCH   1  16
BRANCH   3  19
ATOM     19  O   UNL     1      85.339  68.548  87.755  0.00  0.00    +0.000 OA
ATOM     20  C   UNL     1      84.108  68.382  88.441  0.00  0.00    +0.000 C 
ENDBRANCH   3  19
BRANCH   1  21
ATOM     21  O   UNL     1      87.699  71.791  89.433  0.00  0.00    +0.000 OA
ATOM     22  C   UNL     1      88.511  71.293  90.489  0.00  0.00    +0.000 C 
ENDBRANCH   1  21
TORSDOF 3
ENDMDL
