MODEL 1
REMARK VINA RESULT:      -5.0      0.000      0.000
REMARK  Name = *****
REMARK  2 active torsions:
REMARK  status: ('A' for Active; 'I' for Inactive)
REMARK    1  A    between atoms: C_1  and  C_2
REMARK    2  A    between atoms: C_9  and  C_13
REMARK                            x       y       z     vdW  Elec       q    Type
REMARK                         _______ _______ _______ _____ _____    ______ ____
ROOT
ATOM      1  C   UNL     1      99.371 130.147  83.907  0.00  0.00    +0.000 C 
ATOM      2  C   UNL     1     100.163 128.958  83.451  0.00  0.00    +0.000 A 
ATOM      3  C   UNL     1     101.563 128.974  83.472  0.00  0.00    +0.000 A 
ATOM      4  C   UNL     1     102.302 127.852  83.066  0.00  0.00    +0.000 A 
ATOM      5  C   UNL     1     101.627 126.717  82.615  0.00  0.00    +0.000 A 
ATOM      6  C   UNL     1     100.233 126.686  82.610  0.00  0.00    +0.000 A 
ATOM      7  C   UNL     1      99.503 127.801  83.026  0.00  0.00    +0.000 A 
ATOM      8  O   UNL     1     102.250 125.577  82.198  0.00  0.00    +0.000 OA
ATOM      9  C   UNL     1     103.663 125.684  81.932  0.00  0.00    +0.000 C 
ATOM     10  C   UNL     1     104.394 126.484  83.028  0.00  0.00    +0.000 C 
ATOM     11  C   UNL     1     103.801 127.896  83.083  0.00  0.00    +0.000 C 
ATOM     12  I   UNL     1     106.533 126.664  82.655  0.00  0.00    +0.000 I 
ENDROOT
BRANCH   9  13
ATOM     13  C   UNL     1     104.155 124.251  81.794  0.00  0.00    +0.000 A 
ATOM     14  C   UNL     1     104.564 123.760  80.544  0.00  0.00    +0.000 A 
ATOM     15  C   UNL     1     105.026 122.449  80.411  0.00  0.00    +0.000 A 
ATOM     16  C   UNL     1     105.080 121.611  81.524  0.00  0.00    +0.000 A 
ATOM     17  C   UNL     1     104.666 122.080  82.769  0.00  0.00    +0.000 A 
ATOM     18  C   UNL     1     104.204 123.391  82.903  0.00  0.00    +0.000 A 
ENDBRANCH   9  13
TORSDOF 1
ENDMDL
