MODEL 1
REMARK VINA RESULT:      -5.4      0.000      0.000
REMARK  Name = *****
REMARK  5 active torsions:
REMARK  status: ('A' for Active; 'I' for Inactive)
REMARK    1  A    between atoms: C_1  and  C_2
REMARK    2  A    between atoms: C_7  and  C_8
REMARK    3  A    between atoms: C_8  and  O_21
REMARK    4  A    between atoms: C_9  and  C_19
REMARK    5  A    between atoms: C_9  and  C_20
REMARK                            x       y       z     vdW  Elec       q    Type
REMARK                         _______ _______ _______ _____ _____    ______ ____
ROOT
ATOM      1  C   UNL     1     102.819 125.673  83.212  0.00  0.00    +0.000 C 
ATOM      2  C   UNL     1     103.610 126.999  83.461  0.00  0.00    +0.000 C 
ATOM      3  C   UNL     1     102.627 128.013  84.045  0.00  0.00    +0.000 C 
ATOM      4  O   UNL     1     102.973 128.947  84.768  0.00  0.00    +0.000 OA
ATOM      5  C   UNL     1     101.218 127.923  83.617  0.00  0.00    +0.000 A 
ATOM      6  C   UNL     1     100.292 128.900  84.000  0.00  0.00    +0.000 A 
ATOM      7  C   UNL     1      98.979 128.833  83.532  0.00  0.00    +0.000 A 
ATOM      8  C   UNL     1      98.597 127.799  82.677  0.00  0.00    +0.000 A 
ATOM      9  C   UNL     1      99.523 126.826  82.300  0.00  0.00    +0.000 A 
ATOM     10  C   UNL     1     100.830 126.880  82.784  0.00  0.00    +0.000 A 
ATOM     11  O   UNL     1     101.675 125.890  82.372  0.00  0.00    +0.000 OA
ATOM     12  C   UNL     1     104.767 126.837  84.470  0.00  0.00    +0.000 C 
ATOM     13  C   UNL     1     104.171 127.632  82.175  0.00  0.00    +0.000 C 
ENDROOT
BRANCH   1  20
ATOM     14  C   UNL     1     103.549 125.384  80.150  0.00  0.00    +0.000 C 
ATOM     15  C   UNL     1     104.016 124.429  81.218  0.00  0.00    +0.000 A 
ATOM     16  C   UNL     1     104.798 123.337  80.781  0.00  0.00    +0.000 A 
ATOM     17  C   UNL     1     105.262 122.370  81.667  0.00  0.00    +0.000 A 
ATOM     18  C   UNL     1     104.946 122.466  83.012  0.00  0.00    +0.000 A 
ATOM     19  C   UNL     1     104.166 123.531  83.463  0.00  0.00    +0.000 A 
ATOM     20  C   UNL     1     103.678 124.539  82.592  0.00  0.00    +0.000 A 
ENDBRANCH   1  20
BRANCH   1  21
ATOM     21  O   UNL     1     102.320 125.180  84.469  0.00  0.00    +0.000 OA
ATOM     22  H   UNL     1     102.512 125.825  85.167  0.00  0.00    +0.000 HD
ENDBRANCH   1  21
TORSDOF 2
ENDMDL
