REMARK  Name = *****
REMARK  5 active torsions:
REMARK  status: ('A' for Active; 'I' for Inactive)
REMARK    1  A    between atoms: C_4  and  C_7
REMARK    2  A    between atoms: C_7  and  C_9
REMARK    3  A    between atoms: C_9  and  C_10
REMARK    4  A    between atoms: C_10  and  C_11
REMARK    5  A    between atoms: C_10  and  O_19
REMARK                            x       y       z     vdW  Elec       q    Type
REMARK                         _______ _______ _______ _____ _____    ______ ____
ROOT
ATOM      1  C   UNL     1      -5.183  -0.379  -0.684  0.00  0.00    +0.000 C 
ENDROOT
BRANCH   1   2
ATOM      2  C   UNL     1      -5.183  -1.759  -1.319  0.00  0.00    +0.000 A 
ATOM      3  C   UNL     1      -4.005  -2.397  -1.744  0.00  0.00    +0.000 A 
ATOM      4  C   UNL     1      -4.045  -3.671  -2.320  0.00  0.00    +0.000 A 
ATOM      5  C   UNL     1      -5.265  -4.319  -2.487  0.00  0.00    +0.000 A 
ATOM      6  C   UNL     1      -6.448  -3.702  -2.094  0.00  0.00    +0.000 A 
ATOM      7  C   UNL     1      -6.406  -2.431  -1.519  0.00  0.00    +0.000 A 
ATOM      8 CL   UNL     1      -5.313  -5.889  -3.188  0.00  0.00    +0.000 Cl
ATOM      9 CL   UNL     1      -2.454  -1.649  -1.596  0.00  0.00    +0.000 Cl
ENDBRANCH   1   2
BRANCH   1  10
ATOM     10  O   UNL     1      -6.230  -0.339   0.296  0.00  0.00    +0.000 OA
ATOM     11  H   UNL     1      -7.083  -0.505  -0.135  0.00  0.00    +0.000 HD
ENDBRANCH   1  10
BRANCH   1  12
ATOM     12  C   UNL     1      -5.401   0.712  -1.733  0.00  0.00    +0.000 C 
BRANCH  12  13
ATOM     13  C   UNL     1      -5.194   2.057  -1.072  0.00  0.00    +0.000 C 
ATOM     14  O   UNL     1      -6.050   2.488  -0.296  0.00  0.00    +0.000 OA
BRANCH  13  18
ATOM     15  C   UNL     1      -1.595   4.359  -1.507  0.00  0.00    +0.000 A 
ATOM     16  C   UNL     1      -2.718   4.901  -0.888  0.00  0.00    +0.000 A 
ATOM     17  C   UNL     1      -3.883   4.140  -0.771  0.00  0.00    +0.000 A 
ATOM     18  C   UNL     1      -3.934   2.832  -1.274  0.00  0.00    +0.000 A 
ATOM     19  C   UNL     1      -2.802   2.296  -1.896  0.00  0.00    +0.000 A 
ATOM     20  C   UNL     1      -1.636   3.060  -2.011  0.00  0.00    +0.000 A 
ENDBRANCH  13  18
ENDBRANCH  12  13
ENDBRANCH   1  12
TORSDOF 5
