MODEL 1
REMARK VINA RESULT:      -5.2      0.000      0.000
REMARK  Name = *****
REMARK  3 active torsions:
REMARK  status: ('A' for Active; 'I' for Inactive)
REMARK    1  A    between atoms: C_1  and  C_2
REMARK    2  A    between atoms: C_5  and  C_8
REMARK    3  A    between atoms: C_8  and  C_17
REMARK                            x       y       z     vdW  Elec       q    Type
REMARK                         _______ _______ _______ _____ _____    ______ ____
ROOT
ATOM      1  C   UNL     1      87.942  70.403  87.869  0.00  0.00    +0.000 C 
ATOM      2  C   UNL     1      87.739  68.916  87.836  0.00  0.00    +0.000 C 
ATOM      3  C   UNL     1      88.687  68.341  87.097  0.00  0.00    +0.000 C 
ATOM      4  C   UNL     1      88.860  66.918  86.703  0.00  0.00    +0.000 C 
ATOM      5  C   UNL     1      90.013  66.771  85.702  0.00  0.00    +0.000 C 
ATOM      6  C   UNL     1      89.944  67.809  84.576  0.00  0.00    +0.000 C 
ATOM      7  C   UNL     1      89.791  69.257  85.069  0.00  0.00    +0.000 C 
ATOM      8  C   UNL     1      89.619  69.374  86.580  0.00  0.00    +0.000 C 
ATOM      9  O   UNL     1      89.028  70.638  86.926  0.00  0.00    +0.000 OA
ATOM     10  C   UNL     1      88.454  70.864  89.240  0.00  0.00    +0.000 C 
ENDROOT
BRANCH   1  15
ATOM     11  C   UNL     1      83.087  73.215  86.158  0.00  0.00    +0.000 C 
ATOM     12  C   UNL     1      84.315  72.477  86.599  0.00  0.00    +0.000 A 
ATOM     13  C   UNL     1      85.255  72.048  85.658  0.00  0.00    +0.000 A 
ATOM     14  C   UNL     1      86.419  71.389  86.066  0.00  0.00    +0.000 A 
ATOM     15  C   UNL     1      86.684  71.149  87.424  0.00  0.00    +0.000 A 
ATOM     16  C   UNL     1      85.729  71.585  88.359  0.00  0.00    +0.000 A 
ATOM     17  C   UNL     1      84.566  72.250  87.955  0.00  0.00    +0.000 A 
ENDBRANCH   1  15
TORSDOF 1
ENDMDL
