MODEL 1
REMARK VINA RESULT:      -5.0      0.000      0.000
REMARK  Name = *****
REMARK  2 active torsions:
REMARK  status: ('A' for Active; 'I' for Inactive)
REMARK    1  A    between atoms: C_1  and  C_2
REMARK    2  A    between atoms: C_10  and  C_12
REMARK                            x       y       z     vdW  Elec       q    Type
REMARK                         _______ _______ _______ _____ _____    ______ ____
ROOT
ATOM      1  C   UNL     1      98.207 127.240  82.698  0.00  0.00    +0.000 C 
ATOM      2  C   UNL     1      99.672 127.534  82.861  0.00  0.00    +0.000 C 
ATOM      3  C   UNL     1     100.218 128.669  83.354  0.00  0.00    +0.000 C 
ATOM      4  C   UNL     1      99.447 129.905  83.765  0.00  0.00    +0.000 C 
ATOM      5  C   UNL     1      99.808 130.350  85.181  0.00  0.00    +0.000 C 
ATOM      6  C   UNL     1     101.311 130.562  85.334  0.00  0.00    +0.000 C 
ATOM      7  C   UNL     1     102.082 129.310  84.935  0.00  0.00    +0.000 C 
ATOM      8  C   UNL     1     101.728 128.825  83.524  0.00  0.00    +0.000 C 
ATOM      9  O   UNL     1     102.451 127.604  83.332  0.00  0.00    +0.000 OA
ATOM     10  C   UNL     1     102.015 126.901  82.167  0.00  0.00    +0.000 C 
ATOM     11  C   UNL     1     100.579 126.410  82.400  0.00  0.00    +0.000 C 
ENDROOT
BRANCH  10  12
ATOM     12  C   UNL     1     102.946 125.739  81.880  0.00  0.00    +0.000 A 
ATOM     13  C   UNL     1     103.443 125.500  80.589  0.00  0.00    +0.000 A 
ATOM     14  C   UNL     1     104.322 124.442  80.348  0.00  0.00    +0.000 A 
ATOM     15  C   UNL     1     104.720 123.613  81.395  0.00  0.00    +0.000 A 
ATOM     16  C   UNL     1     104.240 123.842  82.683  0.00  0.00    +0.000 A 
ATOM     17  C   UNL     1     103.361 124.899  82.925  0.00  0.00    +0.000 A 
ENDBRANCH  10  12
TORSDOF 1
ENDMDL
