REMARK  Name = *****
REMARK  3 active torsions:
REMARK  status: ('A' for Active; 'I' for Inactive)
REMARK    1  A    between atoms: C_1  and  C_2
REMARK    2  A    between atoms: C_7  and  C_8
REMARK    3  A    between atoms: C_10  and  C_13
REMARK                            x       y       z     vdW  Elec       q    Type
REMARK                         _______ _______ _______ _____ _____    ______ ____
ROOT
ATOM      1  C   UNL     1       0.973   0.059   0.029  0.00  0.00    +0.000 C 
ATOM      2  C   UNL     1       2.476   0.067  -0.030  0.00  0.00    +0.000 A 
ATOM      3  C   UNL     1       3.158   1.296  -0.037  0.00  0.00    +0.000 A 
ATOM      4  C   UNL     1       4.558   1.349  -0.081  0.00  0.00    +0.000 A 
ATOM      5  C   UNL     1       5.279   0.157  -0.149  0.00  0.00    +0.000 A 
ATOM      6  C   UNL     1       4.616  -1.069  -0.125  0.00  0.00    +0.000 A 
ATOM      7  C   UNL     1       3.216  -1.131  -0.064  0.00  0.00    +0.000 A 
ATOM      8  C   UNL     1       2.539  -2.474  -0.049  0.00  0.00    +0.000 C 
ATOM      9  O   UNL     1       6.646   0.099  -0.203  0.00  0.00    +0.000 OA
ATOM     10  C   UNL     1       7.291   1.335  -0.552  0.00  0.00    +0.000 C 
ATOM     11  C   UNL     1       6.731   2.506   0.257  0.00  0.00    +0.000 C 
ATOM     12  C   UNL     1       5.259   2.676  -0.086  0.00  0.00    +0.000 C 
ENDROOT
BRANCH  10  13
ATOM     13  C   UNL     1       8.785   1.197  -0.317  0.00  0.00    +0.000 A 
ATOM     14  C   UNL     1       9.694   1.791  -1.208  0.00  0.00    +0.000 A 
ATOM     15  C   UNL     1      11.070   1.696  -0.989  0.00  0.00    +0.000 A 
ATOM     16  C   UNL     1      11.554   1.011   0.123  0.00  0.00    +0.000 A 
ATOM     17  C   UNL     1      10.665   0.422   1.019  0.00  0.00    +0.000 A 
ATOM     18  C   UNL     1       9.289   0.517   0.803  0.00  0.00    +0.000 A 
ENDBRANCH  10  13
TORSDOF 1
