REMARK  Name = *****
REMARK  4 active torsions:
REMARK  status: ('A' for Active; 'I' for Inactive)
REMARK    1  A    between atoms: C_1  and  C_2
REMARK    2  A    between atoms: C_2  and  C_20
REMARK    3  A    between atoms: C_12  and  C_13
REMARK    4  A    between atoms: C_12  and  O_19
REMARK                            x       y       z     vdW  Elec       q    Type
REMARK                         _______ _______ _______ _____ _____    ______ ____
ROOT
ATOM      1  C   UNL     1       1.366  -0.049   0.812  0.00  0.00    +0.000 C 
ATOM      2  C   UNL     1       2.826   0.038   0.310  0.00  0.00    +0.000 C 
ATOM      3  C   UNL     1       3.078   1.542  -0.012  0.00  0.00    +0.000 A 
ATOM      4  C   UNL     1       3.638   2.430   0.925  0.00  0.00    +0.000 A 
ATOM      5  C   UNL     1       3.855   3.772   0.608  0.00  0.00    +0.000 A 
ATOM      6  C   UNL     1       3.509   4.254  -0.647  0.00  0.00    +0.000 A 
ATOM      7  C   UNL     1       2.939   3.394  -1.582  0.00  0.00    +0.000 A 
ATOM      8  C   UNL     1       2.708   2.040  -1.287  0.00  0.00    +0.000 A 
ATOM      9  C   UNL     1       2.077   1.146  -2.318  0.00  0.00    +0.000 C 
ATOM     10  C   UNL     1       2.937   0.455  -3.340  0.00  0.00    +0.000 C 
ATOM     11  C   UNL     1       2.319  -0.342  -2.208  0.00  0.00    +0.000 C 
ATOM     12  C   UNL     1       3.107  -0.853  -0.997  0.00  0.00    +0.000 C 
ATOM     13  C   UNL     1       3.740  -0.458   1.463  0.00  0.00    +0.000 C 
ENDROOT
BRANCH  12  14
ATOM     14  C   UNL     1       2.834  -2.363  -0.807  0.00  0.00    +0.000 A 
ATOM     15  C   UNL     1       3.894  -3.284  -0.691  0.00  0.00    +0.000 A 
ATOM     16  C   UNL     1       3.663  -4.651  -0.506  0.00  0.00    +0.000 A 
ATOM     17  C   UNL     1       2.361  -5.133  -0.431  0.00  0.00    +0.000 A 
ATOM     18  C   UNL     1       1.293  -4.251  -0.543  0.00  0.00    +0.000 A 
ATOM     19  C   UNL     1       1.527  -2.884  -0.728  0.00  0.00    +0.000 A 
ENDBRANCH  12  14
BRANCH  12  20
ATOM     20  O   UNL     1       4.510  -0.731  -1.320  0.00  0.00    +0.000 OA
ATOM     21  H   UNL     1       4.732   0.205  -1.450  0.00  0.00    +0.000 HD
ENDBRANCH  12  20
TORSDOF 2
