REMARK  Name = *****
REMARK  6 active torsions:
REMARK  status: ('A' for Active; 'I' for Inactive)
REMARK    1  A    between atoms: C_1  and  C_2
REMARK    2  A    between atoms: C_3  and  C_12
REMARK    3  A    between atoms: C_3  and  O_20
REMARK    4  A    between atoms: C_15  and  O_18
REMARK    5  A    between atoms: O_18  and  C_19
REMARK    6  A    between atoms: O_20  and  C_21
REMARK                            x       y       z     vdW  Elec       q    Type
REMARK                         _______ _______ _______ _____ _____    ______ ____
ROOT
ATOM      1  C   UNL     1       0.985   0.478  -0.214  0.00  0.00    +0.000 C 
ATOM      2  C   UNL     1       2.495   0.284  -0.078  0.00  0.00    +0.000 C 
ATOM      3  C   UNL     1       2.919  -0.826   0.935  0.00  0.00    +0.000 C 
ATOM      4  O   UNL     1       4.356  -0.987   0.886  0.00  0.00    +0.000 OA
ATOM      5  C   UNL     1       5.036   0.199   0.805  0.00  0.00    +0.000 A 
ATOM      6  C   UNL     1       6.405   0.143   1.067  0.00  0.00    +0.000 A 
ATOM      7  C   UNL     1       7.169   1.311   1.039  0.00  0.00    +0.000 A 
ATOM      8  C   UNL     1       6.564   2.533   0.746  0.00  0.00    +0.000 A 
ATOM      9  C   UNL     1       5.197   2.588   0.470  0.00  0.00    +0.000 A 
ATOM     10  C   UNL     1       4.437   1.419   0.485  0.00  0.00    +0.000 A 
ATOM     11  O   UNL     1       3.104   1.556   0.196  0.00  0.00    +0.000 OA
ENDROOT
BRANCH   3  12
ATOM     12  C   UNL     1       2.562  -0.645   2.424  0.00  0.00    +0.000 A 
ATOM     13  C   UNL     1       2.123   0.561   2.988  0.00  0.00    +0.000 A 
ATOM     14  C   UNL     1       1.855   0.664   4.359  0.00  0.00    +0.000 A 
ATOM     15  C   UNL     1       2.030  -0.428   5.209  0.00  0.00    +0.000 A 
ATOM     16  C   UNL     1       2.475  -1.632   4.674  0.00  0.00    +0.000 A 
ATOM     17  C   UNL     1       2.740  -1.735   3.302  0.00  0.00    +0.000 A 
BRANCH  15  18
ATOM     18  O   UNL     1       1.739  -0.185   6.522  0.00  0.00    +0.000 OA
ATOM     19  C   UNL     1       1.964  -1.252   7.435  0.00  0.00    +0.000 C 
ENDBRANCH  15  18
ENDBRANCH   3  12
BRANCH   3  20
ATOM     20  O   UNL     1       2.261  -2.067   0.562  0.00  0.00    +0.000 OA
ATOM     21  C   UNL     1       2.822  -2.735  -0.557  0.00  0.00    +0.000 C 
ENDBRANCH   3  20
TORSDOF 3
