REMARK  Name = *****
REMARK  4 active torsions:
REMARK  status: ('A' for Active; 'I' for Inactive)
REMARK    1  A    between atoms: C_3  and  C_20
REMARK    2  A    between atoms: C_5  and  O_7
REMARK    3  A    between atoms: O_7  and  C_8
REMARK    4  A    between atoms: C_8  and  C_9
REMARK                            x       y       z     vdW  Elec       q    Type
REMARK                         _______ _______ _______ _____ _____    ______ ____
ROOT
ATOM      1  C   UNL     1      -3.843   4.043   0.914  0.00  0.00    +0.000 A 
ATOM      2  N   UNL     1      -5.182   4.131   1.141  0.00  0.00    +0.000 NA
ATOM      3  C   UNL     1      -5.758   5.345   1.201  0.00  0.00    +0.000 A 
ATOM      4  C   UNL     1      -5.022   6.536   1.036  0.00  0.00    +0.000 A 
ATOM      5  C   UNL     1      -5.664   7.785   1.105  0.00  0.00    +0.000 A 
ATOM      6  C   UNL     1      -7.036   7.852   1.338  0.00  0.00    +0.000 A 
ATOM      7  C   UNL     1      -7.758   6.675   1.501  0.00  0.00    +0.000 A 
ATOM      8  C   UNL     1      -7.122   5.437   1.432  0.00  0.00    +0.000 A 
ATOM      9 CL   UNL     1      -9.453   6.750   1.789  0.00  0.00    +0.000 Cl
ATOM     10  C   UNL     1      -3.648   6.429   0.803  0.00  0.00    +0.000 A 
ATOM     11  C   UNL     1      -3.052   5.173   0.740  0.00  0.00    +0.000 A 
ENDROOT
BRANCH   1  12
ATOM     12  C   UNL     1      -3.275   2.639   0.854  0.00  0.00    +0.000 C 
BRANCH  12  13
ATOM     13  O   UNL     1      -1.860   2.640   0.637  0.00  0.00    +0.000 OA
BRANCH  13  18
ATOM     14  C   UNL     1       0.894   0.323   0.175  0.00  0.00    +0.000 A 
ATOM     15  C   UNL     1       0.281  -0.922   0.294  0.00  0.00    +0.000 A 
ATOM     16  C   UNL     1      -1.093  -0.989   0.538  0.00  0.00    +0.000 A 
ATOM     17  C   UNL     1      -1.858   0.178   0.662  0.00  0.00    +0.000 A 
ATOM     18  C   UNL     1      -1.244   1.423   0.541  0.00  0.00    +0.000 A 
ATOM     19  C   UNL     1       0.133   1.487   0.298  0.00  0.00    +0.000 A 
BRANCH  16  20
ATOM     20  C   UNL     1      -1.737  -2.312   0.664  0.00  0.00    +0.000 C 
ATOM     21  O   UNL     1      -2.937  -2.433   0.877  0.00  0.00    +0.000 OA
ENDBRANCH  16  20
ENDBRANCH  13  18
ENDBRANCH  12  13
ENDBRANCH   1  12
TORSDOF 4
