MODEL 1
REMARK VINA RESULT:      -4.6      0.000      0.000
REMARK  Name = *****
REMARK  2 active torsions:
REMARK  status: ('A' for Active; 'I' for Inactive)
REMARK    1  A    between atoms: C_4  and  S_7
REMARK    2  A    between atoms: S_7  and  C_8
REMARK                            x       y       z     vdW  Elec       q    Type
REMARK                         _______ _______ _______ _____ _____    ______ ____
ROOT
ATOM      1  C   UNL     1     102.928 126.531  82.507  0.00  0.00    +0.000 A 
ATOM      2  C   UNL     1     101.739 125.963  82.093  0.00  0.00    +0.000 A 
ATOM      3  C   UNL     1     100.697 126.843  82.481  0.00  0.00    +0.000 A 
ATOM      4  C   UNL     1      99.296 126.857  82.372  0.00  0.00    +0.000 A 
ATOM      5  C   UNL     1      98.592 127.949  82.900  0.00  0.00    +0.000 A 
ATOM      6  C   UNL     1      99.262 129.007  83.522  0.00  0.00    +0.000 A 
ATOM      7  C   UNL     1     100.656 129.009  83.641  0.00  0.00    +0.000 A 
ATOM      8  C   UNL     1     101.326 127.910  83.109  0.00  0.00    +0.000 A 
ATOM      9  O   UNL     1     102.671 127.720  83.128  0.00  0.00    +0.000 OA
ENDROOT
BRANCH   1  10
ATOM     10  S   UNL     1     104.536 125.886  82.304  0.00  0.00    +0.000 S 
BRANCH  10  14
ATOM     11  C   UNL     1     105.146 121.319  81.779  0.00  0.00    +0.000 C 
ATOM     12  C   UNL     1     104.424 121.793  83.036  0.00  0.00    +0.000 C 
ATOM     13  C   UNL     1     104.627 123.290  83.275  0.00  0.00    +0.000 C 
ATOM     14  C   UNL     1     104.199 124.108  82.050  0.00  0.00    +0.000 C 
ATOM     15  C   UNL     1     104.953 123.638  80.796  0.00  0.00    +0.000 C 
ATOM     16  C   UNL     1     104.750 122.143  80.557  0.00  0.00    +0.000 C 
ENDBRANCH  10  14
ENDBRANCH   1  10
TORSDOF 2
ENDMDL
