MODEL 1
REMARK VINA RESULT:      -5.0      0.000      0.000
REMARK  Name = *****
REMARK  3 active torsions:
REMARK  status: ('A' for Active; 'I' for Inactive)
REMARK    1  A    between atoms: C_1  and  O_2
REMARK    2  A    between atoms: O_2  and  C_3
REMARK    3  A    between atoms: C_6  and  C_9
REMARK                            x       y       z     vdW  Elec       q    Type
REMARK                         _______ _______ _______ _____ _____    ______ ____
ROOT
ATOM      1  C   UNL     1      89.131  70.119  87.077  0.00  0.00    +0.000 C 
ATOM      2  C   UNL     1      89.424  70.853  85.765  0.00  0.00    +0.000 C 
ATOM      3  C   UNL     1      88.197  70.857  84.868  0.00  0.00    +0.000 C 
ATOM      4  C   UNL     1      87.003  71.309  85.654  0.00  0.00    +0.000 A 
ATOM      5  C   UNL     1      85.883  71.834  84.995  0.00  0.00    +0.000 A 
ATOM      6  C   UNL     1      84.765  72.248  85.721  0.00  0.00    +0.000 A 
ATOM      7  C   UNL     1      84.754  72.132  87.108  0.00  0.00    +0.000 A 
ATOM      8  C   UNL     1      85.859  71.596  87.769  0.00  0.00    +0.000 A 
ATOM      9  C   UNL     1      86.977  71.179  87.045  0.00  0.00    +0.000 A 
ATOM     10  O   UNL     1      87.997  70.647  87.785  0.00  0.00    +0.000 OA
ENDROOT
BRANCH   1  14
ATOM     11  C   UNL     1      88.924  65.788  86.699  0.00  0.00    +0.000 A 
ATOM     12  C   UNL     1      87.921  66.496  87.357  0.00  0.00    +0.000 A 
ATOM     13  C   UNL     1      88.001  67.890  87.468  0.00  0.00    +0.000 A 
ATOM     14  C   UNL     1      89.082  68.603  86.922  0.00  0.00    +0.000 A 
ATOM     15  C   UNL     1      90.082  67.878  86.263  0.00  0.00    +0.000 A 
ATOM     16  C   UNL     1      90.003  66.487  86.156  0.00  0.00    +0.000 A 
BRANCH  11  18
ATOM     17  C   UNL     1      90.071  63.917  85.786  0.00  0.00    +0.000 C 
ATOM     18  O   UNL     1      88.969  64.432  86.521  0.00  0.00    +0.000 OA
ENDBRANCH  11  18
ENDBRANCH   1  14
TORSDOF 2
ENDMDL
