MODEL 1
REMARK VINA RESULT:      -4.6      0.000      0.000
REMARK  Name = *****
REMARK  5 active torsions:
REMARK  status: ('A' for Active; 'I' for Inactive)
REMARK    1  A    between atoms: C_1  and  C_2
REMARK    2  A    between atoms: C_2  and  C_20
REMARK    3  A    between atoms: C_3  and  C_12
REMARK    4  A    between atoms: C_3  and  O_18
REMARK    5  A    between atoms: O_18  and  C_19
REMARK                            x       y       z     vdW  Elec       q    Type
REMARK                         _______ _______ _______ _____ _____    ______ ____
ROOT
ATOM      1  C   UNL     1      90.015  68.171  85.915  0.00  0.00    +0.000 C 
ATOM      2  C   UNL     1      88.720  68.671  86.586  0.00  0.00    +0.000 C 
ATOM      3  C   UNL     1      87.720  69.449  85.627  0.00  0.00    +0.000 C 
ATOM      4  O   UNL     1      86.597  69.913  86.434  0.00  0.00    +0.000 OA
ATOM      5  C   UNL     1      86.956  70.486  87.622  0.00  0.00    +0.000 A 
ATOM      6  C   UNL     1      85.997  71.283  88.246  0.00  0.00    +0.000 A 
ATOM      7  C   UNL     1      86.293  71.914  89.454  0.00  0.00    +0.000 A 
ATOM      8  C   UNL     1      87.548  71.743  90.039  0.00  0.00    +0.000 A 
ATOM      9  C   UNL     1      88.502  70.933  89.420  0.00  0.00    +0.000 A 
ATOM     10  C   UNL     1      88.199  70.295  88.217  0.00  0.00    +0.000 A 
ATOM     11  O   UNL     1      89.174  69.500  87.686  0.00  0.00    +0.000 OA
ATOM     12  C   UNL     1      88.046  67.419  87.205  0.00  0.00    +0.000 C 
ENDROOT
BRANCH   3  13
ATOM     13  C   UNL     1      88.190  70.714  84.870  0.00  0.00    +0.000 A 
ATOM     14  C   UNL     1      89.521  71.159  84.835  0.00  0.00    +0.000 A 
ATOM     15  C   UNL     1      89.877  72.326  84.151  0.00  0.00    +0.000 A 
ATOM     16  C   UNL     1      88.908  73.084  83.500  0.00  0.00    +0.000 A 
ATOM     17  C   UNL     1      87.577  72.684  83.542  0.00  0.00    +0.000 A 
ATOM     18  C   UNL     1      87.222  71.519  84.227  0.00  0.00    +0.000 A 
ENDBRANCH   3  13
BRANCH   3  19
ATOM     19  O   UNL     1      87.106  68.536  84.677  0.00  0.00    +0.000 OA
ATOM     20  C   UNL     1      85.701  68.368  84.726  0.00  0.00    +0.000 C 
ENDBRANCH   3  19
TORSDOF 2
ENDMDL
