MODEL 1
REMARK VINA RESULT:      -5.7      0.000      0.000
REMARK  Name = *****
REMARK  2 active torsions:
REMARK  status: ('A' for Active; 'I' for Inactive)
REMARK    1  A    between atoms: C_1  and  C_2
REMARK    2  A    between atoms: C_5  and  C_8
REMARK                            x       y       z     vdW  Elec       q    Type
REMARK                         _______ _______ _______ _____ _____    ______ ____
ROOT
ATOM      1  C   UNL     1     101.845 126.866  82.154  0.00  0.00    +0.000 C 
ATOM      2  C   UNL     1     100.449 126.286  82.324  0.00  0.00    +0.000 C 
ATOM      3  C   UNL     1      99.494 127.429  82.519  0.00  0.00    +0.000 C 
ATOM      4  O   UNL     1      98.321 127.375  82.163  0.00  0.00    +0.000 OA
ATOM      5  C   UNL     1     100.016 128.613  83.231  0.00  0.00    +0.000 A 
ATOM      6  C   UNL     1     101.359 128.638  83.612  0.00  0.00    +0.000 A 
ATOM      7  O   UNL     1     102.226 127.617  83.317  0.00  0.00    +0.000 OA
ATOM      8  C   UNL     1     101.835 129.728  84.350  0.00  0.00    +0.000 A 
ATOM      9  C   UNL     1     100.983 130.789  84.672  0.00  0.00    +0.000 A 
ATOM     10  C   UNL     1      99.647 130.765  84.267  0.00  0.00    +0.000 A 
ATOM     11  C   UNL     1      99.160 129.675  83.549  0.00  0.00    +0.000 A 
ATOM     12 CL   UNL     1     103.479 129.810  84.873  0.00  0.00    +0.000 Cl
ENDROOT
BRANCH   1  17
ATOM     13  C   UNL     1     105.651 122.539  81.205  0.00  0.00    +0.000 C 
ATOM     14  C   UNL     1     104.699 123.670  81.459  0.00  0.00    +0.000 A 
ATOM     15  C   UNL     1     104.254 124.473  80.405  0.00  0.00    +0.000 A 
ATOM     16  C   UNL     1     103.344 125.508  80.636  0.00  0.00    +0.000 A 
ATOM     17  C   UNL     1     102.855 125.756  81.927  0.00  0.00    +0.000 A 
ATOM     18  C   UNL     1     103.289 124.935  82.977  0.00  0.00    +0.000 A 
ATOM     19  C   UNL     1     104.199 123.900  82.745  0.00  0.00    +0.000 A 
ENDBRANCH   1  17
TORSDOF 1
ENDMDL
