MODEL 1
REMARK VINA RESULT:      -4.7      0.000      0.000
REMARK  Name = *****
REMARK  4 active torsions:
REMARK  status: ('A' for Active; 'I' for Inactive)
REMARK    1  A    between atoms: C_1  and  O_2
REMARK    2  A    between atoms: O_2  and  C_3
REMARK    3  A    between atoms: C_10  and  C_12
REMARK    4  A    between atoms: C_12  and  C_13
REMARK                            x       y       z     vdW  Elec       q    Type
REMARK                         _______ _______ _______ _____ _____    ______ ____
ROOT
ATOM      1  C   UNL     1      99.456 129.410  83.567  0.00  0.00    +0.000 A 
ATOM      2  C   UNL     1     100.819 129.160  83.766  0.00  0.00    +0.000 A 
ATOM      3  C   UNL     1     101.350 127.964  83.317  0.00  0.00    +0.000 A 
ATOM      4  C   UNL     1     100.549 127.024  82.696  0.00  0.00    +0.000 A 
ATOM      5  C   UNL     1      99.202 127.237  82.496  0.00  0.00    +0.000 A 
ATOM      6  C   UNL     1      98.651 128.447  82.934  0.00  0.00    +0.000 A 
ATOM      7  O   UNL     1     101.216 125.890  82.321  0.00  0.00    +0.000 OA
ATOM      8  C   UNL     1     102.625 126.214  82.504  0.00  0.00    +0.000 C 
ATOM      9  C   UNL     1     102.722 127.427  83.450  0.00  0.00    +0.000 C 
ENDROOT
BRANCH   1  11
ATOM     10  C   UNL     1     100.026 131.607  84.279  0.00  0.00    +0.000 C 
ATOM     11  O   UNL     1      99.029 130.622  84.040  0.00  0.00    +0.000 OA
ENDBRANCH   1  11
BRANCH   8  12
ATOM     12  C   UNL     1     103.270 126.497  81.134  0.00  0.00    +0.000 C 
BRANCH  12  13
ATOM     13  C   UNL     1     104.159 125.364  80.670  0.00  0.00    +0.000 A 
ATOM     14  C   UNL     1     105.047 125.551  79.603  0.00  0.00    +0.000 A 
ATOM     15  C   UNL     1     105.859 124.503  79.166  0.00  0.00    +0.000 A 
ATOM     16  C   UNL     1     105.789 123.259  79.791  0.00  0.00    +0.000 A 
ATOM     17  C   UNL     1     104.907 123.062  80.851  0.00  0.00    +0.000 A 
ATOM     18  C   UNL     1     104.093 124.109  81.288  0.00  0.00    +0.000 A 
ENDBRANCH  12  13
ENDBRANCH   8  12
TORSDOF 3
ENDMDL
