MODEL 1
REMARK VINA RESULT:      -5.0      0.000      0.000
REMARK  Name = *****
REMARK  1 active torsions:
REMARK  status: ('A' for Active; 'I' for Inactive)
REMARK    1  A    between atoms: C_10  and  C_13
REMARK                            x       y       z     vdW  Elec       q    Type
REMARK                         _______ _______ _______ _____ _____    ______ ____
ROOT
ATOM      1  C   UNL     1      84.761  72.096  88.846  0.00  0.00    +0.000 A 
ATOM      2  C   UNL     1      84.328  72.354  87.546  0.00  0.00    +0.000 A 
ATOM      3  C   UNL     1      85.153  72.048  86.461  0.00  0.00    +0.000 A 
ATOM      4  C   UNL     1      86.416  71.488  86.669  0.00  0.00    +0.000 A 
ATOM      5  C   UNL     1      86.846  71.231  87.970  0.00  0.00    +0.000 A 
ATOM      6  C   UNL     1      86.020  71.533  89.060  0.00  0.00    +0.000 A 
ATOM      7  C   UNL     1      88.173  70.642  88.209  0.00  0.00    +0.000 C 
ATOM      8  O   UNL     1      88.567  70.357  89.332  0.00  0.00    +0.000 OA
ATOM      9  C   UNL     1      89.044  70.463  87.043  0.00  0.00    +0.000 C 
ATOM     10  C   UNL     1      88.500  70.779  85.677  0.00  0.00    +0.000 C 
ATOM     11  O   UNL     1      88.657  69.420  86.139  0.00  0.00    +0.000 OA
ATOM     12  O   UNL     1      87.130  71.213  85.534  0.00  0.00    +0.000 OA
ENDROOT
BRANCH  10  13
ATOM     13  C   UNL     1      89.449  71.259  84.604  0.00  0.00    +0.000 A 
ATOM     14  C   UNL     1      89.414  72.589  84.148  0.00  0.00    +0.000 A 
ATOM     15  C   UNL     1      90.283  73.041  83.149  0.00  0.00    +0.000 A 
ATOM     16  C   UNL     1      91.204  72.163  82.586  0.00  0.00    +0.000 A 
ATOM     17  C   UNL     1      91.260  70.840  83.011  0.00  0.00    +0.000 A 
ATOM     18  C   UNL     1      90.387  70.395  84.008  0.00  0.00    +0.000 A 
ATOM     19 CL   UNL     1      92.274  72.717  81.359  0.00  0.00    +0.000 Cl
ENDBRANCH  10  13
TORSDOF 1
ENDMDL
