MODEL 1
REMARK VINA RESULT:      -5.0      0.000      0.000
REMARK  Name = *****
REMARK  6 active torsions:
REMARK  status: ('A' for Active; 'I' for Inactive)
REMARK    1  A    between atoms: C_1  and  C_2
REMARK    2  A    between atoms: C_2  and  C_3
REMARK    3  A    between atoms: C_3  and  N_4
REMARK    4  A    between atoms: C_6  and  C_9
REMARK    5  A    between atoms: C_9  and  O_10
REMARK    6  A    between atoms: O_10  and  C_11
REMARK                            x       y       z     vdW  Elec       q    Type
REMARK                         _______ _______ _______ _____ _____    ______ ____
ROOT
ATOM      1  O   UNL     1      89.701  69.725  87.186  0.00  0.00    +0.000 OA
ENDROOT
BRANCH   1   2
ATOM      2  C   UNL     1      88.528  70.295  87.594  0.00  0.00    +0.000 A 
ATOM      3  C   UNL     1      87.699  70.722  86.552  0.00  0.00    +0.000 A 
ATOM      4  C   UNL     1      86.463  71.337  86.808  0.00  0.00    +0.000 A 
ATOM      5  C   UNL     1      85.629  71.768  85.764  0.00  0.00    +0.000 A 
ATOM      6  C   UNL     1      84.406  72.382  86.036  0.00  0.00    +0.000 A 
ATOM      7  C   UNL     1      84.001  72.573  87.354  0.00  0.00    +0.000 A 
ATOM      8  C   UNL     1      84.819  72.149  88.403  0.00  0.00    +0.000 A 
ATOM      9  C   UNL     1      86.053  71.528  88.145  0.00  0.00    +0.000 A 
ATOM     10  C   UNL     1      86.888  71.091  89.185  0.00  0.00    +0.000 A 
ATOM     11  C   UNL     1      88.116  70.477  88.912  0.00  0.00    +0.000 A 
ENDBRANCH   1   2
BRANCH   1  12
ATOM     12  C   UNL     1      89.684  68.985  85.961  0.00  0.00    +0.000 C 
BRANCH  12  15
ATOM     13  N   UNL     1      89.124  65.510  86.832  0.00  0.00    +0.000 N 
ATOM     14  C   UNL     1      88.708  66.797  86.971  0.00  0.00    +0.000 A 
ATOM     15  C   UNL     1      89.609  67.522  86.218  0.00  0.00    +0.000 A 
ATOM     16  N   UNL     1      90.506  66.656  85.645  0.00  0.00    +0.000 NA
ATOM     17  N   UNL     1      90.194  65.423  86.024  0.00  0.00    +0.000 NA
BRANCH  13  18
ATOM     18  C   UNL     1      88.536  64.321  87.406  0.00  0.00    +0.000 C 
BRANCH  18  20
ATOM     19  C   UNL     1      88.870  63.809  89.876  0.00  0.00    +0.000 C 
ATOM     20  C   UNL     1      88.016  64.511  88.830  0.00  0.00    +0.000 C 
ENDBRANCH  18  20
ENDBRANCH  13  18
ENDBRANCH  12  15
ENDBRANCH   1  12
TORSDOF 5
ENDMDL
