REMARK  Name = *****
REMARK  3 active torsions:
REMARK  status: ('A' for Active; 'I' for Inactive)
REMARK    1  A    between atoms: C_1  and  C_2
REMARK    2  A    between atoms: C_9  and  C_13
REMARK    3  A    between atoms: C_9  and  C_18
REMARK                            x       y       z     vdW  Elec       q    Type
REMARK                         _______ _______ _______ _____ _____    ______ ____
ROOT
ATOM      1  C   UNL     1       0.931  -0.027   0.303  0.00  0.00    +0.000 C 
ATOM      2  C   UNL     1       2.424   0.000   0.162  0.00  0.00    +0.000 A 
ATOM      3  C   UNL     1       3.120   1.215   0.205  0.00  0.00    +0.000 A 
ATOM      4  C   UNL     1       4.517   1.231   0.104  0.00  0.00    +0.000 A 
ATOM      5  C   UNL     1       5.221   0.046  -0.030  0.00  0.00    +0.000 A 
ATOM      6  C   UNL     1       4.541  -1.170  -0.042  0.00  0.00    +0.000 A 
ATOM      7  C   UNL     1       3.148  -1.193   0.054  0.00  0.00    +0.000 A 
ATOM      8  O   UNL     1       6.576  -0.003  -0.137  0.00  0.00    +0.000 OA
ATOM      9  C   UNL     1       7.185   1.239  -0.543  0.00  0.00    +0.000 C 
ATOM     10  O   UNL     1       6.584   2.420   0.040  0.00  0.00    +0.000 OA
ATOM     11  C   UNL     1       5.250   2.498   0.199  0.00  0.00    +0.000 C 
ATOM     12  O   UNL     1       4.686   3.556   0.438  0.00  0.00    +0.000 OA
ENDROOT
BRANCH   9  13
ATOM     13  C   UNL     1       7.087   1.377  -2.068  0.00  0.00    +0.000 A 
ATOM     14  C   UNL     1       6.880   2.526  -2.818  0.00  0.00    +0.000 A 
ATOM     15  C   UNL     1       6.855   2.275  -4.220  0.00  0.00    +0.000 A 
ATOM     16  C   UNL     1       7.054   0.945  -4.508  0.00  0.00    +0.000 A 
ATOM     17  S   UNL     1       7.274   0.009  -3.098  0.00  0.00    +0.000 S 
ENDBRANCH   9  13
BRANCH   9  18
ATOM     18  C   UNL     1       8.677   1.212  -0.100  0.00  0.00    +0.000 C 
ATOM     19  F   UNL     1       9.348   0.139  -0.585  0.00  0.00    +0.000 F 
ATOM     20  F   UNL     1       9.352   2.319  -0.500  0.00  0.00    +0.000 F 
ATOM     21  F   UNL     1       8.784   1.157   1.254  0.00  0.00    +0.000 F 
ENDBRANCH   9  18
TORSDOF 2
