MODEL 1
REMARK VINA RESULT:      -4.7      0.000      0.000
REMARK  Name = *****
REMARK  3 active torsions:
REMARK  status: ('A' for Active; 'I' for Inactive)
REMARK    1  A    between atoms: C_1  and  O_2
REMARK    2  A    between atoms: O_2  and  C_3
REMARK    3  A    between atoms: C_8  and  C_9
REMARK                            x       y       z     vdW  Elec       q    Type
REMARK                         _______ _______ _______ _____ _____    ______ ____
ROOT
ATOM      1  C   UNL     1     102.650 127.787  83.015  0.00  0.00    +0.000 C 
ATOM      2  C   UNL     1     103.264 127.010  84.184  0.00  0.00    +0.000 C 
ATOM      3  C   UNL     1     103.154 125.513  83.954  0.00  0.00    +0.000 C 
ATOM      4  C   UNL     1     103.661 125.180  82.585  0.00  0.00    +0.000 A 
ATOM      5  C   UNL     1     104.110 123.884  82.295  0.00  0.00    +0.000 A 
ATOM      6  C   UNL     1     104.575 123.566  81.018  0.00  0.00    +0.000 A 
ATOM      7  C   UNL     1     104.588 124.539  80.020  0.00  0.00    +0.000 A 
ATOM      8  C   UNL     1     104.128 125.825  80.299  0.00  0.00    +0.000 A 
ATOM      9  C   UNL     1     103.660 126.144  81.575  0.00  0.00    +0.000 A 
ATOM     10  O   UNL     1     103.207 127.425  81.736  0.00  0.00    +0.000 OA
ENDROOT
BRANCH   1  16
ATOM     11  C   UNL     1     100.405 128.821  83.648  0.00  0.00    +0.000 A 
ATOM     12  C   UNL     1      99.005 128.796  83.663  0.00  0.00    +0.000 A 
ATOM     13  C   UNL     1      98.308 127.754  83.050  0.00  0.00    +0.000 A 
ATOM     14  C   UNL     1      99.002 126.729  82.419  0.00  0.00    +0.000 A 
ATOM     15  C   UNL     1     100.397 126.742  82.402  0.00  0.00    +0.000 A 
ATOM     16  C   UNL     1     101.121 127.780  83.015  0.00  0.00    +0.000 A 
BRANCH  11  18
ATOM     17  C   UNL     1     100.510 131.021  84.570  0.00  0.00    +0.000 C 
ATOM     18  O   UNL     1     101.164 129.806  84.228  0.00  0.00    +0.000 OA
ENDBRANCH  11  18
ENDBRANCH   1  16
TORSDOF 2
ENDMDL
