MODEL 1
REMARK VINA RESULT:      -4.9      0.000      0.000
REMARK  Name = *****
REMARK  3 active torsions:
REMARK  status: ('A' for Active; 'I' for Inactive)
REMARK    1  A    between atoms: C_4  and  O_7
REMARK    2  A    between atoms: O_7  and  C_8
REMARK    3  A    between atoms: C_8  and  C_10
REMARK                            x       y       z     vdW  Elec       q    Type
REMARK                         _______ _______ _______ _____ _____    ______ ____
ROOT
ATOM      1  C   UNL     1     103.248 126.866  81.694  0.00  0.00    +0.000 C 
ATOM      2  O   UNL     1     103.344 127.659  80.763  0.00  0.00    +0.000 OA
ENDROOT
BRANCH   1   3
ATOM      3  C   UNL     1     103.702 125.495  81.649  0.00  0.00    +0.000 A 
ATOM      4  C   UNL     1     104.101 124.717  80.576  0.00  0.00    +0.000 A 
ATOM      5  C   UNL     1     104.449 123.442  81.094  0.00  0.00    +0.000 A 
ATOM      6  C   UNL     1     104.918 122.231  80.555  0.00  0.00    +0.000 A 
ATOM      7  C   UNL     1     105.155 121.156  81.423  0.00  0.00    +0.000 A 
ATOM      8  C   UNL     1     104.929 121.276  82.797  0.00  0.00    +0.000 A 
ATOM      9  C   UNL     1     104.462 122.473  83.352  0.00  0.00    +0.000 A 
ATOM     10  C   UNL     1     104.237 123.522  82.464  0.00  0.00    +0.000 A 
ATOM     11  O   UNL     1     103.786 124.759  82.803  0.00  0.00    +0.000 OA
ENDBRANCH   1   3
BRANCH   1  12
ATOM     12  O   UNL     1     102.696 127.137  82.942  0.00  0.00    +0.000 OA
BRANCH  12  16
ATOM     13  C   UNL     1      98.685 128.276  83.066  0.00  0.00    +0.000 A 
ATOM     14  C   UNL     1      99.035 127.066  82.462  0.00  0.00    +0.000 A 
ATOM     15  C   UNL     1     100.372 126.676  82.402  0.00  0.00    +0.000 A 
ATOM     16  C   UNL     1     101.350 127.516  82.934  0.00  0.00    +0.000 A 
ATOM     17  C   UNL     1     101.010 128.715  83.558  0.00  0.00    +0.000 A 
ATOM     18  C   UNL     1      99.671 129.098  83.616  0.00  0.00    +0.000 A 
ENDBRANCH  12  16
ENDBRANCH   1  12
TORSDOF 3
ENDMDL
