MODEL 1
REMARK VINA RESULT:      -5.1      0.000      0.000
REMARK  Name = *****
REMARK  3 active torsions:
REMARK  status: ('A' for Active; 'I' for Inactive)
REMARK    1  A    between atoms: C_9  and  O_12
REMARK    2  A    between atoms: O_12  and  C_13
REMARK    3  A    between atoms: C_13  and  C_14
REMARK                            x       y       z     vdW  Elec       q    Type
REMARK                         _______ _______ _______ _____ _____    ______ ____
ROOT
ATOM      1  C   UNL     1      88.384  64.699  87.207  0.00  0.00    +0.000 C 
ATOM      2  C   UNL     1      88.948  63.898  86.041  0.00  0.00    +0.000 C 
ATOM      3  C   UNL     1      90.358  64.331  85.700  0.00  0.00    +0.000 C 
ATOM      4  S   UNL     1      91.494  63.265  85.097  0.00  0.00    +0.000 S 
ATOM      5  N   UNL     1      90.646  65.665  85.795  0.00  0.00    +0.000 N 
ATOM      6  C   UNL     1      89.774  66.604  86.358  0.00  0.00    +0.000 A 
ATOM      7  C   UNL     1      88.625  66.171  87.026  0.00  0.00    +0.000 A 
ATOM      8  C   UNL     1      87.776  67.120  87.607  0.00  0.00    +0.000 A 
ATOM      9  C   UNL     1      88.058  68.487  87.514  0.00  0.00    +0.000 A 
ATOM     10  C   UNL     1      89.209  68.905  86.844  0.00  0.00    +0.000 A 
ATOM     11  C   UNL     1      90.072  67.962  86.274  0.00  0.00    +0.000 A 
ATOM     12  H   UNL     1      91.512  65.981  85.449  0.00  0.00    +0.000 HD
ENDROOT
BRANCH   9  13
ATOM     13  O   UNL     1      87.141  69.297  88.123  0.00  0.00    +0.000 OA
BRANCH  13  14
ATOM     14  C   UNL     1      87.388  70.702  88.091  0.00  0.00    +0.000 C 
BRANCH  14  15
ATOM     15  C   UNL     1      86.325  71.362  87.245  0.00  0.00    +0.000 A 
ATOM     16  C   UNL     1      86.460  71.410  85.850  0.00  0.00    +0.000 A 
ATOM     17  C   UNL     1      85.472  72.000  85.060  0.00  0.00    +0.000 A 
ATOM     18  C   UNL     1      84.337  72.545  85.657  0.00  0.00    +0.000 A 
ATOM     19  C   UNL     1      84.189  72.502  87.042  0.00  0.00    +0.000 A 
ATOM     20  C   UNL     1      85.178  71.913  87.833  0.00  0.00    +0.000 A 
ENDBRANCH  14  15
ENDBRANCH  13  14
ENDBRANCH   9  13
TORSDOF 3
ENDMDL
