REMARK  Name = *****
REMARK  1 active torsions:
REMARK  status: ('A' for Active; 'I' for Inactive)
REMARK    1  A    between atoms: C_3  and  C_11
REMARK                            x       y       z     vdW  Elec       q    Type
REMARK                         _______ _______ _______ _____ _____    ______ ____
ROOT
ATOM      1  C   UNL     1      -0.877   1.713  -0.008  0.00  0.00    +0.000 C 
ATOM      2  C   UNL     1      -2.179   0.960  -0.194  0.00  0.00    +0.000 C 
ATOM      3  C   UNL     1      -2.202  -0.337   0.625  0.00  0.00    +0.000 C 
ATOM      4  O   UNL     1      -1.097  -1.206   0.289  0.00  0.00    +0.000 OA
ATOM      5  C   UNL     1       0.088  -0.616  -0.060  0.00  0.00    +0.000 A 
ATOM      6  C   UNL     1       1.160  -1.488  -0.253  0.00  0.00    +0.000 A 
ATOM      7  C   UNL     1       2.420  -0.991  -0.586  0.00  0.00    +0.000 A 
ATOM      8  C   UNL     1       2.610   0.383  -0.724  0.00  0.00    +0.000 A 
ATOM      9  C   UNL     1       1.539   1.258  -0.536  0.00  0.00    +0.000 A 
ATOM     10  C   UNL     1       0.267   0.763  -0.216  0.00  0.00    +0.000 A 
ATOM     11 BR   UNL     1      -3.698   2.132   0.148  0.00  0.00    +0.000 Br
ENDROOT
BRANCH   3  12
ATOM     12  C   UNL     1      -2.338  -0.211   2.142  0.00  0.00    +0.000 A 
ATOM     13  C   UNL     1      -3.612  -0.312   2.732  0.00  0.00    +0.000 A 
ATOM     14  C   UNL     1      -3.778  -0.191   4.113  0.00  0.00    +0.000 A 
ATOM     15  C   UNL     1      -2.675   0.029   4.931  0.00  0.00    +0.000 A 
ATOM     16  C   UNL     1      -1.405   0.123   4.368  0.00  0.00    +0.000 A 
ATOM     17  C   UNL     1      -1.238   0.003   2.986  0.00  0.00    +0.000 A 
ENDBRANCH   3  12
TORSDOF 1
