MODEL 1
REMARK VINA RESULT:      -5.1      0.000      0.000
REMARK  Name = *****
REMARK  2 active torsions:
REMARK  status: ('A' for Active; 'I' for Inactive)
REMARK    1  A    between atoms: C_1  and  C_2
REMARK    2  A    between atoms: C_2  and  C_12
REMARK                            x       y       z     vdW  Elec       q    Type
REMARK                         _______ _______ _______ _____ _____    ______ ____
ROOT
ATOM      1  C   UNL     1      87.401  72.017  90.154  0.00  0.00    +0.000 C 
ATOM      2  C   UNL     1      87.092  70.937  89.099  0.00  0.00    +0.000 C 
ATOM      3  C   UNL     1      86.641  69.655  89.832  0.00  0.00    +0.000 C 
ATOM      4  C   UNL     1      86.451  68.513  88.844  0.00  0.00    +0.000 C 
ATOM      5  C   UNL     1      87.636  68.422  87.932  0.00  0.00    +0.000 A 
ATOM      6  C   UNL     1      87.869  67.250  87.198  0.00  0.00    +0.000 A 
ATOM      7  C   UNL     1      88.974  67.156  86.351  0.00  0.00    +0.000 A 
ATOM      8  C   UNL     1      89.851  68.231  86.227  0.00  0.00    +0.000 A 
ATOM      9  C   UNL     1      89.617  69.404  86.944  0.00  0.00    +0.000 A 
ATOM     10  C   UNL     1      88.506  69.504  87.784  0.00  0.00    +0.000 A 
ATOM     11  O   UNL     1      88.357  70.700  88.435  0.00  0.00    +0.000 OA
ENDROOT
BRANCH   2  12
ATOM     12  C   UNL     1      86.044  71.523  88.137  0.00  0.00    +0.000 A 
ATOM     13  C   UNL     1      84.828  72.043  88.615  0.00  0.00    +0.000 A 
ATOM     14  C   UNL     1      83.869  72.564  87.742  0.00  0.00    +0.000 A 
ATOM     15  C   UNL     1      84.101  72.565  86.370  0.00  0.00    +0.000 A 
ATOM     16  C   UNL     1      85.289  72.040  85.871  0.00  0.00    +0.000 A 
ATOM     17  C   UNL     1      86.248  71.519  86.744  0.00  0.00    +0.000 A 
ENDBRANCH   2  12
TORSDOF 1
ENDMDL
