MODEL 1
REMARK VINA RESULT:      -4.3      0.000      0.000
REMARK  Name = *****
REMARK  4 active torsions:
REMARK  status: ('A' for Active; 'I' for Inactive)
REMARK    1  A    between atoms: C_1  and  C_2
REMARK    2  A    between atoms: N_5  and  S_8
REMARK    3  A    between atoms: S_8  and  S_9
REMARK    4  A    between atoms: S_9  and  C_10
REMARK                            x       y       z     vdW  Elec       q    Type
REMARK                         _______ _______ _______ _____ _____    ______ ____
ROOT
ATOM      1  S   UNL     1      89.144  65.728  85.064  0.00  0.00    +0.000 S 
ENDROOT
BRANCH   1   2
ATOM      2  C   UNL     1      88.427  64.787  86.361  0.00  0.00    +0.000 A 
ATOM      3  N   UNL     1      88.453  65.183  87.614  0.00  0.00    +0.000 NA
ATOM      4  C   UNL     1      87.802  64.258  88.410  0.00  0.00    +0.000 A 
ATOM      5  C   UNL     1      87.641  64.338  89.808  0.00  0.00    +0.000 A 
ATOM      6  C   UNL     1      86.954  63.329  90.489  0.00  0.00    +0.000 A 
ATOM      7  C   UNL     1      86.425  62.245  89.796  0.00  0.00    +0.000 A 
ATOM      8  C   UNL     1      86.570  62.140  88.409  0.00  0.00    +0.000 A 
ATOM      9  C   UNL     1      87.265  63.160  87.735  0.00  0.00    +0.000 A 
ATOM     10  S   UNL     1      87.604  63.316  86.055  0.00  0.00    +0.000 S 
ENDBRANCH   1   2
BRANCH   1  11
ATOM     11  S   UNL     1      90.050  67.204  86.167  0.00  0.00    +0.000 S 
BRANCH  11  16
ATOM     12  C   UNL     1      88.304  70.963  89.295  0.00  0.00    +0.000 C 
ATOM     13  C   UNL     1      88.197  70.432  87.869  0.00  0.00    +0.000 C 
ATOM     14  C   UNL     1      89.558  70.473  87.162  0.00  0.00    +0.000 C 
ATOM     15  C   UNL     1      89.483  69.826  85.777  0.00  0.00    +0.000 C 
ATOM     16  N   UNL     1      88.981  68.442  85.829  0.00  0.00    +0.000 NA
ATOM     17  C   UNL     1      87.640  68.422  86.438  0.00  0.00    +0.000 C 
ATOM     18  C   UNL     1      87.633  69.006  87.854  0.00  0.00    +0.000 C 
ENDBRANCH  11  16
ENDBRANCH   1  11
TORSDOF 3
ENDMDL
