REMARK  Name = *****
REMARK  7 active torsions:
REMARK  status: ('A' for Active; 'I' for Inactive)
REMARK    1  A    between atoms: C_1  and  C_2
REMARK    2  A    between atoms: C_6  and  C_7
REMARK    3  A    between atoms: C_6  and  C_8
REMARK    4  A    between atoms: C_12  and  C_14
REMARK    5  A    between atoms: C_14  and  C_15
REMARK    6  A    between atoms: C_14  and  C_16
REMARK    7  A    between atoms: C_14  and  O_22
REMARK                            x       y       z     vdW  Elec       q    Type
REMARK                         _______ _______ _______ _____ _____    ______ ____
ROOT
ATOM      1  C   UNL     1       1.745   1.192   0.764  0.00  0.00    +0.000 C 
ATOM      2  C   UNL     1       2.419  -0.076   0.279  0.00  0.00    +0.000 C 
ATOM      3  C   UNL     1       1.506  -0.959  -0.625  0.00  0.00    +0.000 C 
ATOM      4  C   UNL     1       2.517  -1.898  -1.320  0.00  0.00    +0.000 C 
ATOM      5  C   UNL     1       3.875  -1.441  -0.721  0.00  0.00    +0.000 C 
ATOM      6  C   UNL     1       3.683   0.104  -0.616  0.00  0.00    +0.000 C 
ATOM      7  C   UNL     1       4.846   0.902  -0.005  0.00  0.00    +0.000 C 
ATOM      8  C   UNL     1       3.434   0.789  -1.986  0.00  0.00    +0.000 C 
ATOM      9  C   UNL     1       3.861  -1.977   0.737  0.00  0.00    +0.000 C 
ATOM     10  C   UNL     1       2.884  -1.028   1.427  0.00  0.00    +0.000 C 
ATOM     11  O   UNL     1       3.564  -0.401   2.511  0.00  0.00    +0.000 OA
ATOM     12  C   UNL     1       4.762  -1.162   2.822  0.00  0.00    +0.000 C 
ATOM     13  C   UNL     1       5.139  -1.900   1.536  0.00  0.00    +0.000 C 
ENDROOT
BRANCH  12  14
ATOM     14  C   UNL     1       4.533  -2.074   4.073  0.00  0.00    +0.000 C 
ATOM     15  C   UNL     1       4.077  -1.232   5.280  0.00  0.00    +0.000 C 
BRANCH  14  16
ATOM     16  C   UNL     1       5.793  -2.857   4.456  0.00  0.00    +0.000 A 
ATOM     17  C   UNL     1       7.006  -2.193   4.721  0.00  0.00    +0.000 A 
ATOM     18  C   UNL     1       8.157  -2.904   5.069  0.00  0.00    +0.000 A 
ATOM     19  C   UNL     1       8.119  -4.292   5.166  0.00  0.00    +0.000 A 
ATOM     20  C   UNL     1       6.929  -4.969   4.917  0.00  0.00    +0.000 A 
ATOM     21  C   UNL     1       5.778  -4.258   4.567  0.00  0.00    +0.000 A 
ENDBRANCH  14  16
BRANCH  14  22
ATOM     22  O   UNL     1       3.460  -2.989   3.788  0.00  0.00    +0.000 OA
ATOM     23  H   UNL     1       3.702  -3.545   3.030  0.00  0.00    +0.000 HD
ENDBRANCH  14  22
ENDBRANCH  12  14
TORSDOF 3
