MODEL 1
REMARK VINA RESULT:      -5.8      0.000      0.000
REMARK  Name = *****
REMARK  2 active torsions:
REMARK  status: ('A' for Active; 'I' for Inactive)
REMARK    1  A    between atoms: C_9  and  C_12
REMARK    2  A    between atoms: C_9  and  O_19
REMARK                            x       y       z     vdW  Elec       q    Type
REMARK                         _______ _______ _______ _____ _____    ______ ____
ROOT
ATOM      1  C   UNL     1      84.013  72.347  87.439  0.00  0.00    +0.000 A 
ATOM      2  C   UNL     1      84.302  72.236  86.080  0.00  0.00    +0.000 A 
ATOM      3  C   UNL     1      85.556  71.786  85.669  0.00  0.00    +0.000 A 
ATOM      4  C   UNL     1      86.519  71.443  86.626  0.00  0.00    +0.000 A 
ATOM      5  C   UNL     1      86.240  71.555  87.996  0.00  0.00    +0.000 A 
ATOM      6  C   UNL     1      84.978  72.012  88.393  0.00  0.00    +0.000 A 
ATOM      7  C   UNL     1      87.251  71.234  89.004  0.00  0.00    +0.000 C 
ATOM      8  C   UNL     1      88.412  70.670  88.647  0.00  0.00    +0.000 C 
ATOM      9  C   UNL     1      88.780  70.310  87.236  0.00  0.00    +0.000 C 
ATOM     10  C   UNL     1      87.852  70.965  86.184  0.00  0.00    +0.000 C 
ATOM     11  O   UNL     1      88.198  71.100  85.008  0.00  0.00    +0.000 OA
ENDROOT
BRANCH   9  12
ATOM     12  C   UNL     1      88.854  68.789  87.056  0.00  0.00    +0.000 A 
ATOM     13  C   UNL     1      89.949  68.197  86.393  0.00  0.00    +0.000 A 
ATOM     14  C   UNL     1      90.019  66.813  86.212  0.00  0.00    +0.000 A 
ATOM     15  C   UNL     1      88.994  65.998  86.684  0.00  0.00    +0.000 A 
ATOM     16  C   UNL     1      87.896  66.558  87.329  0.00  0.00    +0.000 A 
ATOM     17  C   UNL     1      87.825  67.943  87.509  0.00  0.00    +0.000 A 
ATOM     18 CL   UNL     1      89.081  64.296  86.460  0.00  0.00    +0.000 Cl
ENDBRANCH   9  12
BRANCH   9  19
ATOM     19  O   UNL     1      90.074  70.890  87.009  0.00  0.00    +0.000 OA
ATOM     20  H   UNL     1      90.752  70.345  87.439  0.00  0.00    +0.000 HD
ENDBRANCH   9  19
TORSDOF 2
ENDMDL
