MODEL 1
REMARK VINA RESULT:      -4.9      0.000      0.000
REMARK  Name = *****
REMARK  1 active torsions:
REMARK  status: ('A' for Active; 'I' for Inactive)
REMARK    1  A    between atoms: C_2  and  C_12
REMARK                            x       y       z     vdW  Elec       q    Type
REMARK                         _______ _______ _______ _____ _____    ______ ____
ROOT
ATOM      1  C   UNL     1     101.178 126.512  83.525  0.00  0.00    +0.000 C 
ATOM      2  C   UNL     1     102.509 127.229  83.731  0.00  0.00    +0.000 C 
ATOM      3  O   UNL     1     102.363 128.297  84.690  0.00  0.00    +0.000 OA
ATOM      4  C   UNL     1     101.357 129.180  84.397  0.00  0.00    +0.000 A 
ATOM      5  C   UNL     1     101.457 130.451  84.964  0.00  0.00    +0.000 A 
ATOM      6  C   UNL     1     100.477 131.411  84.701  0.00  0.00    +0.000 A 
ATOM      7  C   UNL     1      99.392 131.100  83.881  0.00  0.00    +0.000 A 
ATOM      8  C   UNL     1      99.277 129.823  83.329  0.00  0.00    +0.000 A 
ATOM      9  C   UNL     1     100.260 128.866  83.596  0.00  0.00    +0.000 A 
ATOM     10  C   UNL     1     100.135 127.494  83.073  0.00  0.00    +0.000 C 
ATOM     11  O   UNL     1      99.192 127.167  82.359  0.00  0.00    +0.000 OA
ENDROOT
BRANCH   2  12
ATOM     12  C   UNL     1     103.279 127.712  82.505  0.00  0.00    +0.000 A 
ATOM     13  C   UNL     1     104.224 128.749  82.542  0.00  0.00    +0.000 A 
ATOM     14  C   UNL     1     104.884 129.148  81.375  0.00  0.00    +0.000 A 
ATOM     15  C   UNL     1     104.613 128.532  80.157  0.00  0.00    +0.000 A 
ATOM     16  C   UNL     1     103.673 127.509  80.100  0.00  0.00    +0.000 A 
ATOM     17  C   UNL     1     103.010 127.105  81.261  0.00  0.00    +0.000 A 
ATOM     18 CL   UNL     1     106.043 130.419  81.446  0.00  0.00    +0.000 Cl
ENDBRANCH   2  12
TORSDOF 1
ENDMDL
