REMARK  Name = *****
REMARK  4 active torsions:
REMARK  status: ('A' for Active; 'I' for Inactive)
REMARK    1  A    between atoms: C_1  and  C_2
REMARK    2  A    between atoms: C_2  and  C_19
REMARK    3  A    between atoms: C_12  and  C_13
REMARK    4  A    between atoms: C_12  and  O_18
REMARK                            x       y       z     vdW  Elec       q    Type
REMARK                         _______ _______ _______ _____ _____    ______ ____
ROOT
ATOM      1  C   UNL     1       1.093   0.433   0.161  0.00  0.00    +0.000 C 
ATOM      2  C   UNL     1       2.617   0.251   0.022  0.00  0.00    +0.000 C 
ATOM      3  C   UNL     1       3.328   1.550   0.349  0.00  0.00    +0.000 C 
ATOM      4  O   UNL     1       2.787   2.652   0.296  0.00  0.00    +0.000 OA
ATOM      5  C   UNL     1       4.769   1.454   0.639  0.00  0.00    +0.000 A 
ATOM      6  C   UNL     1       5.570   2.601   0.649  0.00  0.00    +0.000 A 
ATOM      7  C   UNL     1       6.940   2.485   0.882  0.00  0.00    +0.000 A 
ATOM      8  C   UNL     1       7.504   1.229   1.102  0.00  0.00    +0.000 A 
ATOM      9  C   UNL     1       6.698   0.088   1.100  0.00  0.00    +0.000 A 
ATOM     10  C   UNL     1       5.325   0.201   0.878  0.00  0.00    +0.000 A 
ATOM     11  O   UNL     1       4.611  -0.962   0.933  0.00  0.00    +0.000 OA
ATOM     12  C   UNL     1       3.179  -0.854   0.952  0.00  0.00    +0.000 C 
ATOM     13  C   UNL     1       2.908  -0.057  -1.467  0.00  0.00    +0.000 C 
ENDROOT
BRANCH  12  14
ATOM     14  C   UNL     1       2.678  -0.817   2.401  0.00  0.00    +0.000 A 
ATOM     15  C   UNL     1       1.569  -1.469   2.928  0.00  0.00    +0.000 A 
ATOM     16  C   UNL     1       1.372  -1.218   4.315  0.00  0.00    +0.000 A 
ATOM     17  C   UNL     1       2.332  -0.377   4.823  0.00  0.00    +0.000 A 
ATOM     18  S   UNL     1       3.454   0.104   3.632  0.00  0.00    +0.000 S 
ENDBRANCH  12  14
BRANCH  12  19
ATOM     19  O   UNL     1       2.724  -2.117   0.439  0.00  0.00    +0.000 OA
ATOM     20  H   UNL     1       3.007  -2.212  -0.484  0.00  0.00    +0.000 HD
ENDBRANCH  12  19
TORSDOF 2
