REMARK  Name = *****
REMARK  1 active torsions:
REMARK  status: ('A' for Active; 'I' for Inactive)
REMARK    1  A    between atoms: C_2  and  C_12
REMARK                            x       y       z     vdW  Elec       q    Type
REMARK                         _______ _______ _______ _____ _____    ______ ____
ROOT
ATOM      1  C   UNL     1      -2.291   0.330  -0.450  0.00  0.00    +0.000 C 
ATOM      2  C   UNL     1      -1.749   1.475   0.404  0.00  0.00    +0.000 C 
ATOM      3  O   UNL     1      -0.413   1.823  -0.006  0.00  0.00    +0.000 OA
ATOM      4  C   UNL     1       0.463   0.776  -0.058  0.00  0.00    +0.000 A 
ATOM      5  C   UNL     1       1.817   1.090   0.047  0.00  0.00    +0.000 A 
ATOM      6  C   UNL     1       2.774   0.074   0.007  0.00  0.00    +0.000 A 
ATOM      7  C   UNL     1       2.380  -1.256  -0.148  0.00  0.00    +0.000 A 
ATOM      8  C   UNL     1       1.026  -1.572  -0.272  0.00  0.00    +0.000 A 
ATOM      9  C   UNL     1       0.073  -0.550  -0.233  0.00  0.00    +0.000 A 
ATOM     10  C   UNL     1      -1.358  -0.849  -0.406  0.00  0.00    +0.000 C 
ATOM     11  O   UNL     1      -1.754  -2.001  -0.546  0.00  0.00    +0.000 OA
ENDROOT
BRANCH   2  12
ATOM     12  C   UNL     1      -1.836   1.364   1.927  0.00  0.00    +0.000 A 
ATOM     13  C   UNL     1      -1.548   2.477   2.749  0.00  0.00    +0.000 A 
ATOM     14  C   UNL     1      -1.609   2.387   4.144  0.00  0.00    +0.000 A 
ATOM     15  C   UNL     1      -1.964   1.185   4.743  0.00  0.00    +0.000 A 
ATOM     16  C   UNL     1      -2.266   0.076   3.962  0.00  0.00    +0.000 A 
ATOM     17  C   UNL     1      -2.205   0.165   2.568  0.00  0.00    +0.000 A 
ATOM     18 CL   UNL     1      -2.039   1.071   6.458  0.00  0.00    +0.000 Cl
ATOM     19 CL   UNL     1      -1.130   4.024   2.093  0.00  0.00    +0.000 Cl
ENDBRANCH   2  12
TORSDOF 1
