MODEL 1
REMARK VINA RESULT:      -5.3      0.000      0.000
REMARK  Name = *****
REMARK  5 active torsions:
REMARK  status: ('A' for Active; 'I' for Inactive)
REMARK    1  A    between atoms: C_1  and  C_2
REMARK    2  A    between atoms: C_3  and  C_23
REMARK    3  A    between atoms: C_11  and  O_13
REMARK    4  A    between atoms: O_13  and  C_14
REMARK    5  A    between atoms: C_14  and  C_15
REMARK                            x       y       z     vdW  Elec       q    Type
REMARK                         _______ _______ _______ _____ _____    ______ ____
ROOT
ATOM      1  C   UNL     1     101.847 129.852  84.328  0.00  0.00    +0.000 C 
ATOM      2  C   UNL     1     101.427 128.639  83.537  0.00  0.00    +0.000 A 
ATOM      3  C   UNL     1     100.158 128.178  83.471  0.00  0.00    +0.000 A 
ATOM      4  C   UNL     1      99.793 127.003  82.628  0.00  0.00    +0.000 A 
ATOM      5  O   UNL     1      98.637 126.598  82.550  0.00  0.00    +0.000 OA
ATOM      6  O   UNL     1     100.808 126.382  81.925  0.00  0.00    +0.000 OA
ATOM      7  C   UNL     1     102.135 126.831  82.001  0.00  0.00    +0.000 A 
ATOM      8  C   UNL     1     102.481 127.931  82.782  0.00  0.00    +0.000 A 
ATOM      9  C   UNL     1     103.833 128.293  82.801  0.00  0.00    +0.000 A 
ATOM     10  C   UNL     1     104.782 127.577  82.058  0.00  0.00    +0.000 A 
ATOM     11  C   UNL     1     104.406 126.483  81.279  0.00  0.00    +0.000 A 
ATOM     12  C   UNL     1     103.069 126.105  81.253  0.00  0.00    +0.000 A 
ATOM     13  C   UNL     1      98.974 128.749  84.208  0.00  0.00    +0.000 C 
ENDROOT
BRANCH  11  14
ATOM     14  O   UNL     1     105.431 125.880  80.605  0.00  0.00    +0.000 OA
BRANCH  14  15
ATOM     15  C   UNL     1     105.084 124.868  79.665  0.00  0.00    +0.000 C 
BRANCH  15  16
ATOM     16  C   UNL     1     105.573 123.549  80.213  0.00  0.00    +0.000 A 
ATOM     17  C   UNL     1     104.665 122.617  80.739  0.00  0.00    +0.000 A 
ATOM     18  C   UNL     1     105.123 121.393  81.218  0.00  0.00    +0.000 A 
ATOM     19  C   UNL     1     106.476 121.081  81.173  0.00  0.00    +0.000 A 
ATOM     20  C   UNL     1     107.388 121.985  80.643  0.00  0.00    +0.000 A 
ATOM     21  C   UNL     1     106.938 123.217  80.158  0.00  0.00    +0.000 A 
ATOM     22  F   UNL     1     106.912 119.901  81.635  0.00  0.00    +0.000 F 
ATOM     23  F   UNL     1     104.245 120.517  81.723  0.00  0.00    +0.000 F 
ENDBRANCH  15  16
ENDBRANCH  14  15
ENDBRANCH  11  14
TORSDOF 3
ENDMDL
