MODEL 1
REMARK VINA RESULT:      -5.3      0.000      0.000
REMARK  Name = *****
REMARK  2 active torsions:
REMARK  status: ('A' for Active; 'I' for Inactive)
REMARK    1  A    between atoms: C_4  and  C_7
REMARK    2  A    between atoms: C_8  and  C_18
REMARK                            x       y       z     vdW  Elec       q    Type
REMARK                         _______ _______ _______ _____ _____    ______ ____
ROOT
ATOM      1  C   UNL     1     102.797 125.960  82.746  0.00  0.00    +0.000 C 
ATOM      2  C   UNL     1     103.505 127.312  82.571  0.00  0.00    +0.000 C 
ATOM      3  C   UNL     1     102.632 128.316  83.289  0.00  0.00    +0.000 C 
ATOM      4  O   UNL     1     103.088 129.253  83.935  0.00  0.00    +0.000 OA
ATOM      5  C   UNL     1     101.171 128.131  83.166  0.00  0.00    +0.000 A 
ATOM      6  C   UNL     1     100.285 129.111  83.619  0.00  0.00    +0.000 A 
ATOM      7  C   UNL     1      98.912 128.929  83.447  0.00  0.00    +0.000 A 
ATOM      8  C   UNL     1      98.433 127.776  82.822  0.00  0.00    +0.000 A 
ATOM      9  C   UNL     1      99.323 126.797  82.375  0.00  0.00    +0.000 A 
ATOM     10  C   UNL     1     100.692 126.967  82.562  0.00  0.00    +0.000 A 
ATOM     11  O   UNL     1     101.509 125.966  82.104  0.00  0.00    +0.000 OA
ENDROOT
BRANCH   1  15
ATOM     12  C   UNL     1     105.218 122.644  81.356  0.00  0.00    +0.000 A 
ATOM     13  C   UNL     1     104.951 122.804  82.713  0.00  0.00    +0.000 A 
ATOM     14  C   UNL     1     104.165 123.872  83.150  0.00  0.00    +0.000 A 
ATOM     15  C   UNL     1     103.634 124.796  82.233  0.00  0.00    +0.000 A 
ATOM     16  C   UNL     1     103.910 124.618  80.869  0.00  0.00    +0.000 A 
ATOM     17  C   UNL     1     104.697 123.549  80.434  0.00  0.00    +0.000 A 
ENDBRANCH   1  15
BRANCH   2  18
ATOM     18  C   UNL     1     103.680 127.713  81.106  0.00  0.00    +0.000 C 
ATOM     19 CL   UNL     1     104.782 129.106  80.930  0.00  0.00    +0.000 Cl
ENDBRANCH   2  18
TORSDOF 2
ENDMDL
