MODEL 1
REMARK VINA RESULT:      -6.1      0.000      0.000
REMARK  Name = *****
REMARK  2 active torsions:
REMARK  status: ('A' for Active; 'I' for Inactive)
REMARK    1  A    between atoms: C_5  and  C_7
REMARK    2  A    between atoms: C_7  and  O_22
REMARK                            x       y       z     vdW  Elec       q    Type
REMARK                         _______ _______ _______ _____ _____    ______ ____
ROOT
ATOM      1  C   UNL     1      88.205  70.270  87.433  0.00  0.00    +0.000 C 
ATOM      2  C   UNL     1      87.544  70.850  88.670  0.00  0.00    +0.000 A 
ATOM      3  C   UNL     1      88.142  70.627  89.932  0.00  0.00    +0.000 A 
ATOM      4  C   UNL     1      87.573  71.127  91.098  0.00  0.00    +0.000 A 
ATOM      5  C   UNL     1      86.400  71.859  91.019  0.00  0.00    +0.000 A 
ATOM      6  C   UNL     1      85.798  72.087  89.777  0.00  0.00    +0.000 A 
ATOM      7  C   UNL     1      86.342  71.586  88.575  0.00  0.00    +0.000 A 
ATOM      8  C   UNL     1      85.713  71.830  87.253  0.00  0.00    +0.000 A 
ATOM      9  C   UNL     1      84.432  72.404  87.111  0.00  0.00    +0.000 A 
ATOM     10  C   UNL     1      83.866  72.660  85.855  0.00  0.00    +0.000 A 
ATOM     11  C   UNL     1      84.564  72.347  84.698  0.00  0.00    +0.000 A 
ATOM     12  C   UNL     1      85.822  71.763  84.798  0.00  0.00    +0.000 A 
ATOM     13  C   UNL     1      86.381  71.499  86.061  0.00  0.00    +0.000 A 
ATOM     14  C   UNL     1      87.710  70.849  86.106  0.00  0.00    +0.000 C 
ATOM     15  O   UNL     1      88.401  70.776  85.083  0.00  0.00    +0.000 OA
ENDROOT
BRANCH   1  20
ATOM     16  C   UNL     1      87.522  66.466  87.556  0.00  0.00    +0.000 C 
ATOM     17  C   UNL     1      88.880  66.475  86.873  0.00  0.00    +0.000 C 
ATOM     18  C   UNL     1      89.215  67.936  86.812  0.00  0.00    +0.000 C 
ATOM     19  O   UNL     1      90.256  68.386  86.359  0.00  0.00    +0.000 OA
ATOM     20  C   UNL     1      88.141  68.774  87.374  0.00  0.00    +0.000 C 
ATOM     21  C   UNL     1      87.206  67.906  87.791  0.00  0.00    +0.000 C 
ENDBRANCH   1  20
BRANCH   1  22
ATOM     22  O   UNL     1      89.602  70.650  87.484  0.00  0.00    +0.000 OA
ATOM     23  H   UNL     1      89.707  71.423  88.060  0.00  0.00    +0.000 HD
ENDBRANCH   1  22
TORSDOF 2
ENDMDL
