MODEL 1
REMARK VINA RESULT:      -5.1      0.000      0.000
REMARK  Name = *****
REMARK  2 active torsions:
REMARK  status: ('A' for Active; 'I' for Inactive)
REMARK    1  A    between atoms: C_1  and  C_2
REMARK    2  A    between atoms: C_3  and  C_13
REMARK                            x       y       z     vdW  Elec       q    Type
REMARK                         _______ _______ _______ _____ _____    ______ ____
ROOT
ATOM      1  C   UNL     1     105.037 127.601  82.799  0.00  0.00    +0.000 C 
ATOM      2  C   UNL     1     103.599 127.121  83.005  0.00  0.00    +0.000 C 
ATOM      3  C   UNL     1     103.004 126.459  81.753  0.00  0.00    +0.000 C 
ATOM      4  O   UNL     1     101.667 125.986  82.008  0.00  0.00    +0.000 OA
ATOM      5  C   UNL     1     100.824 126.957  82.470  0.00  0.00    +0.000 A 
ATOM      6  C   UNL     1      99.460 126.734  82.293  0.00  0.00    +0.000 A 
ATOM      7  C   UNL     1      98.534 127.682  82.735  0.00  0.00    +0.000 A 
ATOM      8  C   UNL     1      98.972 128.849  83.362  0.00  0.00    +0.000 A 
ATOM      9  C   UNL     1     100.337 129.066  83.558  0.00  0.00    +0.000 A 
ATOM     10  C   UNL     1     101.260 128.112  83.117  0.00  0.00    +0.000 A 
ATOM     11  C   UNL     1     102.704 128.292  83.361  0.00  0.00    +0.000 C 
ATOM     12  O   UNL     1     103.113 129.325  83.883  0.00  0.00    +0.000 OA
ENDROOT
BRANCH   3  13
ATOM     13  C   UNL     1     103.803 125.255  81.285  0.00  0.00    +0.000 A 
ATOM     14  C   UNL     1     103.912 124.102  82.079  0.00  0.00    +0.000 A 
ATOM     15  C   UNL     1     104.666 123.009  81.646  0.00  0.00    +0.000 A 
ATOM     16  C   UNL     1     105.319 123.054  80.417  0.00  0.00    +0.000 A 
ATOM     17  C   UNL     1     105.216 124.190  79.616  0.00  0.00    +0.000 A 
ATOM     18  C   UNL     1     104.463 125.284  80.046  0.00  0.00    +0.000 A 
ENDBRANCH   3  13
TORSDOF 1
ENDMDL
