MODEL 1
REMARK VINA RESULT:      -5.2      0.000      0.000
REMARK  Name = *****
REMARK  3 active torsions:
REMARK  status: ('A' for Active; 'I' for Inactive)
REMARK    1  A    between atoms: C_5  and  C_7
REMARK    2  A    between atoms: C_7  and  O_8
REMARK    3  A    between atoms: O_8  and  C_9
REMARK                            x       y       z     vdW  Elec       q    Type
REMARK                         _______ _______ _______ _____ _____    ______ ____
ROOT
ATOM      1  C   UNL     1     103.561 126.560  82.249  0.00  0.00    +0.000 A 
ATOM      2  C   UNL     1     102.236 126.188  82.016  0.00  0.00    +0.000 A 
ATOM      3  C   UNL     1     101.202 127.002  82.470  0.00  0.00    +0.000 A 
ATOM      4  C   UNL     1     101.453 128.187  83.156  0.00  0.00    +0.000 A 
ATOM      5  C   UNL     1     102.777 128.557  83.391  0.00  0.00    +0.000 A 
ATOM      6  C   UNL     1     103.828 127.747  82.939  0.00  0.00    +0.000 A 
ATOM      7  C   UNL     1     100.330 128.994  83.605  0.00  0.00    +0.000 A 
ATOM      8  C   UNL     1      99.084 128.583  83.350  0.00  0.00    +0.000 A 
ATOM      9  C   UNL     1      98.793 127.334  82.626  0.00  0.00    +0.000 A 
ATOM     10  O   UNL     1      97.636 126.992  82.410  0.00  0.00    +0.000 OA
ATOM     11  O   UNL     1      99.883 126.581  82.208  0.00  0.00    +0.000 OA
ENDROOT
BRANCH   1  12
ATOM     12  O   UNL     1     104.492 125.688  81.759  0.00  0.00    +0.000 OA
BRANCH  12  13
ATOM     13  C   UNL     1     104.008 124.513  81.104  0.00  0.00    +0.000 C 
BRANCH  13  18
ATOM     14  C   UNL     1     104.640 122.041  83.961  0.00  0.00    +0.000 A 
ATOM     15  C   UNL     1     105.035 120.907  83.252  0.00  0.00    +0.000 A 
ATOM     16  C   UNL     1     105.097 120.949  81.861  0.00  0.00    +0.000 A 
ATOM     17  C   UNL     1     104.770 122.126  81.192  0.00  0.00    +0.000 A 
ATOM     18  C   UNL     1     104.389 123.280  81.883  0.00  0.00    +0.000 A 
ATOM     19  C   UNL     1     104.313 123.219  83.283  0.00  0.00    +0.000 A 
ATOM     20  F   UNL     1     104.820 122.140  79.851  0.00  0.00    +0.000 F 
ENDBRANCH  13  18
ENDBRANCH  12  13
ENDBRANCH   1  12
TORSDOF 3
ENDMDL
