REMARK  Name = *****
REMARK  4 active torsions:
REMARK  status: ('A' for Active; 'I' for Inactive)
REMARK    1  A    between atoms: C_1  and  C_2
REMARK    2  A    between atoms: C_2  and  C_3
REMARK    3  A    between atoms: C_2  and  C_9
REMARK    4  A    between atoms: C_2  and  O_19
REMARK                            x       y       z     vdW  Elec       q    Type
REMARK                         _______ _______ _______ _____ _____    ______ ____
ROOT
ATOM      1  C   UNL     1       1.556  -0.473  -0.573  0.00  0.00    +0.000 C 
ATOM      2  C   UNL     1       2.740  -0.367   0.399  0.00  0.00    +0.000 C 
ENDROOT
BRANCH   2   3
ATOM      3  C   UNL     1       3.181  -1.745   0.821  0.00  0.00    +0.000 C 
ATOM      4  C   UNL     1       4.326  -2.418   0.562  0.00  0.00    +0.000 C 
ATOM      5  C   UNL     1       4.279  -3.733   1.302  0.00  0.00    +0.000 C 
ATOM      6  C   UNL     1       3.434  -3.236   2.515  0.00  0.00    +0.000 C 
ATOM      7  C   UNL     1       2.290  -2.694   1.642  0.00  0.00    +0.000 C 
ATOM      8  C   UNL     1       1.973  -3.823   0.626  0.00  0.00    +0.000 C 
ATOM      9  C   UNL     1       3.229  -4.715   0.791  0.00  0.00    +0.000 C 
ATOM     10  C   UNL     1       3.118  -5.630  -0.401  0.00  0.00    +0.000 C 
ATOM     11  C   UNL     1       1.620  -5.914  -0.237  0.00  0.00    +0.000 C 
ATOM     12  C   UNL     1       0.997  -4.935   0.460  0.00  0.00    +0.000 C 
ENDBRANCH   2   3
BRANCH   2  13
ATOM     13  C   UNL     1       2.493   0.530   1.618  0.00  0.00    +0.000 A 
ATOM     14  C   UNL     1       1.230   1.049   1.947  0.00  0.00    +0.000 A 
ATOM     15  C   UNL     1       1.057   1.860   3.074  0.00  0.00    +0.000 A 
ATOM     16  C   UNL     1       2.141   2.166   3.892  0.00  0.00    +0.000 A 
ATOM     17  C   UNL     1       3.400   1.660   3.590  0.00  0.00    +0.000 A 
ATOM     18  C   UNL     1       3.574   0.850   2.466  0.00  0.00    +0.000 A 
ENDBRANCH   2  13
BRANCH   2  19
ATOM     19  O   UNL     1       3.800   0.223  -0.373  0.00  0.00    +0.000 OA
ATOM     20  H   UNL     1       3.537   1.113  -0.657  0.00  0.00    +0.000 HD
ENDBRANCH   2  19
TORSDOF 3
