MODEL 1
REMARK VINA RESULT:      -4.8      0.000      0.000
REMARK  Name = *****
REMARK  4 active torsions:
REMARK  status: ('A' for Active; 'I' for Inactive)
REMARK    1  A    between atoms: N_3  and  N_18
REMARK    2  A    between atoms: C_7  and  O_10
REMARK    3  A    between atoms: O_10  and  C_11
REMARK    4  A    between atoms: C_11  and  C_12
REMARK                            x       y       z     vdW  Elec       q    Type
REMARK                         _______ _______ _______ _____ _____    ______ ____
ROOT
ATOM      1  C   UNL     1      90.843  65.978  85.650  0.00  0.00    +0.000 C 
ATOM      2  C   UNL     1      90.194  64.584  85.717  0.00  0.00    +0.000 C 
ATOM      3  N   UNL     1      89.103  64.634  86.705  0.00  0.00    +0.000 N 
ATOM      4  C   UNL     1      88.829  66.012  86.878  0.00  0.00    +0.000 A 
ATOM      5  C   UNL     1      89.785  66.829  86.268  0.00  0.00    +0.000 A 
ATOM      6  C   UNL     1      89.721  68.215  86.325  0.00  0.00    +0.000 A 
ATOM      7  C   UNL     1      88.653  68.800  87.009  0.00  0.00    +0.000 A 
ATOM      8  C   UNL     1      87.688  67.984  87.623  0.00  0.00    +0.000 A 
ATOM      9  C   UNL     1      87.772  66.587  87.565  0.00  0.00    +0.000 A 
ENDROOT
BRANCH   3  10
ATOM     10  N   UNL     1      88.296  63.643  87.108  0.00  0.00    +0.000 NA
ATOM     11  O   UNL     1      87.646  63.146  86.182  0.00  0.00    +0.000 OA
ENDBRANCH   3  10
BRANCH   7  12
ATOM     12  O   UNL     1      88.434  70.141  87.161  0.00  0.00    +0.000 OA
BRANCH  12  13
ATOM     13  C   UNL     1      87.828  70.830  86.071  0.00  0.00    +0.000 C 
BRANCH  13  14
ATOM     14  C   UNL     1      86.509  71.390  86.542  0.00  0.00    +0.000 A 
ATOM     15  C   UNL     1      85.564  71.865  85.621  0.00  0.00    +0.000 A 
ATOM     16  C   UNL     1      84.349  72.393  86.062  0.00  0.00    +0.000 A 
ATOM     17  C   UNL     1      84.071  72.459  87.425  0.00  0.00    +0.000 A 
ATOM     18  C   UNL     1      85.008  72.004  88.350  0.00  0.00    +0.000 A 
ATOM     19  C   UNL     1      86.224  71.475  87.911  0.00  0.00    +0.000 A 
ENDBRANCH  13  14
ENDBRANCH  12  13
ENDBRANCH   7  12
TORSDOF 4
ENDMDL
