MODEL 1
REMARK VINA RESULT:      -5.1      0.000      0.000
REMARK  Name = *****
REMARK  2 active torsions:
REMARK  status: ('A' for Active; 'I' for Inactive)
REMARK    1  A    between atoms: C_2  and  C_12
REMARK    2  A    between atoms: C_15  and  C_18
REMARK                            x       y       z     vdW  Elec       q    Type
REMARK                         _______ _______ _______ _____ _____    ______ ____
ROOT
ATOM      1  C   UNL     1      87.907  68.392  87.192  0.00  0.00    +0.000 C 
ATOM      2  C   UNL     1      86.905  69.505  87.482  0.00  0.00    +0.000 C 
ATOM      3  O   UNL     1      86.584  70.221  86.271  0.00  0.00    +0.000 OA
ATOM      4  C   UNL     1      87.677  70.696  85.597  0.00  0.00    +0.000 A 
ATOM      5  C   UNL     1      87.461  71.770  84.735  0.00  0.00    +0.000 A 
ATOM      6  C   UNL     1      88.529  72.320  84.022  0.00  0.00    +0.000 A 
ATOM      7  C   UNL     1      89.812  71.790  84.162  0.00  0.00    +0.000 A 
ATOM      8  C   UNL     1      90.030  70.702  85.009  0.00  0.00    +0.000 A 
ATOM      9  C   UNL     1      88.957  70.156  85.718  0.00  0.00    +0.000 A 
ATOM     10  C   UNL     1      89.147  68.973  86.577  0.00  0.00    +0.000 C 
ATOM     11  O   UNL     1      90.253  68.462  86.723  0.00  0.00    +0.000 OA
ENDROOT
BRANCH   2  12
ATOM     12  C   UNL     1      87.203  70.478  88.620  0.00  0.00    +0.000 A 
ATOM     13  C   UNL     1      88.435  70.534  89.287  0.00  0.00    +0.000 A 
ATOM     14  C   UNL     1      88.646  71.446  90.327  0.00  0.00    +0.000 A 
ATOM     15  C   UNL     1      87.632  72.324  90.728  0.00  0.00    +0.000 A 
ATOM     16  C   UNL     1      86.394  72.260  90.081  0.00  0.00    +0.000 A 
ATOM     17  C   UNL     1      86.184  71.350  89.042  0.00  0.00    +0.000 A 
BRANCH  15  18
ATOM     18  C   UNL     1      87.854  73.282  91.869  0.00  0.00    +0.000 C 
ATOM     19  F   UNL     1      88.689  72.789  92.826  0.00  0.00    +0.000 F 
ATOM     20  F   UNL     1      88.403  74.467  91.475  0.00  0.00    +0.000 F 
ENDBRANCH  15  18
ENDBRANCH   2  12
TORSDOF 2
ENDMDL
