MODEL 1
REMARK VINA RESULT:      -4.9      0.000      0.000
REMARK  Name = *****
REMARK  2 active torsions:
REMARK  status: ('A' for Active; 'I' for Inactive)
REMARK    1  A    between atoms: C_1  and  C_2
REMARK    2  A    between atoms: C_9  and  C_13
REMARK                            x       y       z     vdW  Elec       q    Type
REMARK                         _______ _______ _______ _____ _____    ______ ____
ROOT
ATOM      1  C   UNL     1      87.978  71.133  90.513  0.00  0.00    +0.000 C 
ATOM      2  C   UNL     1      87.757  70.914  89.046  0.00  0.00    +0.000 A 
ATOM      3  C   UNL     1      88.615  70.080  88.316  0.00  0.00    +0.000 A 
ATOM      4  C   UNL     1      88.383  69.856  86.955  0.00  0.00    +0.000 A 
ATOM      5  C   UNL     1      87.303  70.458  86.312  0.00  0.00    +0.000 A 
ATOM      6  C   UNL     1      86.427  71.260  87.040  0.00  0.00    +0.000 A 
ATOM      7  C   UNL     1      86.653  71.486  88.400  0.00  0.00    +0.000 A 
ATOM      8  O   UNL     1      87.020  70.293  84.982  0.00  0.00    +0.000 OA
ATOM      9  C   UNL     1      88.159  69.908  84.182  0.00  0.00    +0.000 C 
ATOM     10  C   UNL     1      88.825  68.669  84.769  0.00  0.00    +0.000 C 
ATOM     11  C   UNL     1      89.245  68.943  86.185  0.00  0.00    +0.000 C 
ATOM     12  O   UNL     1      90.211  68.389  86.702  0.00  0.00    +0.000 OA
ENDROOT
BRANCH   9  13
ATOM     13  C   UNL     1      89.029  71.121  83.861  0.00  0.00    +0.000 A 
ATOM     14  C   UNL     1      90.416  71.045  83.660  0.00  0.00    +0.000 A 
ATOM     15  C   UNL     1      91.157  72.190  83.353  0.00  0.00    +0.000 A 
ATOM     16  C   UNL     1      90.527  73.426  83.233  0.00  0.00    +0.000 A 
ATOM     17  C   UNL     1      89.151  73.519  83.418  0.00  0.00    +0.000 A 
ATOM     18  C   UNL     1      88.409  72.378  83.725  0.00  0.00    +0.000 A 
ENDBRANCH   9  13
TORSDOF 1
ENDMDL
