REMARK  Name = *****
REMARK  2 active torsions:
REMARK  status: ('A' for Active; 'I' for Inactive)
REMARK    1  A    between atoms: C_2  and  C_10
REMARK    2  A    between atoms: C_10  and  C_11
REMARK                            x       y       z     vdW  Elec       q    Type
REMARK                         _______ _______ _______ _____ _____    ______ ____
ROOT
ATOM      1  C   UNL     1       1.552   1.164   0.072  0.00  0.00    +0.000 C 
ATOM      2  C   UNL     1       2.187  -0.172  -0.362  0.00  0.00    +0.000 C 
ATOM      3  O   UNL     1       1.226  -1.237  -0.111  0.00  0.00    +0.000 OA
ATOM      4  C   UNL     1       0.019  -0.597  -0.012  0.00  0.00    +0.000 A 
ATOM      5  C   UNL     1      -1.200  -1.241   0.023  0.00  0.00    +0.000 A 
ATOM      6  C   UNL     1      -2.350  -0.456   0.128  0.00  0.00    +0.000 A 
ATOM      7  C   UNL     1      -2.253   0.943   0.205  0.00  0.00    +0.000 A 
ATOM      8  C   UNL     1      -1.005   1.573   0.180  0.00  0.00    +0.000 A 
ATOM      9  C   UNL     1       0.123   0.781   0.063  0.00  0.00    +0.000 A 
ENDROOT
BRANCH   2  10
ATOM     10  C   UNL     1       2.576  -0.170  -1.853  0.00  0.00    +0.000 C 
BRANCH  10  11
ATOM     11  C   UNL     1       3.506  -1.309  -2.209  0.00  0.00    +0.000 A 
ATOM     12  C   UNL     1       2.994  -2.586  -2.472  0.00  0.00    +0.000 A 
ATOM     13  C   UNL     1       3.852  -3.641  -2.787  0.00  0.00    +0.000 A 
ATOM     14  C   UNL     1       5.228  -3.430  -2.840  0.00  0.00    +0.000 A 
ATOM     15  C   UNL     1       5.748  -2.164  -2.575  0.00  0.00    +0.000 A 
ATOM     16  C   UNL     1       4.892  -1.108  -2.259  0.00  0.00    +0.000 A 
ENDBRANCH  10  11
ENDBRANCH   2  10
TORSDOF 2
