MODEL 1
REMARK VINA RESULT:      -5.4      0.000      0.000
REMARK  Name = *****
REMARK  1 active torsions:
REMARK  status: ('A' for Active; 'I' for Inactive)
REMARK    1  A    between atoms: C_13  and  C_14
REMARK                            x       y       z     vdW  Elec       q    Type
REMARK                         _______ _______ _______ _____ _____    ______ ____
ROOT
ATOM      1  C   UNL     1     104.588 124.548  81.050  0.00  0.00    +0.000 C 
ATOM      2  C   UNL     1     103.912 124.760  82.402  0.00  0.00    +0.000 C 
ATOM      3  C   UNL     1     102.713 125.688  82.134  0.00  0.00    +0.000 C 
ATOM      4  C   UNL     1     103.117 126.482  80.891  0.00  0.00    +0.000 C 
ATOM      5  C   UNL     1     103.820 125.408  80.051  0.00  0.00    +0.000 C 
ATOM      6  C   UNL     1     103.976 127.668  81.250  0.00  0.00    +0.000 A 
ATOM      7  C   UNL     1     104.633 128.404  80.251  0.00  0.00    +0.000 A 
ATOM      8  C   UNL     1     105.437 129.498  80.580  0.00  0.00    +0.000 A 
ATOM      9  C   UNL     1     105.589 129.874  81.911  0.00  0.00    +0.000 A 
ATOM     10  C   UNL     1     104.921 129.168  82.909  0.00  0.00    +0.000 A 
ATOM     11  C   UNL     1     104.103 128.085  82.579  0.00  0.00    +0.000 A 
ATOM     12  O   UNL     1     103.464 127.491  83.635  0.00  0.00    +0.000 OA
ATOM     13  C   UNL     1     102.376 126.606  83.315  0.00  0.00    +0.000 C 
ENDROOT
BRANCH  13  14
ATOM     14  C   UNL     1     101.032 127.329  83.185  0.00  0.00    +0.000 A 
ATOM     15  C   UNL     1     100.822 128.617  83.702  0.00  0.00    +0.000 A 
ATOM     16  C   UNL     1      99.583 129.252  83.582  0.00  0.00    +0.000 A 
ATOM     17  C   UNL     1      98.525 128.604  82.952  0.00  0.00    +0.000 A 
ATOM     18  C   UNL     1      98.702 127.318  82.451  0.00  0.00    +0.000 A 
ATOM     19  C   UNL     1      99.941 126.683  82.574  0.00  0.00    +0.000 A 
ENDBRANCH  13  14
TORSDOF 1
ENDMDL
