MODEL 1
REMARK VINA RESULT:      -5.8      0.000      0.000
REMARK  Name = *****
REMARK  3 active torsions:
REMARK  status: ('A' for Active; 'I' for Inactive)
REMARK    1  A    between atoms: C_10  and  C_11
REMARK    2  A    between atoms: C_11  and  C_12
REMARK    3  A    between atoms: C_11  and  O_23
REMARK                            x       y       z     vdW  Elec       q    Type
REMARK                         _______ _______ _______ _____ _____    ______ ____
ROOT
ATOM      1  C   UNL     1      88.335  70.199  87.549  0.00  0.00    +0.000 C 
ENDROOT
BRANCH   1   2
ATOM      2  C   UNL     1      88.472  68.713  87.295  0.00  0.00    +0.000 A 
ATOM      3  C   UNL     1      87.588  67.778  87.848  0.00  0.00    +0.000 A 
ATOM      4  C   UNL     1      87.742  66.411  87.630  0.00  0.00    +0.000 A 
ATOM      5  C   UNL     1      88.787  65.947  86.847  0.00  0.00    +0.000 A 
ATOM      6  C   UNL     1      89.667  66.850  86.274  0.00  0.00    +0.000 A 
ATOM      7  C   UNL     1      89.508  68.217  86.494  0.00  0.00    +0.000 A 
ATOM      8  F   UNL     1      90.362  69.067  85.907  0.00  0.00    +0.000 F 
ATOM      9  F   UNL     1      90.671  66.411  85.501  0.00  0.00    +0.000 F 
ATOM     10  F   UNL     1      88.934  64.632  86.631  0.00  0.00    +0.000 F 
ATOM     11  F   UNL     1      86.870  65.547  88.168  0.00  0.00    +0.000 F 
ATOM     12  F   UNL     1      86.540  68.205  88.566  0.00  0.00    +0.000 F 
ENDBRANCH   1   2
BRANCH   1  22
ATOM     13  C   UNL     1      83.678  72.675  87.869  0.00  0.00    +0.000 A 
ATOM     14  C   UNL     1      84.535  72.144  88.819  0.00  0.00    +0.000 A 
ATOM     15  C   UNL     1      85.743  71.562  88.423  0.00  0.00    +0.000 A 
ATOM     16  C   UNL     1      86.134  71.484  87.064  0.00  0.00    +0.000 A 
ATOM     17  C   UNL     1      85.243  72.049  86.111  0.00  0.00    +0.000 A 
ATOM     18  C   UNL     1      84.032  72.631  86.524  0.00  0.00    +0.000 A 
ATOM     19  C   UNL     1      85.564  72.033  84.748  0.00  0.00    +0.000 A 
ATOM     20  C   UNL     1      86.753  71.471  84.304  0.00  0.00    +0.000 A 
ATOM     21  C   UNL     1      87.634  70.906  85.218  0.00  0.00    +0.000 A 
ATOM     22  C   UNL     1      87.351  70.891  86.601  0.00  0.00    +0.000 A 
ENDBRANCH   1  22
BRANCH   1  23
ATOM     23  O   UNL     1      89.619  70.833  87.503  0.00  0.00    +0.000 OA
ATOM     24  H   UNL     1      89.639  71.473  86.774  0.00  0.00    +0.000 HD
ENDBRANCH   1  23
TORSDOF 3
ENDMDL
