MODEL 1
REMARK VINA RESULT:      -5.5      0.000      0.000
REMARK  Name = *****
REMARK  4 active torsions:
REMARK  status: ('A' for Active; 'I' for Inactive)
REMARK    1  A    between atoms: C_1  and  C_2
REMARK    2  A    between atoms: C_5  and  C_8
REMARK    3  A    between atoms: C_15  and  C_19
REMARK    4  A    between atoms: C_16  and  C_18
REMARK                            x       y       z     vdW  Elec       q    Type
REMARK                         _______ _______ _______ _____ _____    ______ ____
ROOT
ATOM      1  C   UNL     1     102.171 125.931  81.942  0.00  0.00    +0.000 C 
ATOM      2  C   UNL     1     103.123 126.496  80.888  0.00  0.00    +0.000 C 
ATOM      3  C   UNL     1     103.790 125.338  80.161  0.00  0.00    +0.000 C 
ATOM      4  C   UNL     1     104.267 124.303  81.139  0.00  0.00    +0.000 A 
ATOM      5  C   UNL     1     103.783 124.278  82.448  0.00  0.00    +0.000 A 
ATOM      6  O   UNL     1     102.880 125.180  82.941  0.00  0.00    +0.000 OA
ATOM      7  C   UNL     1     104.246 123.321  83.350  0.00  0.00    +0.000 A 
ATOM      8  C   UNL     1     105.180 122.350  82.957  0.00  0.00    +0.000 A 
ATOM      9  C   UNL     1     105.645 122.344  81.629  0.00  0.00    +0.000 A 
ATOM     10  C   UNL     1     105.185 123.325  80.734  0.00  0.00    +0.000 A 
ATOM     11  C   UNL     1     106.641 121.322  81.150  0.00  0.00    +0.000 C 
ATOM     12  C   UNL     1     105.644 121.329  83.959  0.00  0.00    +0.000 C 
ENDROOT
BRANCH   1  17
ATOM     13  C   UNL     1      99.197 130.256  84.505  0.00  0.00    +0.000 C 
ATOM     14  C   UNL     1      99.963 129.160  83.825  0.00  0.00    +0.000 A 
ATOM     15  C   UNL     1      99.290 128.113  83.186  0.00  0.00    +0.000 A 
ATOM     16  C   UNL     1     100.005 127.073  82.584  0.00  0.00    +0.000 A 
ATOM     17  C   UNL     1     101.406 127.051  82.623  0.00  0.00    +0.000 A 
ATOM     18  C   UNL     1     102.074 128.098  83.275  0.00  0.00    +0.000 A 
ATOM     19  C   UNL     1     101.361 129.137  83.876  0.00  0.00    +0.000 A 
ENDBRANCH   1  17
TORSDOF 1
ENDMDL
