REMARK  Name = *****
REMARK  1 active torsions:
REMARK  status: ('A' for Active; 'I' for Inactive)
REMARK    1  A    between atoms: C_3  and  C_13
REMARK                            x       y       z     vdW  Elec       q    Type
REMARK                         _______ _______ _______ _____ _____    ______ ____
ROOT
ATOM      1  C   UNL     1      -3.336  -0.018  -0.376  0.00  0.00    +0.000 C 
ATOM      2  C   UNL     1      -2.049   0.202  -0.057  0.00  0.00    +0.000 C 
ATOM      3  C   UNL     1      -1.487   1.489   0.504  0.00  0.00    +0.000 C 
ATOM      4  O   UNL     1      -0.250   1.835  -0.157  0.00  0.00    +0.000 OA
ATOM      5  C   UNL     1       0.685   0.833  -0.128  0.00  0.00    +0.000 A 
ATOM      6  C   UNL     1       2.025   1.216  -0.101  0.00  0.00    +0.000 A 
ATOM      7  C   UNL     1       3.026   0.243  -0.062  0.00  0.00    +0.000 A 
ATOM      8  C   UNL     1       2.689  -1.112  -0.065  0.00  0.00    +0.000 A 
ATOM      9  C   UNL     1       1.349  -1.498  -0.114  0.00  0.00    +0.000 A 
ATOM     10  C   UNL     1       0.348  -0.521  -0.147  0.00  0.00    +0.000 A 
ATOM     11  C   UNL     1      -1.070  -0.904  -0.235  0.00  0.00    +0.000 C 
ATOM     12  O   UNL     1      -1.408  -2.072  -0.424  0.00  0.00    +0.000 OA
ENDROOT
BRANCH   3  13
ATOM     13  C   UNL     1      -1.292   1.526   2.013  0.00  0.00    +0.000 A 
ATOM     14  C   UNL     1      -1.544   0.467   2.841  0.00  0.00    +0.000 A 
ATOM     15  C   UNL     1      -1.134   0.536   4.196  0.00  0.00    +0.000 A 
ATOM     16  C   UNL     1      -1.243   1.645   5.051  0.00  0.00    +0.000 A 
ATOM     17  C   UNL     1      -0.694   2.538   4.161  0.00  0.00    +0.000 A 
ATOM     18  C   UNL     1      -0.754   2.589   2.700  0.00  0.00    +0.000 A 
ATOM     19 CL   UNL     1      -1.944   0.510   6.114  0.00  0.00    +0.000 Cl
ENDBRANCH   3  13
TORSDOF 1
