MODEL 1
REMARK VINA RESULT:      -4.7      0.000      0.000
REMARK  Name = *****
REMARK  2 active torsions:
REMARK  status: ('A' for Active; 'I' for Inactive)
REMARK    1  A    between atoms: C_4  and  C_7
REMARK    2  A    between atoms: C_7  and  C_9
REMARK                            x       y       z     vdW  Elec       q    Type
REMARK                         _______ _______ _______ _____ _____    ______ ____
ROOT
ATOM      1  C   UNL     1      87.210  64.029  87.107  0.00  0.00    +0.000 C 
ATOM      2  N   UNL     1      86.803  65.383  87.536  0.00  0.00    +0.000 N 
ATOM      3  C   UNL     1      87.781  66.343  87.183  0.00  0.00    +0.000 A 
ATOM      4  C   UNL     1      87.684  67.722  87.363  0.00  0.00    +0.000 A 
ATOM      5  C   UNL     1      88.743  68.558  86.987  0.00  0.00    +0.000 A 
ATOM      6  C   UNL     1      89.911  68.023  86.437  0.00  0.00    +0.000 A 
ATOM      7  C   UNL     1      90.031  66.646  86.265  0.00  0.00    +0.000 A 
ATOM      8  C   UNL     1      88.970  65.830  86.642  0.00  0.00    +0.000 A 
ATOM      9  S   UNL     1      88.933  64.073  86.496  0.00  0.00    +0.000 S 
ATOM     10  I   UNL     1      84.876  65.805  87.702  0.00  0.00    +0.000 I 
ENDROOT
BRANCH   1  11
ATOM     11  C   UNL     1      87.143  63.040  88.277  0.00  0.00    +0.000 C 
ATOM     12  O   UNL     1      86.702  61.892  88.186  0.00  0.00    +0.000 OA
BRANCH  11  16
ATOM     13  C   UNL     1      88.236  64.414  92.187  0.00  0.00    +0.000 A 
ATOM     14  C   UNL     1      89.238  64.140  91.256  0.00  0.00    +0.000 A 
ATOM     15  C   UNL     1      88.905  63.686  89.977  0.00  0.00    +0.000 A 
ATOM     16  C   UNL     1      87.561  63.515  89.625  0.00  0.00    +0.000 A 
ATOM     17  C   UNL     1      86.560  63.773  90.572  0.00  0.00    +0.000 A 
ATOM     18  C   UNL     1      86.898  64.225  91.847  0.00  0.00    +0.000 A 
ENDBRANCH  11  16
ENDBRANCH   1  11
TORSDOF 2
ENDMDL
