REMARK  Name = *****
REMARK  2 active torsions:
REMARK  status: ('A' for Active; 'I' for Inactive)
REMARK    1  A    between atoms: C_7  and  C_9
REMARK    2  A    between atoms: C_12  and  C_13
REMARK                            x       y       z     vdW  Elec       q    Type
REMARK                         _______ _______ _______ _____ _____    ______ ____
ROOT
ATOM      1  C   UNL     1      -2.440   0.645  -0.399  0.00  0.00    +0.000 C 
ATOM      2  C   UNL     1      -1.265   1.538  -0.033  0.00  0.00    +0.000 C 
ATOM      3  C   UNL     1       0.010   0.746   0.007  0.00  0.00    +0.000 A 
ATOM      4  C   UNL     1      -0.016  -0.650   0.094  0.00  0.00    +0.000 A 
ATOM      5  C   UNL     1       1.173  -1.379   0.115  0.00  0.00    +0.000 A 
ATOM      6  C   UNL     1       2.403  -0.719   0.079  0.00  0.00    +0.000 A 
ATOM      7  C   UNL     1       2.443   0.677   0.017  0.00  0.00    +0.000 A 
ATOM      8  C   UNL     1       1.248   1.406  -0.017  0.00  0.00    +0.000 A 
ATOM      9  O   UNL     1      -1.169  -1.385   0.126  0.00  0.00    +0.000 OA
ATOM     10  C   UNL     1      -2.359  -0.639   0.428  0.00  0.00    +0.000 C 
ENDROOT
BRANCH  10  11
ATOM     11  C   UNL     1      -3.570  -1.517   0.166  0.00  0.00    +0.000 A 
ATOM     12  C   UNL     1      -4.664  -1.488   1.045  0.00  0.00    +0.000 A 
ATOM     13  C   UNL     1      -5.794  -2.271   0.800  0.00  0.00    +0.000 A 
ATOM     14  C   UNL     1      -5.847  -3.088  -0.327  0.00  0.00    +0.000 A 
ATOM     15  C   UNL     1      -4.771  -3.123  -1.212  0.00  0.00    +0.000 A 
ATOM     16  C   UNL     1      -3.641  -2.341  -0.969  0.00  0.00    +0.000 A 
ENDBRANCH  10  11
BRANCH   7  17
ATOM     17  C   UNL     1       3.704   1.360  -0.014  0.00  0.00    +0.000 C 
ATOM     18  N   UNL     1       4.722   1.916  -0.039  0.00  0.00    +0.000 NA
ENDBRANCH   7  17
TORSDOF 2
