MODEL 1
REMARK VINA RESULT:      -4.3      0.000      0.000
REMARK  Name = *****
REMARK  3 active torsions:
REMARK  status: ('A' for Active; 'I' for Inactive)
REMARK    1  A    between atoms: C_7  and  C_10
REMARK    2  A    between atoms: C_10  and  C_11
REMARK    3  A    between atoms: C_10  and  O_16
REMARK                            x       y       z     vdW  Elec       q    Type
REMARK                         _______ _______ _______ _____ _____    ______ ____
ROOT
ATOM      1  C   UNL     1      84.713  72.096  88.239  0.00  0.00    +0.000 A 
ATOM      2  C   UNL     1      83.903  72.538  87.205  0.00  0.00    +0.000 A 
ATOM      3  C   UNL     1      84.338  72.451  85.882  0.00  0.00    +0.000 A 
ATOM      4  C   UNL     1      85.611  71.908  85.611  0.00  0.00    +0.000 A 
ATOM      5  C   UNL     1      86.450  71.452  86.632  0.00  0.00    +0.000 A 
ATOM      6  C   UNL     1      85.974  71.557  87.966  0.00  0.00    +0.000 A 
ATOM      7  C   UNL     1      87.703  70.931  86.109  0.00  0.00    +0.000 A 
ATOM      8  C   UNL     1      87.748  71.044  84.731  0.00  0.00    +0.000 A 
ATOM      9  S   UNL     1      86.335  71.714  84.065  0.00  0.00    +0.000 S 
ENDROOT
BRANCH   7  10
ATOM     10  C   UNL     1      88.811  70.364  86.967  0.00  0.00    +0.000 C 
BRANCH  10  11
ATOM     11  C   UNL     1      88.956  68.866  86.836  0.00  0.00    +0.000 A 
ATOM     12  C   UNL     1      90.006  68.128  86.316  0.00  0.00    +0.000 A 
ATOM     13  C   UNL     1      89.771  66.725  86.376  0.00  0.00    +0.000 A 
ATOM     14  C   UNL     1      88.553  66.430  86.946  0.00  0.00    +0.000 A 
ATOM     15  S   UNL     1      87.701  67.838  87.403  0.00  0.00    +0.000 S 
ENDBRANCH  10  11
BRANCH  10  16
ATOM     16  O   UNL     1      90.086  70.923  86.635  0.00  0.00    +0.000 OA
ATOM     17  H   UNL     1      90.605  70.271  86.139  0.00  0.00    +0.000 HD
ENDBRANCH  10  16
ENDBRANCH   7  10
TORSDOF 3
ENDMDL
