MODEL 1
REMARK VINA RESULT:      -4.4      0.000      0.000
REMARK  Name = *****
REMARK  3 active torsions:
REMARK  status: ('A' for Active; 'I' for Inactive)
REMARK    1  A    between atoms: C_4  and  S_7
REMARK    2  A    between atoms: S_7  and  C_10
REMARK    3  A    between atoms: C_11  and  C_12
REMARK                            x       y       z     vdW  Elec       q    Type
REMARK                         _______ _______ _______ _____ _____    ______ ____
ROOT
ATOM      1  S   UNL     1     101.730 127.180  83.305  0.00  0.00    +0.000 S 
ATOM      2  O   UNL     1     101.751 126.755  84.694  0.00  0.00    +0.000 OA
ATOM      3  O   UNL     1     102.238 128.490  82.931  0.00  0.00    +0.000 OA
ENDROOT
BRANCH   1   7
ATOM      4  C   UNL     1     104.294 124.153  81.041  0.00  0.00    +0.000 A 
ATOM      5  C   UNL     1     103.761 125.254  80.366  0.00  0.00    +0.000 A 
ATOM      6  C   UNL     1     102.974 126.180  81.051  0.00  0.00    +0.000 A 
ATOM      7  C   UNL     1     102.717 125.987  82.412  0.00  0.00    +0.000 A 
ATOM      8  C   UNL     1     103.262 124.896  83.096  0.00  0.00    +0.000 A 
ATOM      9  C   UNL     1     104.047 123.976  82.403  0.00  0.00    +0.000 A 
ENDBRANCH   1   7
BRANCH   1  10
ATOM     10  C   UNL     1     100.153 126.940  82.609  0.00  0.00    +0.000 C 
ATOM     11  C   UNL     1      99.105 127.732  82.876  0.00  0.00    +0.000 C 
ATOM     12  F   UNL     1      99.938 125.891  81.777  0.00  0.00    +0.000 F 
BRANCH  11  13
ATOM     13  C   UNL     1      99.106 128.877  83.718  0.00  0.00    +0.000 A 
ATOM     14  C   UNL     1      99.350 130.209  83.432  0.00  0.00    +0.000 A 
ATOM     15  C   UNL     1      99.239 131.055  84.574  0.00  0.00    +0.000 A 
ATOM     16  C   UNL     1      98.887 130.351  85.702  0.00  0.00    +0.000 A 
ATOM     17  S   UNL     1      98.681 128.688  85.378  0.00  0.00    +0.000 S 
ENDBRANCH  11  13
ENDBRANCH   1  10
TORSDOF 3
ENDMDL
