REMARK  Name = *****
REMARK  2 active torsions:
REMARK  status: ('A' for Active; 'I' for Inactive)
REMARK    1  A    between atoms: C_2  and  C_11
REMARK    2  A    between atoms: C_2  and  O_21
REMARK                            x       y       z     vdW  Elec       q    Type
REMARK                         _______ _______ _______ _____ _____    ______ ____
ROOT
ATOM      1  C   UNL     1      -2.331   0.628  -0.466  0.00  0.00    +0.000 C 
ATOM      2  C   UNL     1      -2.349  -0.811   0.091  0.00  0.00    +0.000 C 
ATOM      3  O   UNL     1      -1.086  -1.455  -0.154  0.00  0.00    +0.000 OA
ATOM      4  C   UNL     1      -0.008  -0.634   0.041  0.00  0.00    +0.000 A 
ATOM      5  C   UNL     1       1.238  -1.257   0.113  0.00  0.00    +0.000 A 
ATOM      6  C   UNL     1       2.386  -0.496   0.336  0.00  0.00    +0.000 A 
ATOM      7  C   UNL     1       2.287   0.888   0.485  0.00  0.00    +0.000 A 
ATOM      8  C   UNL     1       1.042   1.511   0.400  0.00  0.00    +0.000 A 
ATOM      9  C   UNL     1      -0.104   0.752   0.164  0.00  0.00    +0.000 A 
ATOM     10  O   UNL     1      -1.282   1.440   0.072  0.00  0.00    +0.000 OA
ENDROOT
BRANCH   2  11
ATOM     11  C   UNL     1      -2.738  -0.888   1.576  0.00  0.00    +0.000 A 
ATOM     12  C   UNL     1      -2.429  -2.035   2.316  0.00  0.00    +0.000 A 
ATOM     13  C   UNL     1      -2.805  -2.121   3.663  0.00  0.00    +0.000 A 
ATOM     14  C   UNL     1      -2.505  -3.246   4.449  0.00  0.00    +0.000 A 
ATOM     15  C   UNL     1      -2.891  -3.302   5.790  0.00  0.00    +0.000 A 
ATOM     16  C   UNL     1      -3.582  -2.237   6.362  0.00  0.00    +0.000 A 
ATOM     17  C   UNL     1      -3.890  -1.113   5.595  0.00  0.00    +0.000 A 
ATOM     18  C   UNL     1      -3.504  -1.048   4.244  0.00  0.00    +0.000 A 
ATOM     19  C   UNL     1      -3.786   0.046   3.426  0.00  0.00    +0.000 A 
ATOM     20  N   UNL     1      -3.432   0.146   2.123  0.00  0.00    +0.000 NA
ENDBRANCH   2  11
BRANCH   2  21
ATOM     21  O   UNL     1      -3.338  -1.576  -0.622  0.00  0.00    +0.000 OA
ATOM     22  H   UNL     1      -3.137  -1.560  -1.571  0.00  0.00    +0.000 HD
ENDBRANCH   2  21
TORSDOF 2
