REMARK  Name = *****
REMARK  1 active torsions:
REMARK  status: ('A' for Active; 'I' for Inactive)
REMARK    1  A    between atoms: C_7  and  C_8
REMARK                            x       y       z     vdW  Elec       q    Type
REMARK                         _______ _______ _______ _____ _____    ______ ____
ROOT
ATOM      1  C   UNL     1       2.415   1.245   0.315  0.00  0.00    +0.000 C 
ATOM      2  C   UNL     1       2.454   2.757   0.512  0.00  0.00    +0.000 C 
ATOM      3  C   UNL     1       2.641   3.444  -0.810  0.00  0.00    +0.000 C 
ATOM      4  O   UNL     1       2.179   4.554  -1.049  0.00  0.00    +0.000 OA
ATOM      5  C   UNL     1       3.488   2.741  -1.790  0.00  0.00    +0.000 A 
ATOM      6  C   UNL     1       3.855   3.359  -2.988  0.00  0.00    +0.000 A 
ATOM      7  C   UNL     1       4.696   2.691  -3.878  0.00  0.00    +0.000 A 
ATOM      8  C   UNL     1       5.170   1.415  -3.567  0.00  0.00    +0.000 A 
ATOM      9  C   UNL     1       4.796   0.801  -2.369  0.00  0.00    +0.000 A 
ATOM     10  C   UNL     1       3.941   1.458  -1.485  0.00  0.00    +0.000 A 
ATOM     11  O   UNL     1       3.611   0.782  -0.342  0.00  0.00    +0.000 OA
ENDROOT
BRANCH   1  18
ATOM     12  C   UNL     1      -1.308  -0.811  -0.863  0.00  0.00    +0.000 C 
ATOM     13  C   UNL     1      -1.339   0.709  -0.644  0.00  0.00    +0.000 C 
ATOM     14  C   UNL     1      -0.179   0.942   0.344  0.00  0.00    +0.000 C 
ATOM     15  C   UNL     1      -0.294  -0.299   1.231  0.00  0.00    +0.000 C 
ATOM     16  C   UNL     1      -0.165  -1.268   0.058  0.00  0.00    +0.000 C 
ATOM     17  C   UNL     1       1.180  -0.838  -0.551  0.00  0.00    +0.000 C 
ATOM     18  C   UNL     1       1.156   0.707  -0.410  0.00  0.00    +0.000 C 
ENDBRANCH   1  18
TORSDOF 1
