MODEL 1
REMARK VINA RESULT:      -4.8      0.000      0.000
REMARK  Name = *****
REMARK  3 active torsions:
REMARK  status: ('A' for Active; 'I' for Inactive)
REMARK    1  A    between atoms: C_1  and  O_2
REMARK    2  A    between atoms: O_2  and  C_3
REMARK    3  A    between atoms: C_3  and  C_14
REMARK                            x       y       z     vdW  Elec       q    Type
REMARK                         _______ _______ _______ _____ _____    ______ ____
ROOT
ATOM      1  C   UNL     1      96.774 116.859  79.808  0.00  0.00    +0.000 C 
ATOM      2  C   UNL     1      97.696 116.642  78.602  0.00  0.00    +0.000 C 
ATOM      3  C   UNL     1      96.977 115.804  77.584  0.00  0.00    +0.000 C 
ATOM      4  O   UNL     1      97.191 115.910  76.380  0.00  0.00    +0.000 OA
ATOM      5  C   UNL     1      96.067 114.771  78.108  0.00  0.00    +0.000 A 
ATOM      6  C   UNL     1      95.446 113.857  77.252  0.00  0.00    +0.000 A 
ATOM      7  C   UNL     1      94.642 112.852  77.789  0.00  0.00    +0.000 A 
ATOM      8  C   UNL     1      94.470 112.757  79.171  0.00  0.00    +0.000 A 
ATOM      9  C   UNL     1      95.093 113.675  80.021  0.00  0.00    +0.000 A 
ATOM     10  C   UNL     1      95.879 114.693  79.486  0.00  0.00    +0.000 A 
ATOM     11  O   UNL     1      96.458 115.560  80.373  0.00  0.00    +0.000 OA
ENDROOT
BRANCH   1  12
ATOM     12  C   UNL     1      97.424 117.618  80.975  0.00  0.00    +0.000 A 
ATOM     13  C   UNL     1      98.101 118.826  80.705  0.00  0.00    +0.000 A 
ATOM     14  C   UNL     1      98.717 119.557  81.724  0.00  0.00    +0.000 A 
ATOM     15  C   UNL     1      98.671 119.095  83.034  0.00  0.00    +0.000 A 
ATOM     16  C   UNL     1      98.010 117.904  83.326  0.00  0.00    +0.000 A 
ATOM     17  C   UNL     1      97.392 117.171  82.307  0.00  0.00    +0.000 A 
ENDBRANCH   1  12
BRANCH   1  19
ATOM     18  C   UNL     1      94.602 117.698  80.509  0.00  0.00    +0.000 C 
ATOM     19  O   UNL     1      95.547 117.532  79.461  0.00  0.00    +0.000 OA
ENDBRANCH   1  19
TORSDOF 2
ENDMDL
