MODEL 1
REMARK VINA RESULT:      -5.1      0.000      0.000
REMARK  Name = *****
REMARK  1 active torsions:
REMARK  status: ('A' for Active; 'I' for Inactive)
REMARK    1  A    between atoms: C_3  and  C_13
REMARK                            x       y       z     vdW  Elec       q    Type
REMARK                         _______ _______ _______ _____ _____    ______ ____
ROOT
ATOM      1  C   UNL     1      87.907  67.054  87.521  0.00  0.00    +0.000 C 
ATOM      2  C   UNL     1      87.962  68.340  87.135  0.00  0.00    +0.000 C 
ATOM      3  C   UNL     1      86.874  69.358  87.332  0.00  0.00    +0.000 C 
ATOM      4  O   UNL     1      86.622  70.093  86.115  0.00  0.00    +0.000 OA
ATOM      5  C   UNL     1      87.741  70.619  85.527  0.00  0.00    +0.000 A 
ATOM      6  C   UNL     1      87.556  71.744  84.724  0.00  0.00    +0.000 A 
ATOM      7  C   UNL     1      88.651  72.335  84.088  0.00  0.00    +0.000 A 
ATOM      8  C   UNL     1      89.928  71.794  84.243  0.00  0.00    +0.000 A 
ATOM      9  C   UNL     1      90.112  70.655  85.029  0.00  0.00    +0.000 A 
ATOM     10  C   UNL     1      89.014  70.068  85.667  0.00  0.00    +0.000 A 
ATOM     11  C   UNL     1      89.182  68.829  86.446  0.00  0.00    +0.000 C 
ATOM     12  O   UNL     1      90.260  68.252  86.514  0.00  0.00    +0.000 OA
ENDROOT
BRANCH   3  13
ATOM     13  C   UNL     1      87.041  70.322  88.510  0.00  0.00    +0.000 A 
ATOM     14  C   UNL     1      86.005  71.152  88.975  0.00  0.00    +0.000 A 
ATOM     15  C   UNL     1      86.223  72.027  90.041  0.00  0.00    +0.000 A 
ATOM     16  C   UNL     1      87.469  72.102  90.657  0.00  0.00    +0.000 A 
ATOM     17  C   UNL     1      88.510  71.297  90.202  0.00  0.00    +0.000 A 
ATOM     18  C   UNL     1      88.299  70.420  89.136  0.00  0.00    +0.000 A 
ATOM     19 CL   UNL     1      84.938  73.029  90.598  0.00  0.00    +0.000 Cl
ENDBRANCH   3  13
TORSDOF 1
ENDMDL
