MODEL 1
REMARK VINA RESULT:      -4.9      0.000      0.000
REMARK  Name = *****
REMARK  3 active torsions:
REMARK  status: ('A' for Active; 'I' for Inactive)
REMARK    1  A    between atoms: C_1  and  C_2
REMARK    2  A    between atoms: C_4  and  C_12
REMARK    3  A    between atoms: C_12  and  C_13
REMARK                            x       y       z     vdW  Elec       q    Type
REMARK                         _______ _______ _______ _____ _____    ______ ____
ROOT
ATOM      1  C   UNL     1      86.949  65.258  87.721  0.00  0.00    +0.000 C 
ATOM      2  C   UNL     1      88.076  66.128  87.236  0.00  0.00    +0.000 A 
ATOM      3  C   UNL     1      88.018  67.504  87.474  0.00  0.00    +0.000 A 
ATOM      4  C   UNL     1      89.054  68.315  87.028  0.00  0.00    +0.000 A 
ATOM      5  N   UNL     1      90.130  67.825  86.374  0.00  0.00    +0.000 NA
ATOM      6  C   UNL     1      90.199  66.504  86.140  0.00  0.00    +0.000 A 
ATOM      7  C   UNL     1      91.309  66.015  85.466  0.00  0.00    +0.000 A 
ATOM      8  C   UNL     1      91.463  64.656  85.181  0.00  0.00    +0.000 A 
ATOM      9  C   UNL     1      90.482  63.757  85.578  0.00  0.00    +0.000 A 
ATOM     10  C   UNL     1      89.357  64.223  86.257  0.00  0.00    +0.000 A 
ATOM     11  C   UNL     1      89.194  65.598  86.550  0.00  0.00    +0.000 A 
ENDROOT
BRANCH   4  12
ATOM     12  C   UNL     1      89.035  69.799  87.291  0.00  0.00    +0.000 C 
BRANCH  12  13
ATOM     13  C   UNL     1      87.937  70.206  88.275  0.00  0.00    +0.000 C 
ATOM     14  C   UNL     1      86.838  71.035  87.613  0.00  0.00    +0.000 C 
ATOM     15  C   UNL     1      86.113  71.699  88.779  0.00  0.00    +0.000 C 
ATOM     16  C   UNL     1      87.123  71.760  89.926  0.00  0.00    +0.000 C 
ATOM     17  C   UNL     1      88.409  71.139  89.391  0.00  0.00    +0.000 C 
ENDBRANCH  12  13
ENDBRANCH   4  12
TORSDOF 2
ENDMDL
