MODEL 1
REMARK VINA RESULT:      -4.7      0.000      0.000
REMARK  Name = *****
REMARK  5 active torsions:
REMARK  status: ('A' for Active; 'I' for Inactive)
REMARK    1  A    between atoms: C_1  and  O_2
REMARK    2  A    between atoms: O_2  and  C_3
REMARK    3  A    between atoms: C_4  and  O_14
REMARK    4  A    between atoms: O_14  and  C_15
REMARK    5  A    between atoms: C_15  and  C_16
REMARK                            x       y       z     vdW  Elec       q    Type
REMARK                         _______ _______ _______ _____ _____    ______ ____
ROOT
ATOM      1  C   UNL     1      89.826  67.487  84.989  0.00  0.00    +0.000 A 
ATOM      2  C   UNL     1      89.293  67.177  86.251  0.00  0.00    +0.000 A 
ATOM      3  C   UNL     1      88.878  68.221  87.089  0.00  0.00    +0.000 A 
ATOM      4  C   UNL     1      89.035  69.558  86.700  0.00  0.00    +0.000 A 
ATOM      5  C   UNL     1      89.608  69.867  85.466  0.00  0.00    +0.000 A 
ATOM      6  C   UNL     1      89.998  68.828  84.625  0.00  0.00    +0.000 A 
ATOM      7  O   UNL     1      90.573  69.110  83.364  0.00  0.00    +0.000 OA
ATOM      8  C   UNL     1      90.777  70.411  82.932  0.00  0.00    +0.000 A 
ATOM      9  O   UNL     1      91.272  70.676  81.843  0.00  0.00    +0.000 OA
ATOM     10  C   UNL     1      90.360  71.487  83.847  0.00  0.00    +0.000 A 
ATOM     11  C   UNL     1      89.807  71.242  85.039  0.00  0.00    +0.000 A 
ENDROOT
BRANCH   1  13
ATOM     12  C   UNL     1      89.252  66.037  83.252  0.00  0.00    +0.000 C 
ATOM     13  O   UNL     1      90.279  66.540  84.105  0.00  0.00    +0.000 OA
ENDBRANCH   1  13
BRANCH   2  14
ATOM     14  O   UNL     1      89.206  65.851  86.584  0.00  0.00    +0.000 OA
BRANCH  14  15
ATOM     15  C   UNL     1      87.907  65.332  86.873  0.00  0.00    +0.000 C 
BRANCH  15  16
ATOM     16  C   UNL     1      87.827  64.946  88.331  0.00  0.00    +0.000 A 
ATOM     17  C   UNL     1      86.762  65.397  89.125  0.00  0.00    +0.000 A 
ATOM     18  C   UNL     1      86.665  65.019  90.466  0.00  0.00    +0.000 A 
ATOM     19  C   UNL     1      87.627  64.180  91.025  0.00  0.00    +0.000 A 
ATOM     20  C   UNL     1      88.684  63.716  90.245  0.00  0.00    +0.000 A 
ATOM     21  C   UNL     1      88.780  64.090  88.904  0.00  0.00    +0.000 A 
ENDBRANCH  15  16
ENDBRANCH  14  15
ENDBRANCH   2  14
TORSDOF 4
ENDMDL
