MODEL 1
REMARK VINA RESULT:      -4.6      0.000      0.000
REMARK  Name = *****
REMARK  3 active torsions:
REMARK  status: ('A' for Active; 'I' for Inactive)
REMARK    1  A    between atoms: C_8  and  C_10
REMARK    2  A    between atoms: C_10  and  O_11
REMARK    3  A    between atoms: O_11  and  C_12
REMARK                            x       y       z     vdW  Elec       q    Type
REMARK                         _______ _______ _______ _____ _____    ______ ____
ROOT
ATOM      1  C   UNL     1      86.499  62.999  90.476  0.00  0.00    +0.000 A 
ATOM      2  C   UNL     1      86.063  62.045  89.562  0.00  0.00    +0.000 A 
ATOM      3  C   UNL     1      86.455  62.105  88.221  0.00  0.00    +0.000 A 
ATOM      4  C   UNL     1      87.299  63.155  87.821  0.00  0.00    +0.000 A 
ATOM      5  C   UNL     1      87.748  64.124  88.719  0.00  0.00    +0.000 A 
ATOM      6  C   UNL     1      87.340  64.039  90.066  0.00  0.00    +0.000 A 
ATOM      7  N   UNL     1      88.576  65.095  88.181  0.00  0.00    +0.000 NA
ATOM      8  C   UNL     1      88.743  64.882  86.892  0.00  0.00    +0.000 A 
ATOM      9  S   UNL     1      87.950  63.491  86.263  0.00  0.00    +0.000 S 
ENDROOT
BRANCH   8  10
ATOM     10  C   UNL     1      89.596  65.735  85.998  0.00  0.00    +0.000 C 
BRANCH  10  11
ATOM     11  O   UNL     1      90.081  66.827  86.781  0.00  0.00    +0.000 OA
BRANCH  11  12
ATOM     12  C   UNL     1      89.894  68.084  86.276  0.00  0.00    +0.000 A 
ATOM     13  C   UNL     1      89.661  69.243  87.019  0.00  0.00    +0.000 A 
ATOM     14  C   UNL     1      89.483  70.469  86.368  0.00  0.00    +0.000 A 
ATOM     15  C   UNL     1      89.539  70.534  84.976  0.00  0.00    +0.000 A 
ATOM     16  C   UNL     1      89.768  69.383  84.228  0.00  0.00    +0.000 A 
ATOM     17  C   UNL     1      89.943  68.162  84.880  0.00  0.00    +0.000 A 
ATOM     18 BR   UNL     1      89.300  72.193  84.104  0.00  0.00    +0.000 Br
ENDBRANCH  11  12
ENDBRANCH  10  11
ENDBRANCH   8  10
TORSDOF 3
ENDMDL
