REMARK  Name = *****
REMARK  3 active torsions:
REMARK  status: ('A' for Active; 'I' for Inactive)
REMARK    1  A    between atoms: C_9  and  C_11
REMARK    2  A    between atoms: C_11  and  O_12
REMARK    3  A    between atoms: O_12  and  C_13
REMARK                            x       y       z     vdW  Elec       q    Type
REMARK                         _______ _______ _______ _____ _____    ______ ____
ROOT
ATOM      1  C   UNL     1      -2.451   0.730  -0.071  0.00  0.00    +0.000 A 
ATOM      2  C   UNL     1      -2.453  -0.612  -0.430  0.00  0.00    +0.000 A 
ATOM      3  C   UNL     1      -1.250  -1.319  -0.459  0.00  0.00    +0.000 A 
ATOM      4  C   UNL     1      -0.044  -0.711  -0.133  0.00  0.00    +0.000 A 
ATOM      5  C   UNL     1      -0.042   0.657   0.235  0.00  0.00    +0.000 A 
ATOM      6  C   UNL     1      -1.245   1.352   0.258  0.00  0.00    +0.000 A 
ATOM      7  N   UNL     1       1.100   1.293   0.561  0.00  0.00    +0.000 NA
ATOM      8  C   UNL     1       2.230   0.552   0.527  0.00  0.00    +0.000 A 
ATOM      9  C   UNL     1       2.242  -0.789   0.173  0.00  0.00    +0.000 A 
ATOM     10  N   UNL     1       1.096  -1.430  -0.174  0.00  0.00    +0.000 NA
ENDROOT
BRANCH   9  11
ATOM     11  C   UNL     1       3.534  -1.563   0.116  0.00  0.00    +0.000 C 
BRANCH  11  12
ATOM     12  O   UNL     1       4.259  -1.372   1.333  0.00  0.00    +0.000 OA
BRANCH  12  13
ATOM     13  C   UNL     1       5.431  -2.060   1.474  0.00  0.00    +0.000 A 
ATOM     14  C   UNL     1       6.043  -2.851   0.500  0.00  0.00    +0.000 A 
ATOM     15  C   UNL     1       7.251  -3.500   0.781  0.00  0.00    +0.000 A 
ATOM     16  C   UNL     1       7.845  -3.358   2.033  0.00  0.00    +0.000 A 
ATOM     17  C   UNL     1       7.244  -2.569   3.009  0.00  0.00    +0.000 A 
ATOM     18  C   UNL     1       6.039  -1.920   2.725  0.00  0.00    +0.000 A 
ATOM     19 CL   UNL     1       9.328  -4.160   2.374  0.00  0.00    +0.000 Cl
ENDBRANCH  12  13
ENDBRANCH  11  12
ENDBRANCH   9  11
TORSDOF 3
