MODEL 1
REMARK VINA RESULT:      -4.3      0.000      0.000
REMARK  Name = *****
REMARK  4 active torsions:
REMARK  status: ('A' for Active; 'I' for Inactive)
REMARK    1  A    between atoms: C_1  and  C_2
REMARK    2  A    between atoms: C_2  and  C_14
REMARK    3  A    between atoms: C_10  and  O_12
REMARK    4  A    between atoms: O_12  and  C_13
REMARK                            x       y       z     vdW  Elec       q    Type
REMARK                         _______ _______ _______ _____ _____    ______ ____
ROOT
ATOM      1  C   UNL     1     102.029 129.251  84.106  0.00  0.00    +0.000 C 
ATOM      2  C   UNL     1     101.995 127.766  83.705  0.00  0.00    +0.000 C 
ATOM      3  C   UNL     1     102.843 126.955  84.702  0.00  0.00    +0.000 C 
ATOM      4  C   UNL     1     102.976 125.507  84.252  0.00  0.00    +0.000 C 
ATOM      5  C   UNL     1     103.356 125.452  82.803  0.00  0.00    +0.000 A 
ATOM      6  C   UNL     1     103.141 126.549  81.970  0.00  0.00    +0.000 A 
ATOM      7  O   UNL     1     102.579 127.728  82.381  0.00  0.00    +0.000 OA
ATOM      8  C   UNL     1     103.509 126.491  80.627  0.00  0.00    +0.000 A 
ATOM      9  C   UNL     1     104.068 125.325  80.105  0.00  0.00    +0.000 A 
ATOM     10  C   UNL     1     104.265 124.207  80.919  0.00  0.00    +0.000 A 
ATOM     11  C   UNL     1     103.907 124.275  82.267  0.00  0.00    +0.000 A 
ENDROOT
BRANCH   2  12
ATOM     12  C   UNL     1     100.539 127.304  83.599  0.00  0.00    +0.000 A 
ATOM     13  C   UNL     1      99.791 127.047  82.461  0.00  0.00    +0.000 A 
ATOM     14  C   UNL     1      98.457 126.639  82.749  0.00  0.00    +0.000 A 
ATOM     15  C   UNL     1      98.212 126.607  84.101  0.00  0.00    +0.000 A 
ATOM     16  S   UNL     1      99.578 127.070  85.012  0.00  0.00    +0.000 S 
ENDBRANCH   2  12
BRANCH  10  17
ATOM     17  O   UNL     1     104.810 123.127  80.283  0.00  0.00    +0.000 OA
ATOM     18  C   UNL     1     104.682 121.867  80.930  0.00  0.00    +0.000 C 
ENDBRANCH  10  17
TORSDOF 2
ENDMDL
