REMARK  Name = *****
REMARK  3 active torsions:
REMARK  status: ('A' for Active; 'I' for Inactive)
REMARK    1  A    between atoms: N_4  and  C_15
REMARK    2  A    between atoms: C_7  and  C_8
REMARK    3  A    between atoms: C_7  and  O_14
REMARK                            x       y       z     vdW  Elec       q    Type
REMARK                         _______ _______ _______ _____ _____    ______ ____
ROOT
ATOM      1  C   UNL     1       1.033  -1.098   0.520  0.00  0.00    +0.000 C 
ATOM      2  C   UNL     1      -0.398  -1.362   0.191  0.00  0.00    +0.000 C 
ATOM      3  C   UNL     1      -1.271  -0.377  -0.035  0.00  0.00    +0.000 C 
ATOM      4  N   UNL     1      -0.948   0.972   0.054  0.00  0.00    +0.000 N 
ATOM      5  C   UNL     1       0.380   1.372   0.323  0.00  0.00    +0.000 C 
ATOM      6  O   UNL     1       0.712   2.501   0.715  0.00  0.00    +0.000 OA
ATOM      7  C   UNL     1       1.501   0.312   0.127  0.00  0.00    +0.000 C 
ENDROOT
BRANCH   4   8
ATOM      8  C   UNL     1      -1.978   1.983  -0.041  0.00  0.00    +0.000 A 
ATOM      9  C   UNL     1      -1.701   3.259  -0.558  0.00  0.00    +0.000 A 
ATOM     10  C   UNL     1      -2.702   4.232  -0.667  0.00  0.00    +0.000 A 
ATOM     11  C   UNL     1      -3.998   3.942  -0.256  0.00  0.00    +0.000 A 
ATOM     12  C   UNL     1      -4.301   2.687   0.259  0.00  0.00    +0.000 A 
ATOM     13  C   UNL     1      -3.299   1.713   0.360  0.00  0.00    +0.000 A 
ATOM     14 CL   UNL     1      -5.228   5.137  -0.383  0.00  0.00    +0.000 Cl
ENDBRANCH   4   8
BRANCH   7  15
ATOM     15  C   UNL     1       2.086   0.424  -1.291  0.00  0.00    +0.000 A 
ATOM     16  C   UNL     1       3.210   1.235  -1.541  0.00  0.00    +0.000 A 
ATOM     17  C   UNL     1       3.742   1.367  -2.827  0.00  0.00    +0.000 A 
ATOM     18  C   UNL     1       3.155   0.700  -3.895  0.00  0.00    +0.000 A 
ATOM     19  C   UNL     1       2.035  -0.096  -3.679  0.00  0.00    +0.000 A 
ATOM     20  C   UNL     1       1.503  -0.229  -2.392  0.00  0.00    +0.000 A 
ENDBRANCH   7  15
BRANCH   7  21
ATOM     21  O   UNL     1       2.554   0.634   1.070  0.00  0.00    +0.000 OA
ATOM     22  H   UNL     1       2.209   0.571   1.974  0.00  0.00    +0.000 HD
ENDBRANCH   7  21
TORSDOF 3
