MODEL 1
REMARK VINA RESULT:      -4.7      0.000      0.000
REMARK  Name = *****
REMARK  3 active torsions:
REMARK  status: ('A' for Active; 'I' for Inactive)
REMARK    1  A    between atoms: C_6  and  C_11
REMARK    2  A    between atoms: C_6  and  O_17
REMARK    3  A    between atoms: C_12  and  C_13
REMARK                            x       y       z     vdW  Elec       q    Type
REMARK                         _______ _______ _______ _____ _____    ______ ____
ROOT
ATOM      1  C   UNL     1      99.502 128.895  84.289  0.00  0.00    +0.000 C 
ATOM      2  C   UNL     1      98.736 128.114  83.225  0.00  0.00    +0.000 C 
ATOM      3  C   UNL     1      99.491 126.862  82.786  0.00  0.00    +0.000 C 
ATOM      4  C   UNL     1     100.914 127.202  82.315  0.00  0.00    +0.000 C 
ATOM      5  C   UNL     1     101.670 125.931  81.894  0.00  0.00    +0.000 C 
ATOM      6  C   UNL     1     103.121 126.214  81.464  0.00  0.00    +0.000 C 
ATOM      7  C   UNL     1     103.870 127.048  82.517  0.00  0.00    +0.000 C 
ATOM      8  C   UNL     1     103.102 128.301  82.947  0.00  0.00    +0.000 C 
ATOM      9  C   UNL     1     101.683 127.959  83.414  0.00  0.00    +0.000 C 
ATOM     10  C   UNL     1     100.924 129.223  83.837  0.00  0.00    +0.000 C 
ENDROOT
BRANCH   6  11
ATOM     11  C   UNL     1     103.832 124.942  81.236  0.00  0.00    +0.000 C 
ATOM     12  C   UNL     1     104.403 123.902  81.034  0.00  0.00    +0.000 C 
BRANCH  12  13
ATOM     13  C   UNL     1     105.087 122.644  80.776  0.00  0.00    +0.000 C 
ATOM     14  F   UNL     1     105.807 122.262  81.856  0.00  0.00    +0.000 F 
ATOM     15  F   UNL     1     104.204 121.660  80.498  0.00  0.00    +0.000 F 
ATOM     16  F   UNL     1     105.936 122.756  79.730  0.00  0.00    +0.000 F 
ENDBRANCH  12  13
ENDBRANCH   6  11
BRANCH   6  17
ATOM     17  O   UNL     1     103.118 126.911  80.219  0.00  0.00    +0.000 OA
ATOM     18  H   UNL     1     102.439 127.603  80.238  0.00  0.00    +0.000 HD
ENDBRANCH   6  17
TORSDOF 3
ENDMDL
