MODEL 1
REMARK VINA RESULT:      -4.2      0.000      0.000
REMARK  Name = *****
REMARK  7 active torsions:
REMARK  status: ('A' for Active; 'I' for Inactive)
REMARK    1  A    between atoms: C_1  and  C_2
REMARK    2  A    between atoms: N_4  and  C_21
REMARK    3  A    between atoms: C_6  and  C_7
REMARK    4  A    between atoms: C_7  and  N_8
REMARK    5  A    between atoms: N_8  and  C_9
REMARK    6  A    between atoms: N_8  and  S_10
REMARK    7  A    between atoms: S_10  and  C_13
REMARK                            x       y       z     vdW  Elec       q    Type
REMARK                         _______ _______ _______ _____ _____    ______ ____
ROOT
ATOM      1  N   UNL     1      88.211  68.649  86.970  0.00  0.00    +0.000 NA
ATOM      2  C   UNL     1      87.640  67.406  87.547  0.00  0.00    +0.000 C 
ENDROOT
BRANCH   1   3
ATOM      3  S   UNL     1      88.025  69.992  88.015  0.00  0.00    +0.000 S 
ATOM      4  O   UNL     1      87.483  69.529  89.273  0.00  0.00    +0.000 OA
ATOM      5  O   UNL     1      89.261  70.746  87.962  0.00  0.00    +0.000 OA
BRANCH   3   6
ATOM      6  C   UNL     1      86.750  70.945  87.225  0.00  0.00    +0.000 A 
ATOM      7  C   UNL     1      86.761  71.062  85.830  0.00  0.00    +0.000 A 
ATOM      8  C   UNL     1      85.759  71.797  85.196  0.00  0.00    +0.000 A 
ATOM      9  C   UNL     1      84.760  72.396  85.959  0.00  0.00    +0.000 A 
ATOM     10  C   UNL     1      84.738  72.271  87.345  0.00  0.00    +0.000 A 
ATOM     11  C   UNL     1      85.736  71.537  87.989  0.00  0.00    +0.000 A 
ATOM     12  F   UNL     1      83.800  73.102  85.347  0.00  0.00    +0.000 F 
ENDBRANCH   3   6
ENDBRANCH   1   3
BRANCH   1  13
ATOM     13  C   UNL     1      89.609  68.466  86.492  0.00  0.00    +0.000 C 
BRANCH  13  19
ATOM     14  C   UNL     1      89.266  66.106  84.276  0.00  0.00    +0.000 C 
ATOM     15  C   UNL     1      89.525  67.550  84.039  0.00  0.00    +0.000 A 
ATOM     16  N   UNL     1      89.648  68.007  82.786  0.00  0.00    +0.000 NA
ATOM     17  N   UNL     1      89.878  69.328  82.937  0.00  0.00    +0.000 N 
ATOM     18  C   UNL     1      89.912  69.703  84.244  0.00  0.00    +0.000 A 
ATOM     19  C   UNL     1      89.671  68.587  85.009  0.00  0.00    +0.000 A 
ATOM     20 CL   UNL     1      90.221  71.318  84.681  0.00  0.00    +0.000 Cl
ATOM     21  C   UNL     1      90.063  70.151  81.766  0.00  0.00    +0.000 C 
ENDBRANCH  13  19
ENDBRANCH   1  13
TORSDOF 4
ENDMDL
