MODEL 1
REMARK VINA RESULT:      -4.9      0.000      0.000
REMARK  Name = *****
REMARK  4 active torsions:
REMARK  status: ('A' for Active; 'I' for Inactive)
REMARK    1  A    between atoms: C_1  and  N_2
REMARK    2  A    between atoms: C_10  and  C_13
REMARK    3  A    between atoms: C_13  and  C_14
REMARK    4  A    between atoms: C_13  and  O_20
REMARK                            x       y       z     vdW  Elec       q    Type
REMARK                         _______ _______ _______ _____ _____    ______ ____
ROOT
ATOM      1  C   UNL     1      88.544  62.624  84.897  0.00  0.00    +0.000 C 
ATOM      2  N   UNL     1      88.407  63.845  85.644  0.00  0.00    +0.000 N 
ATOM      3  C   UNL     1      87.923  63.918  86.953  0.00  0.00    +0.000 A 
ATOM      4  C   UNL     1      87.915  65.246  87.381  0.00  0.00    +0.000 A 
ATOM      5  C   UNL     1      87.442  65.589  88.638  0.00  0.00    +0.000 A 
ATOM      6  C   UNL     1      86.999  64.561  89.472  0.00  0.00    +0.000 A 
ATOM      7  C   UNL     1      87.022  63.222  89.045  0.00  0.00    +0.000 A 
ATOM      8  C   UNL     1      87.486  62.890  87.768  0.00  0.00    +0.000 A 
ATOM      9 CL   UNL     1      86.419  64.936  91.049  0.00  0.00    +0.000 Cl
ATOM     10  C   UNL     1      88.442  66.139  86.283  0.00  0.00    +0.000 C 
ATOM     11  C   UNL     1      88.736  65.116  85.153  0.00  0.00    +0.000 C 
ATOM     12  O   UNL     1      89.167  65.373  84.037  0.00  0.00    +0.000 OA
ATOM     13  F   UNL     1      87.485  67.031  85.870  0.00  0.00    +0.000 F 
ENDROOT
BRANCH  10  14
ATOM     14  C   UNL     1      89.736  66.930  86.607  0.00  0.00    +0.000 C 
BRANCH  14  15
ATOM     15  C   UNL     1      89.782  68.369  86.116  0.00  0.00    +0.000 A 
ATOM     16  C   UNL     1      90.042  68.679  84.771  0.00  0.00    +0.000 A 
ATOM     17  C   UNL     1      90.062  70.004  84.336  0.00  0.00    +0.000 A 
ATOM     18  C   UNL     1      89.825  71.039  85.239  0.00  0.00    +0.000 A 
ATOM     19  C   UNL     1      89.568  70.748  86.576  0.00  0.00    +0.000 A 
ATOM     20  C   UNL     1      89.547  69.423  87.013  0.00  0.00    +0.000 A 
ENDBRANCH  14  15
BRANCH  14  21
ATOM     21  O   UNL     1      90.908  66.243  86.122  0.00  0.00    +0.000 OA
ATOM     22  H   UNL     1      91.682  66.518  86.639  0.00  0.00    +0.000 HD
ENDBRANCH  14  21
ENDBRANCH  10  14
TORSDOF 3
ENDMDL
