REMARK  Name = *****
REMARK  2 active torsions:
REMARK  status: ('A' for Active; 'I' for Inactive)
REMARK    1  A    between atoms: C_2  and  C_12
REMARK    2  A    between atoms: C_12  and  C_13
REMARK                            x       y       z     vdW  Elec       q    Type
REMARK                         _______ _______ _______ _____ _____    ______ ____
ROOT
ATOM      1  C   UNL     1      -2.351   0.588  -0.739  0.00  0.00    +0.000 C 
ATOM      2  C   UNL     1      -1.313   1.414   0.025  0.00  0.00    +0.000 C 
ATOM      3  C   UNL     1       0.021   0.684   0.031  0.00  0.00    +0.000 A 
ATOM      4  C   UNL     1       1.214   1.422   0.059  0.00  0.00    +0.000 A 
ATOM      5  C   UNL     1       2.449   0.775   0.083  0.00  0.00    +0.000 A 
ATOM      6  C   UNL     1       2.505  -0.616   0.086  0.00  0.00    +0.000 A 
ATOM      7  C   UNL     1       1.327  -1.361   0.063  0.00  0.00    +0.000 A 
ATOM      8  C   UNL     1       0.077  -0.723   0.033  0.00  0.00    +0.000 A 
ATOM      9  C   UNL     1      -1.171  -1.573   0.015  0.00  0.00    +0.000 C 
ATOM     10  C   UNL     1      -2.454  -0.787  -0.131  0.00  0.00    +0.000 C 
ATOM     11  O   UNL     1      -3.546  -1.284   0.151  0.00  0.00    +0.000 OA
ENDROOT
BRANCH   2  12
ATOM     12  C   UNL     1      -1.733   1.745   1.476  0.00  0.00    +0.000 C 
BRANCH  12  13
ATOM     13  C   UNL     1      -2.947   2.639   1.562  0.00  0.00    +0.000 A 
ATOM     14  C   UNL     1      -4.207   2.102   1.859  0.00  0.00    +0.000 A 
ATOM     15  C   UNL     1      -5.330   2.929   1.922  0.00  0.00    +0.000 A 
ATOM     16  C   UNL     1      -5.204   4.297   1.691  0.00  0.00    +0.000 A 
ATOM     17  C   UNL     1      -3.956   4.841   1.396  0.00  0.00    +0.000 A 
ATOM     18  C   UNL     1      -2.832   4.017   1.330  0.00  0.00    +0.000 A 
ENDBRANCH  12  13
ENDBRANCH   2  12
TORSDOF 2
