REMARK  Name = *****
REMARK  2 active torsions:
REMARK  status: ('A' for Active; 'I' for Inactive)
REMARK    1  A    between atoms: C_1  and  C_2
REMARK    2  A    between atoms: C_10  and  C_12
REMARK                            x       y       z     vdW  Elec       q    Type
REMARK                         _______ _______ _______ _____ _____    ______ ____
ROOT
ATOM      1  C   UNL     1       1.152   0.181   0.022  0.00  0.00    +0.000 C 
ATOM      2  C   UNL     1       2.652   0.164   0.007  0.00  0.00    +0.000 A 
ATOM      3  C   UNL     1       3.385   1.358  -0.028  0.00  0.00    +0.000 A 
ATOM      4  C   UNL     1       4.779   1.326  -0.032  0.00  0.00    +0.000 A 
ATOM      5  C   UNL     1       5.453   0.102  -0.028  0.00  0.00    +0.000 A 
ATOM      6  C   UNL     1       4.734  -1.088   0.026  0.00  0.00    +0.000 A 
ATOM      7  C   UNL     1       3.337  -1.058   0.042  0.00  0.00    +0.000 A 
ATOM      8  O   UNL     1       6.820  -0.005  -0.066  0.00  0.00    +0.000 OA
ATOM      9  C   UNL     1       7.426   1.228  -0.476  0.00  0.00    +0.000 C 
ATOM     10  C   UNL     1       6.814   2.409   0.280  0.00  0.00    +0.000 C 
ATOM     11  O   UNL     1       5.420   2.539  -0.048  0.00  0.00    +0.000 OA
ENDROOT
BRANCH  10  12
ATOM     12  C   UNL     1       7.533   3.703  -0.056  0.00  0.00    +0.000 A 
ATOM     13  C   UNL     1       7.200   4.451  -1.197  0.00  0.00    +0.000 A 
ATOM     14  C   UNL     1       7.890   5.625  -1.506  0.00  0.00    +0.000 A 
ATOM     15  C   UNL     1       8.923   6.059  -0.679  0.00  0.00    +0.000 A 
ATOM     16  C   UNL     1       9.273   5.327   0.453  0.00  0.00    +0.000 A 
ATOM     17  C   UNL     1       8.582   4.153   0.763  0.00  0.00    +0.000 A 
ATOM     18 CL   UNL     1       9.776   7.504  -1.061  0.00  0.00    +0.000 Cl
ENDBRANCH  10  12
TORSDOF 1
