MODEL 1
REMARK VINA RESULT:      -5.4      0.000      0.000
REMARK  Name = *****
REMARK  4 active torsions:
REMARK  status: ('A' for Active; 'I' for Inactive)
REMARK    1  A    between atoms: C_1  and  C_2
REMARK    2  A    between atoms: C_4  and  C_19
REMARK    3  A    between atoms: C_7  and  C_11
REMARK    4  A    between atoms: C_7  and  O_18
REMARK                            x       y       z     vdW  Elec       q    Type
REMARK                         _______ _______ _______ _____ _____    ______ ____
ROOT
ATOM      1  C   UNL     1     100.220 131.575  84.754  0.00  0.00    +0.000 C 
ATOM      2  C   UNL     1     100.343 130.187  84.198  0.00  0.00    +0.000 A 
ATOM      3  C   UNL     1      99.212 129.520  83.684  0.00  0.00    +0.000 A 
ATOM      4  C   UNL     1      99.307 128.236  83.126  0.00  0.00    +0.000 A 
ATOM      5  C   UNL     1     100.560 127.633  83.106  0.00  0.00    +0.000 A 
ATOM      6  C   UNL     1     100.932 126.287  82.544  0.00  0.00    +0.000 C 
ATOM      7  C   UNL     1     102.351 126.061  83.141  0.00  0.00    +0.000 C 
ATOM      8  C   UNL     1     102.935 127.473  83.427  0.00  0.00    +0.000 C 
ATOM      9  C   UNL     1     101.689 128.294  83.603  0.00  0.00    +0.000 A 
ATOM     10  C   UNL     1     101.598 129.568  84.141  0.00  0.00    +0.000 A 
ATOM     11  C   UNL     1      98.094 127.540  82.587  0.00  0.00    +0.000 C 
ENDROOT
BRANCH   7  12
ATOM     12  C   UNL     1     103.246 125.226  82.232  0.00  0.00    +0.000 A 
ATOM     13  C   UNL     1     103.901 124.083  82.721  0.00  0.00    +0.000 A 
ATOM     14  C   UNL     1     104.719 123.320  81.890  0.00  0.00    +0.000 A 
ATOM     15  C   UNL     1     104.910 123.666  80.560  0.00  0.00    +0.000 A 
ATOM     16  C   UNL     1     104.272 124.793  80.053  0.00  0.00    +0.000 A 
ATOM     17  C   UNL     1     103.449 125.565  80.881  0.00  0.00    +0.000 A 
ATOM     18  F   UNL     1     105.330 122.237  82.385  0.00  0.00    +0.000 F 
ENDBRANCH   7  12
BRANCH   7  19
ATOM     19  O   UNL     1     102.193 125.384  84.406  0.00  0.00    +0.000 OA
ATOM     20  H   UNL     1     102.738 124.582  84.415  0.00  0.00    +0.000 HD
ENDBRANCH   7  19
TORSDOF 2
ENDMDL
