REMARK  Name = *****
REMARK  4 active torsions:
REMARK  status: ('A' for Active; 'I' for Inactive)
REMARK    1  A    between atoms: C_1  and  C_2
REMARK    2  A    between atoms: C_4  and  O_12
REMARK    3  A    between atoms: O_12  and  C_13
REMARK    4  A    between atoms: C_13  and  C_14
REMARK                            x       y       z     vdW  Elec       q    Type
REMARK                         _______ _______ _______ _____ _____    ______ ____
ROOT
ATOM      1  C   UNL     1       0.445   0.595  -0.068  0.00  0.00    +0.000 C 
ATOM      2  C   UNL     1       1.915   0.328   0.031  0.00  0.00    +0.000 C 
ATOM      3  C   UNL     1       2.410  -0.902   0.234  0.00  0.00    +0.000 C 
ATOM      4  C   UNL     1       3.873  -1.208   0.331  0.00  0.00    +0.000 C 
ATOM      5  O   UNL     1       4.728  -0.078   0.527  0.00  0.00    +0.000 OA
ATOM      6  C   UNL     1       4.251   1.146   0.150  0.00  0.00    +0.000 A 
ATOM      7  C   UNL     1       5.207   2.163   0.072  0.00  0.00    +0.000 A 
ATOM      8  C   UNL     1       4.830   3.456  -0.280  0.00  0.00    +0.000 A 
ATOM      9  C   UNL     1       3.492   3.735  -0.544  0.00  0.00    +0.000 A 
ATOM     10  C   UNL     1       2.533   2.722  -0.452  0.00  0.00    +0.000 A 
ATOM     11  C   UNL     1       2.898   1.413  -0.102  0.00  0.00    +0.000 A 
ENDROOT
BRANCH   4  12
ATOM     12  O   UNL     1       4.010  -2.132   1.412  0.00  0.00    +0.000 OA
BRANCH  12  13
ATOM     13  C   UNL     1       5.318  -2.695   1.465  0.00  0.00    +0.000 C 
BRANCH  13  14
ATOM     14  C   UNL     1       5.391  -3.688   2.599  0.00  0.00    +0.000 A 
ATOM     15  C   UNL     1       4.895  -3.358   3.870  0.00  0.00    +0.000 A 
ATOM     16  C   UNL     1       4.995  -4.262   4.929  0.00  0.00    +0.000 A 
ATOM     17  C   UNL     1       5.600  -5.501   4.733  0.00  0.00    +0.000 A 
ATOM     18  C   UNL     1       6.107  -5.837   3.479  0.00  0.00    +0.000 A 
ATOM     19  C   UNL     1       6.007  -4.934   2.418  0.00  0.00    +0.000 A 
ENDBRANCH  13  14
ENDBRANCH  12  13
ENDBRANCH   4  12
TORSDOF 3
