REMARK  Name = *****
REMARK  4 active torsions:
REMARK  status: ('A' for Active; 'I' for Inactive)
REMARK    1  A    between atoms: C_1  and  N_2
REMARK    2  A    between atoms: C_10  and  C_13
REMARK    3  A    between atoms: C_13  and  C_14
REMARK    4  A    between atoms: C_13  and  O_20
REMARK                            x       y       z     vdW  Elec       q    Type
REMARK                         _______ _______ _______ _____ _____    ______ ____
ROOT
ATOM      1  C   UNL     1       0.973   0.269  -0.175  0.00  0.00    +0.000 C 
ATOM      2  N   UNL     1       2.400   0.107  -0.069  0.00  0.00    +0.000 N 
ATOM      3  C   UNL     1       3.052  -1.128  -0.062  0.00  0.00    +0.000 A 
ATOM      4  C   UNL     1       4.412  -0.943   0.197  0.00  0.00    +0.000 A 
ATOM      5  C   UNL     1       5.234  -2.043   0.377  0.00  0.00    +0.000 A 
ATOM      6  C   UNL     1       4.690  -3.323   0.222  0.00  0.00    +0.000 A 
ATOM      7  C   UNL     1       3.331  -3.493  -0.085  0.00  0.00    +0.000 A 
ATOM      8  C   UNL     1       2.493  -2.385  -0.218  0.00  0.00    +0.000 A 
ATOM      9 CL   UNL     1       6.880  -1.896   0.849  0.00  0.00    +0.000 Cl
ATOM     10  C   UNL     1       4.716   0.537   0.288  0.00  0.00    +0.000 C 
ATOM     11  C   UNL     1       3.286   1.145   0.247  0.00  0.00    +0.000 C 
ATOM     12  O   UNL     1       2.972   2.310   0.442  0.00  0.00    +0.000 OA
ATOM     13  F   UNL     1       5.379   0.847   1.440  0.00  0.00    +0.000 F 
ENDROOT
BRANCH  10  14
ATOM     14  C   UNL     1       5.485   1.072  -0.959  0.00  0.00    +0.000 C 
BRANCH  14  15
ATOM     15  C   UNL     1       5.814   2.554  -0.947  0.00  0.00    +0.000 A 
ATOM     16  C   UNL     1       6.566   3.137   0.085  0.00  0.00    +0.000 A 
ATOM     17  C   UNL     1       6.865   4.501   0.069  0.00  0.00    +0.000 A 
ATOM     18  C   UNL     1       6.424   5.301  -0.983  0.00  0.00    +0.000 A 
ATOM     19  C   UNL     1       5.686   4.737  -2.020  0.00  0.00    +0.000 A 
ATOM     20  C   UNL     1       5.386   3.373  -2.005  0.00  0.00    +0.000 A 
ENDBRANCH  14  15
BRANCH  14  21
ATOM     21  O   UNL     1       6.724   0.387  -1.195  0.00  0.00    +0.000 OA
ATOM     22  H   UNL     1       7.343   0.580  -0.473  0.00  0.00    +0.000 HD
ENDBRANCH  14  21
ENDBRANCH  10  14
TORSDOF 3
