MODEL 1
REMARK VINA RESULT:      -5.1      0.000      0.000
REMARK  Name = *****
REMARK  4 active torsions:
REMARK  status: ('A' for Active; 'I' for Inactive)
REMARK    1  A    between atoms: C_1  and  C_2
REMARK    2  A    between atoms: C_3  and  C_12
REMARK    3  A    between atoms: C_12  and  C_13
REMARK    4  A    between atoms: C_12  and  O_19
REMARK                            x       y       z     vdW  Elec       q    Type
REMARK                         _______ _______ _______ _____ _____    ______ ____
ROOT
ATOM      1  C   UNL     1     103.407 127.446  80.015  0.00  0.00    +0.000 C 
ATOM      2  C   UNL     1     103.566 126.152  80.727  0.00  0.00    +0.000 A 
ATOM      3  C   UNL     1     102.842 125.689  81.816  0.00  0.00    +0.000 A 
ATOM      4  O   UNL     1     103.290 124.454  82.193  0.00  0.00    +0.000 OA
ATOM      5  C   UNL     1     104.292 124.109  81.342  0.00  0.00    +0.000 A 
ATOM      6  C   UNL     1     104.505 125.121  80.414  0.00  0.00    +0.000 A 
ATOM      7  C   UNL     1     105.511 124.939  79.445  0.00  0.00    +0.000 A 
ATOM      8  C   UNL     1     106.251 123.749  79.460  0.00  0.00    +0.000 A 
ATOM      9  C   UNL     1     105.994 122.767  80.414  0.00  0.00    +0.000 A 
ATOM     10  C   UNL     1     105.008 122.916  81.385  0.00  0.00    +0.000 A 
ATOM     11  F   UNL     1     106.722 121.642  80.398  0.00  0.00    +0.000 F 
ENDROOT
BRANCH   3  12
ATOM     12  C   UNL     1     101.727 126.258  82.634  0.00  0.00    +0.000 C 
BRANCH  12  13
ATOM     13  C   UNL     1     101.870 127.755  82.978  0.00  0.00    +0.000 C 
ATOM     14  C   UNL     1     103.163 128.101  83.742  0.00  0.00    +0.000 C 
ATOM     15  C   UNL     1     103.276 129.604  84.002  0.00  0.00    +0.000 C 
ATOM     16  C   UNL     1     102.047 130.144  84.726  0.00  0.00    +0.000 C 
ATOM     17  C   UNL     1     100.760 129.802  83.982  0.00  0.00    +0.000 C 
ATOM     18  C   UNL     1     100.641 128.302  83.724  0.00  0.00    +0.000 C 
ENDBRANCH  12  13
BRANCH  12  19
ATOM     19  O   UNL     1     100.512 126.047  81.909  0.00  0.00    +0.000 OA
ATOM     20  H   UNL     1     100.719 125.794  80.996  0.00  0.00    +0.000 HD
ENDBRANCH  12  19
ENDBRANCH   3  12
TORSDOF 3
ENDMDL
