MODEL 1
REMARK VINA RESULT:      -4.7      0.000      0.000
REMARK  Name = *****
REMARK  3 active torsions:
REMARK  status: ('A' for Active; 'I' for Inactive)
REMARK    1  A    between atoms: C_1  and  O_2
REMARK    2  A    between atoms: O_2  and  C_3
REMARK    3  A    between atoms: C_3  and  C_13
REMARK                            x       y       z     vdW  Elec       q    Type
REMARK                         _______ _______ _______ _____ _____    ______ ____
ROOT
ATOM      1  C   UNL     1      96.779 116.955  79.789  0.00  0.00    +0.000 C 
ATOM      2  C   UNL     1      97.738 116.616  78.629  0.00  0.00    +0.000 C 
ATOM      3  C   UNL     1      96.981 115.889  77.522  0.00  0.00    +0.000 C 
ATOM      4  C   UNL     1      96.140 114.792  78.101  0.00  0.00    +0.000 A 
ATOM      5  C   UNL     1      95.631 113.783  77.273  0.00  0.00    +0.000 A 
ATOM      6  C   UNL     1      94.849 112.758  77.808  0.00  0.00    +0.000 A 
ATOM      7  C   UNL     1      94.569 112.736  79.173  0.00  0.00    +0.000 A 
ATOM      8  C   UNL     1      95.063 113.744  80.000  0.00  0.00    +0.000 A 
ATOM      9  C   UNL     1      95.832 114.778  79.463  0.00  0.00    +0.000 A 
ATOM     10  O   UNL     1      96.281 115.715  80.351  0.00  0.00    +0.000 OA
ENDROOT
BRANCH   1  11
ATOM     11  C   UNL     1      97.442 117.654  80.987  0.00  0.00    +0.000 A 
ATOM     12  C   UNL     1      98.154 118.851  80.765  0.00  0.00    +0.000 A 
ATOM     13  C   UNL     1      98.782 119.527  81.812  0.00  0.00    +0.000 A 
ATOM     14  C   UNL     1      98.712 119.022  83.105  0.00  0.00    +0.000 A 
ATOM     15  C   UNL     1      98.012 117.843  83.351  0.00  0.00    +0.000 A 
ATOM     16  C   UNL     1      97.382 117.165  82.303  0.00  0.00    +0.000 A 
ENDBRANCH   1  11
BRANCH   1  18
ATOM     17  C   UNL     1      94.605 117.924  80.280  0.00  0.00    +0.000 C 
ATOM     18  O   UNL     1      95.658 117.748  79.345  0.00  0.00    +0.000 OA
ENDBRANCH   1  18
TORSDOF 2
ENDMDL
