MODEL 1
REMARK VINA RESULT:      -5.2      0.000      0.000
REMARK  Name = *****
REMARK  1 active torsions:
REMARK  status: ('A' for Active; 'I' for Inactive)
REMARK    1  A    between atoms: C_4  and  C_7
REMARK                            x       y       z     vdW  Elec       q    Type
REMARK                         _______ _______ _______ _____ _____    ______ ____
ROOT
ATOM      1  C   UNL     1     103.480 126.681  81.943  0.00  0.00    +0.000 C 
ATOM      2  C   UNL     1     104.036 127.614  80.864  0.00  0.00    +0.000 C 
ATOM      3  C   UNL     1     105.387 127.090  80.461  0.00  0.00    +0.000 C 
ATOM      4  O   UNL     1     106.307 127.816  80.097  0.00  0.00    +0.000 OA
ATOM      5  C   UNL     1     105.537 125.623  80.427  0.00  0.00    +0.000 A 
ATOM      6  C   UNL     1     104.503 124.827  80.923  0.00  0.00    +0.000 A 
ATOM      7  O   UNL     1     103.363 125.322  81.488  0.00  0.00    +0.000 OA
ATOM      8  C   UNL     1     104.598 123.438  80.836  0.00  0.00    +0.000 A 
ATOM      9  C   UNL     1     105.735 122.850  80.277  0.00  0.00    +0.000 A 
ATOM     10  C   UNL     1     106.773 123.654  79.802  0.00  0.00    +0.000 A 
ATOM     11  C   UNL     1     106.681 125.042  79.871  0.00  0.00    +0.000 A 
ATOM     12 CL   UNL     1     108.169 122.922  79.114  0.00  0.00    +0.000 Cl
ATOM     13  F   UNL     1     103.202 127.673  79.785  0.00  0.00    +0.000 F 
ATOM     14  F   UNL     1     104.372 126.658  82.986  0.00  0.00    +0.000 F 
ENDROOT
BRANCH   1  18
ATOM     15  C   UNL     1      99.574 128.000  83.281  0.00  0.00    +0.000 A 
ATOM     16  C   UNL     1      99.696 126.814  82.560  0.00  0.00    +0.000 A 
ATOM     17  C   UNL     1     100.951 126.383  82.130  0.00  0.00    +0.000 A 
ATOM     18  C   UNL     1     102.105 127.133  82.417  0.00  0.00    +0.000 A 
ATOM     19  C   UNL     1     101.965 128.325  83.146  0.00  0.00    +0.000 A 
ATOM     20  C   UNL     1     100.707 128.755  83.575  0.00  0.00    +0.000 A 
ENDBRANCH   1  18
TORSDOF 1
ENDMDL
