MODEL 1
REMARK VINA RESULT:      -5.2      0.000      0.000
REMARK  Name = *****
REMARK  3 active torsions:
REMARK  status: ('A' for Active; 'I' for Inactive)
REMARK    1  A    between atoms: C_1  and  O_2
REMARK    2  A    between atoms: O_2  and  N_3
REMARK    3  A    between atoms: C_6  and  C_14
REMARK                            x       y       z     vdW  Elec       q    Type
REMARK                         _______ _______ _______ _____ _____    ______ ____
ROOT
ATOM      1  N   UNL     1      98.372 126.594  82.342  0.00  0.00    +0.000 NA
ATOM      2  C   UNL     1      99.538 127.131  82.550  0.00  0.00    +0.000 C 
ATOM      3  C   UNL     1     100.737 126.364  82.053  0.00  0.00    +0.000 C 
ATOM      4  C   UNL     1     101.655 126.225  83.260  0.00  0.00    +0.000 C 
ATOM      5  O   UNL     1     102.139 127.508  83.697  0.00  0.00    +0.000 OA
ATOM      6  C   UNL     1     101.183 128.487  83.785  0.00  0.00    +0.000 A 
ATOM      7  C   UNL     1     101.596 129.664  84.415  0.00  0.00    +0.000 A 
ATOM      8  C   UNL     1     100.724 130.747  84.517  0.00  0.00    +0.000 A 
ATOM      9  C   UNL     1      99.445 130.663  83.970  0.00  0.00    +0.000 A 
ATOM     10  C   UNL     1      99.032 129.492  83.330  0.00  0.00    +0.000 A 
ATOM     11  C   UNL     1      99.890 128.389  83.254  0.00  0.00    +0.000 A 
ENDROOT
BRANCH   4  12
ATOM     12  C   UNL     1     102.843 125.342  82.925  0.00  0.00    +0.000 A 
ATOM     13  C   UNL     1     103.284 125.180  81.602  0.00  0.00    +0.000 A 
ATOM     14  C   UNL     1     104.362 124.343  81.309  0.00  0.00    +0.000 A 
ATOM     15  C   UNL     1     105.008 123.653  82.332  0.00  0.00    +0.000 A 
ATOM     16  C   UNL     1     104.577 123.798  83.649  0.00  0.00    +0.000 A 
ATOM     17  C   UNL     1     103.500 124.636  83.945  0.00  0.00    +0.000 A 
ENDBRANCH   4  12
BRANCH   1  19
ATOM     18  C   UNL     1      96.581 126.349  83.742  0.00  0.00    +0.000 C 
ATOM     19  O   UNL     1      97.322 127.277  82.959  0.00  0.00    +0.000 OA
ENDBRANCH   1  19
TORSDOF 2
ENDMDL
