MODEL 1
REMARK VINA RESULT:      -5.3      0.000      0.000
REMARK  Name = *****
REMARK  4 active torsions:
REMARK  status: ('A' for Active; 'I' for Inactive)
REMARK    1  A    between atoms: C_4  and  C_7
REMARK    2  A    between atoms: C_7  and  O_8
REMARK    3  A    between atoms: O_8  and  C_9
REMARK    4  A    between atoms: C_15  and  C_17
REMARK                            x       y       z     vdW  Elec       q    Type
REMARK                         _______ _______ _______ _____ _____    ______ ____
ROOT
ATOM      1  C   UNL     1      88.515  68.754  87.144  0.00  0.00    +0.000 A 
ATOM      2  C   UNL     1      89.553  68.207  86.386  0.00  0.00    +0.000 A 
ATOM      3  C   UNL     1      89.701  66.817  86.247  0.00  0.00    +0.000 A 
ATOM      4  C   UNL     1      88.781  65.958  86.889  0.00  0.00    +0.000 A 
ATOM      5  C   UNL     1      88.923  64.567  86.753  0.00  0.00    +0.000 A 
ATOM      6  C   UNL     1      89.963  64.026  85.992  0.00  0.00    +0.000 A 
ATOM      7  C   UNL     1      90.868  64.878  85.361  0.00  0.00    +0.000 A 
ATOM      8  C   UNL     1      90.743  66.264  85.485  0.00  0.00    +0.000 A 
ATOM      9  C   UNL     1      87.743  66.517  87.649  0.00  0.00    +0.000 A 
ATOM     10  C   UNL     1      87.610  67.904  87.776  0.00  0.00    +0.000 A 
ENDROOT
BRANCH   7  11
ATOM     11  C   UNL     1      91.965  64.301  84.557  0.00  0.00    +0.000 C 
ATOM     12  O   UNL     1      91.980  64.356  83.334  0.00  0.00    +0.000 OA
ENDBRANCH   7  11
BRANCH   1  13
ATOM     13  O   UNL     1      88.499  70.121  87.183  0.00  0.00    +0.000 OA
BRANCH  13  14
ATOM     14  C   UNL     1      87.882  70.798  86.092  0.00  0.00    +0.000 C 
BRANCH  14  18
ATOM     15  C   UNL     1      84.144  72.451  87.472  0.00  0.00    +0.000 A 
ATOM     16  C   UNL     1      84.413  72.382  86.107  0.00  0.00    +0.000 A 
ATOM     17  C   UNL     1      85.622  71.846  85.658  0.00  0.00    +0.000 A 
ATOM     18  C   UNL     1      86.569  71.364  86.573  0.00  0.00    +0.000 A 
ATOM     19  C   UNL     1      86.294  71.453  87.944  0.00  0.00    +0.000 A 
ATOM     20  C   UNL     1      85.085  71.990  88.391  0.00  0.00    +0.000 A 
ENDBRANCH  14  18
ENDBRANCH  13  14
ENDBRANCH   1  13
TORSDOF 4
ENDMDL
