MODEL 1
REMARK VINA RESULT:      -4.8      0.000      0.000
REMARK  Name = *****
REMARK  1 active torsions:
REMARK  status: ('A' for Active; 'I' for Inactive)
REMARK    1  A    between atoms: C_2  and  C_13
REMARK                            x       y       z     vdW  Elec       q    Type
REMARK                         _______ _______ _______ _____ _____    ______ ____
ROOT
ATOM      1  C   UNL     1      89.113  68.552  84.544  0.00  0.00    +0.000 C 
ATOM      2  C   UNL     1      88.519  69.790  83.879  0.00  0.00    +0.000 C 
ATOM      3  O   UNL     1      87.296  70.176  84.540  0.00  0.00    +0.000 OA
ATOM      4  C   UNL     1      87.416  70.345  85.894  0.00  0.00    +0.000 A 
ATOM      5  C   UNL     1      88.415  69.744  86.661  0.00  0.00    +0.000 A 
ATOM      6  C   UNL     1      89.367  68.834  85.998  0.00  0.00    +0.000 C 
ATOM      7  O   UNL     1      90.272  68.294  86.624  0.00  0.00    +0.000 OA
ATOM      8  C   UNL     1      88.489  69.971  88.039  0.00  0.00    +0.000 A 
ATOM      9  C   UNL     1      87.544  70.795  88.651  0.00  0.00    +0.000 A 
ATOM     10  C   UNL     1      86.537  71.372  87.881  0.00  0.00    +0.000 A 
ATOM     11  C   UNL     1      86.461  71.151  86.509  0.00  0.00    +0.000 A 
ATOM     12  F   UNL     1      85.625  72.154  88.472  0.00  0.00    +0.000 F 
ENDROOT
BRANCH   2  13
ATOM     13  C   UNL     1      89.420  71.006  83.664  0.00  0.00    +0.000 A 
ATOM     14  C   UNL     1      88.941  72.327  83.649  0.00  0.00    +0.000 A 
ATOM     15  C   UNL     1      89.816  73.401  83.461  0.00  0.00    +0.000 A 
ATOM     16  C   UNL     1      91.174  73.164  83.294  0.00  0.00    +0.000 A 
ATOM     17  C   UNL     1      91.677  71.871  83.314  0.00  0.00    +0.000 A 
ATOM     18  C   UNL     1      90.804  70.799  83.503  0.00  0.00    +0.000 A 
ATOM     19  F   UNL     1      92.008  74.196  83.115  0.00  0.00    +0.000 F 
ENDBRANCH   2  13
TORSDOF 1
ENDMDL
