REMARK  Name = *****
REMARK  5 active torsions:
REMARK  status: ('A' for Active; 'I' for Inactive)
REMARK    1  A    between atoms: C_1  and  C_2
REMARK    2  A    between atoms: C_3  and  C_19
REMARK    3  A    between atoms: C_5  and  O_8
REMARK    4  A    between atoms: O_8  and  C_9
REMARK    5  A    between atoms: C_9  and  C_10
REMARK                            x       y       z     vdW  Elec       q    Type
REMARK                         _______ _______ _______ _____ _____    ______ ____
ROOT
ATOM      1  C   UNL     1      -4.303  -0.657  -0.126  0.00  0.00    +0.000 C 
ENDROOT
BRANCH   1   2
ATOM      2  C   UNL     1      -5.399  -1.682  -0.156  0.00  0.00    +0.000 A 
ATOM      3  N   UNL     1      -6.253  -1.828  -1.148  0.00  0.00    +0.000 NA
ATOM      4  C   UNL     1      -7.142  -2.851  -0.862  0.00  0.00    +0.000 A 
ATOM      5  C   UNL     1      -8.184  -3.298  -1.700  0.00  0.00    +0.000 A 
ATOM      6  C   UNL     1      -9.013  -4.344  -1.283  0.00  0.00    +0.000 A 
ATOM      7  C   UNL     1      -8.817  -4.947  -0.045  0.00  0.00    +0.000 A 
ATOM      8  C   UNL     1      -7.792  -4.522   0.805  0.00  0.00    +0.000 A 
ATOM      9  C   UNL     1      -6.965  -3.470   0.376  0.00  0.00    +0.000 A 
ATOM     10  S   UNL     1      -5.639  -2.731   1.187  0.00  0.00    +0.000 S 
ENDBRANCH   1   2
BRANCH   1  11
ATOM     11  O   UNL     1      -3.059  -1.359  -0.157  0.00  0.00    +0.000 OA
BRANCH  11  16
ATOM     12  C   UNL     1       1.893   1.425   0.062  0.00  0.00    +0.000 C 
ATOM     13  C   UNL     1       0.580   0.695   0.003  0.00  0.00    +0.000 A 
ATOM     14  C   UNL     1       0.519  -0.711  -0.001  0.00  0.00    +0.000 A 
ATOM     15  C   UNL     1      -0.735  -1.341  -0.060  0.00  0.00    +0.000 A 
ATOM     16  C   UNL     1      -1.921  -0.603  -0.104  0.00  0.00    +0.000 A 
ATOM     17  C   UNL     1      -1.856   0.787  -0.094  0.00  0.00    +0.000 A 
ATOM     18  C   UNL     1      -0.615   1.429  -0.041  0.00  0.00    +0.000 A 
ATOM     19  C   UNL     1       1.765  -1.553   0.040  0.00  0.00    +0.000 C 
ENDBRANCH  11  16
ENDBRANCH   1  11
TORSDOF 3
