MODEL 1
REMARK VINA RESULT:      -4.6      0.000      0.000
REMARK  Name = *****
REMARK  1 active torsions:
REMARK  status: ('A' for Active; 'I' for Inactive)
REMARK    1  A    between atoms: C_4  and  C_7
REMARK                            x       y       z     vdW  Elec       q    Type
REMARK                         _______ _______ _______ _____ _____    ______ ____
ROOT
ATOM      1  C   UNL     1     101.712 127.244  83.333  0.00  0.00    +0.000 C 
ATOM      2  C   UNL     1     102.517 128.222  84.212  0.00  0.00    +0.000 C 
ATOM      3  C   UNL     1     101.606 129.387  84.210  0.00  0.00    +0.000 A 
ATOM      4  C   UNL     1     101.808 130.662  84.711  0.00  0.00    +0.000 A 
ATOM      5  C   UNL     1     100.761 131.582  84.611  0.00  0.00    +0.000 A 
ATOM      6  C   UNL     1      99.537 131.213  84.028  0.00  0.00    +0.000 A 
ATOM      7  C   UNL     1      99.349 129.920  83.535  0.00  0.00    +0.000 A 
ATOM      8  C   UNL     1     100.399 129.031  83.635  0.00  0.00    +0.000 A 
ATOM      9  O   UNL     1     100.356 127.742  83.179  0.00  0.00    +0.000 OA
ENDROOT
BRANCH   1  13
ATOM     10  C   UNL     1     104.613 126.336  80.125  0.00  0.00    +0.000 C 
ATOM     11  C   UNL     1     103.513 125.319  80.407  0.00  0.00    +0.000 C 
ATOM     12  C   UNL     1     102.885 125.536  81.782  0.00  0.00    +0.000 C 
ATOM     13  C   UNL     1     102.347 126.970  81.945  0.00  0.00    +0.000 C 
ATOM     14  C   UNL     1     103.476 127.982  81.664  0.00  0.00    +0.000 C 
ATOM     15  C   UNL     1     104.107 127.764  80.291  0.00  0.00    +0.000 C 
ENDBRANCH   1  13
TORSDOF 1
ENDMDL
