MODEL 1
REMARK VINA RESULT:      -4.5      0.000      0.000
REMARK  Name = *****
REMARK  4 active torsions:
REMARK  status: ('A' for Active; 'I' for Inactive)
REMARK    1  A    between atoms: C_1  and  C_2
REMARK    2  A    between atoms: C_3  and  C_20
REMARK    3  A    between atoms: N_9  and  N_12
REMARK    4  A    between atoms: C_13  and  C_14
REMARK                            x       y       z     vdW  Elec       q    Type
REMARK                         _______ _______ _______ _____ _____    ______ ____
ROOT
ATOM      1  C   UNL     1      85.752  68.630  87.198  0.00  0.00    +0.000 C 
ATOM      2  C   UNL     1      87.168  68.302  86.846  0.00  0.00    +0.000 A 
ATOM      3  C   UNL     1      88.156  69.230  86.547  0.00  0.00    +0.000 A 
ATOM      4  S   UNL     1      89.656  68.486  86.188  0.00  0.00    +0.000 S 
ATOM      5  C   UNL     1      89.023  66.924  86.415  0.00  0.00    +0.000 A 
ATOM      6  C   UNL     1      87.691  66.959  86.770  0.00  0.00    +0.000 A 
ATOM      7  C   UNL     1      87.012  65.690  87.010  0.00  0.00    +0.000 A 
ATOM      8  O   UNL     1      85.817  65.634  87.296  0.00  0.00    +0.000 OA
ATOM      9  N   UNL     1      87.866  64.579  86.916  0.00  0.00    +0.000 N 
ATOM     10  C   UNL     1      89.180  64.706  86.480  0.00  0.00    +0.000 A 
ATOM     11  N   UNL     1      89.794  65.822  86.238  0.00  0.00    +0.000 NA
ATOM     12  C   UNL     1      88.050  70.720  86.506  0.00  0.00    +0.000 C 
ENDROOT
BRANCH   9  13
ATOM     13  N   UNL     1      87.307  63.322  87.037  0.00  0.00    +0.000 NA
ATOM     14  C   UNL     1      87.262  62.746  88.203  0.00  0.00    +0.000 C 
BRANCH  14  15
ATOM     15  C   UNL     1      87.590  63.296  89.532  0.00  0.00    +0.000 A 
ATOM     16  C   UNL     1      88.913  63.483  89.941  0.00  0.00    +0.000 A 
ATOM     17  C   UNL     1      89.175  64.022  91.200  0.00  0.00    +0.000 A 
ATOM     18  C   UNL     1      88.121  64.386  92.039  0.00  0.00    +0.000 A 
ATOM     19  C   UNL     1      86.801  64.222  91.617  0.00  0.00    +0.000 A 
ATOM     20  C   UNL     1      86.532  63.684  90.358  0.00  0.00    +0.000 A 
ENDBRANCH  14  15
ENDBRANCH   9  13
TORSDOF 2
ENDMDL
