MODEL 1
REMARK VINA RESULT:      -4.0      0.000      0.000
REMARK  Name = *****
REMARK  3 active torsions:
REMARK  status: ('A' for Active; 'I' for Inactive)
REMARK    1  A    between atoms: C_1  and  C_2
REMARK    2  A    between atoms: C_2  and  S_6
REMARK    3  A    between atoms: S_6  and  C_7
REMARK                            x       y       z     vdW  Elec       q    Type
REMARK                         _______ _______ _______ _____ _____    ______ ____
ROOT
ATOM      1  C   UNL     1     102.799 126.970  82.643  0.00  0.00    +0.000 A 
ATOM      2  N   UNL     1     103.078 125.860  83.285  0.00  0.00    +0.000 NA
ATOM      3  C   UNL     1     103.698 124.966  82.429  0.00  0.00    +0.000 A 
ATOM      4  C   UNL     1     104.143 123.672  82.767  0.00  0.00    +0.000 A 
ATOM      5  C   UNL     1     104.758 122.873  81.798  0.00  0.00    +0.000 A 
ATOM      6  C   UNL     1     104.933 123.347  80.501  0.00  0.00    +0.000 A 
ATOM      7  C   UNL     1     104.497 124.626  80.140  0.00  0.00    +0.000 A 
ATOM      8  C   UNL     1     103.881 125.419  81.121  0.00  0.00    +0.000 A 
ATOM      9  S   UNL     1     103.244 127.013  80.990  0.00  0.00    +0.000 S 
ENDROOT
BRANCH   1  10
ATOM     10  S   UNL     1     102.004 128.326  83.414  0.00  0.00    +0.000 S 
BRANCH  10  12
ATOM     11  C   UNL     1     100.137 127.077  85.095  0.00  0.00    +0.000 C 
ATOM     12  C   UNL     1     100.306 127.671  83.703  0.00  0.00    +0.000 C 
ATOM     13  C   UNL     1      99.755 126.863  82.493  0.00  0.00    +0.000 C 
ATOM     14  C   UNL     1      98.441 127.658  82.631  0.00  0.00    +0.000 C 
ATOM     15  C   UNL     1      99.252 128.761  83.339  0.00  0.00    +0.000 C 
ENDBRANCH  10  12
ENDBRANCH   1  10
TORSDOF 2
ENDMDL
