MODEL 1
REMARK VINA RESULT:      -5.3      0.000      0.000
REMARK  Name = *****
REMARK  5 active torsions:
REMARK  status: ('A' for Active; 'I' for Inactive)
REMARK    1  A    between atoms: C_1  and  C_2
REMARK    2  A    between atoms: C_4  and  C_20
REMARK    3  A    between atoms: C_7  and  C_11
REMARK    4  A    between atoms: C_7  and  O_19
REMARK    5  A    between atoms: C_15  and  C_17
REMARK                            x       y       z     vdW  Elec       q    Type
REMARK                         _______ _______ _______ _____ _____    ______ ____
ROOT
ATOM      1  C   UNL     1      99.662 128.897  84.915  0.00  0.00    +0.000 C 
ATOM      2  C   UNL     1     100.897 128.617  84.108  0.00  0.00    +0.000 A 
ATOM      3  C   UNL     1     102.060 129.393  84.284  0.00  0.00    +0.000 A 
ATOM      4  C   UNL     1     103.234 129.130  83.559  0.00  0.00    +0.000 A 
ATOM      5  C   UNL     1     103.206 128.082  82.644  0.00  0.00    +0.000 A 
ATOM      6  C   UNL     1     104.336 127.575  81.790  0.00  0.00    +0.000 C 
ATOM      7  C   UNL     1     103.608 126.622  80.798  0.00  0.00    +0.000 C 
ATOM      8  C   UNL     1     102.274 126.199  81.479  0.00  0.00    +0.000 C 
ATOM      9  C   UNL     1     102.055 127.309  82.465  0.00  0.00    +0.000 A 
ATOM     10  C   UNL     1     100.901 127.560  83.190  0.00  0.00    +0.000 A 
ATOM     11  C   UNL     1     104.465 129.958  83.766  0.00  0.00    +0.000 C 
ENDROOT
BRANCH   7  12
ATOM     12  C   UNL     1     104.462 125.421  80.402  0.00  0.00    +0.000 A 
ATOM     13  C   UNL     1     105.558 125.578  79.533  0.00  0.00    +0.000 A 
ATOM     14  C   UNL     1     106.353 124.491  79.163  0.00  0.00    +0.000 A 
ATOM     15  C   UNL     1     106.069 123.221  79.656  0.00  0.00    +0.000 A 
ATOM     16  C   UNL     1     104.987 123.036  80.520  0.00  0.00    +0.000 A 
ATOM     17  C   UNL     1     104.192 124.129  80.889  0.00  0.00    +0.000 A 
BRANCH  16  18
ATOM     18  C   UNL     1     104.695 121.727  81.030  0.00  0.00    +0.000 C 
ATOM     19  N   UNL     1     104.463 120.663  81.431  0.00  0.00    +0.000 NA
ENDBRANCH  16  18
ENDBRANCH   7  12
BRANCH   7  20
ATOM     20  O   UNL     1     103.278 127.384  79.619  0.00  0.00    +0.000 OA
ATOM     21  H   UNL     1     104.092 127.713  79.208  0.00  0.00    +0.000 HD
ENDBRANCH   7  20
TORSDOF 3
ENDMDL
