MODEL 1
REMARK VINA RESULT:      -4.8      0.000      0.000
REMARK  Name = *****
REMARK  4 active torsions:
REMARK  status: ('A' for Active; 'I' for Inactive)
REMARK    1  A    between atoms: C_3  and  C_8
REMARK    2  A    between atoms: C_8  and  C_9
REMARK    3  A    between atoms: C_8  and  O_18
REMARK    4  A    between atoms: C_9  and  C_11
REMARK                            x       y       z     vdW  Elec       q    Type
REMARK                         _______ _______ _______ _____ _____    ______ ____
ROOT
ATOM      1  C   UNL     1      88.700  70.191  87.098  0.00  0.00    +0.000 C 
ENDROOT
BRANCH   1   4
ATOM      2  C   UNL     1      87.851  66.486  87.456  0.00  0.00    +0.000 A 
ATOM      3  C   UNL     1      87.771  67.878  87.534  0.00  0.00    +0.000 A 
ATOM      4  C   UNL     1      88.793  68.685  87.006  0.00  0.00    +0.000 A 
ATOM      5  C   UNL     1      89.879  68.064  86.366  0.00  0.00    +0.000 A 
ATOM      6  C   UNL     1      89.952  66.673  86.291  0.00  0.00    +0.000 A 
ATOM      7  C   UNL     1      88.946  65.882  86.838  0.00  0.00    +0.000 A 
ATOM      8 CL   UNL     1      91.298  65.929  85.519  0.00  0.00    +0.000 Cl
ENDBRANCH   1   4
BRANCH   1   9
ATOM      9  C   UNL     1      87.883  70.693  88.298  0.00  0.00    +0.000 C 
ATOM     10  O   UNL     1      88.332  70.589  89.444  0.00  0.00    +0.000 OA
BRANCH   9  11
ATOM     11  C   UNL     1      86.553  71.337  88.092  0.00  0.00    +0.000 A 
ATOM     12  C   UNL     1      86.055  71.643  86.821  0.00  0.00    +0.000 A 
ATOM     13  C   UNL     1      84.800  72.243  86.699  0.00  0.00    +0.000 A 
ATOM     14  C   UNL     1      84.042  72.552  87.827  0.00  0.00    +0.000 A 
ATOM     15  C   UNL     1      84.541  72.262  89.095  0.00  0.00    +0.000 A 
ATOM     16  C   UNL     1      85.793  71.659  89.226  0.00  0.00    +0.000 A 
ATOM     17 CL   UNL     1      84.188  72.612  85.133  0.00  0.00    +0.000 Cl
ENDBRANCH   9  11
ENDBRANCH   1   9
BRANCH   1  18
ATOM     18  O   UNL     1      90.038  70.685  87.174  0.00  0.00    +0.000 OA
ATOM     19  H   UNL     1      90.061  71.473  87.741  0.00  0.00    +0.000 HD
ENDBRANCH   1  18
TORSDOF 4
ENDMDL
