MODEL 1
REMARK VINA RESULT:      -4.8      0.000      0.000
REMARK  Name = *****
REMARK  2 active torsions:
REMARK  status: ('A' for Active; 'I' for Inactive)
REMARK    1  A    between atoms: C_1  and  C_2
REMARK    2  A    between atoms: C_2  and  C_13
REMARK                            x       y       z     vdW  Elec       q    Type
REMARK                         _______ _______ _______ _____ _____    ______ ____
ROOT
ATOM      1  C   UNL     1     102.404 125.741  85.029  0.00  0.00    +0.000 C 
ATOM      2  C   UNL     1     102.525 126.418  83.648  0.00  0.00    +0.000 C 
ATOM      3  C   UNL     1     102.907 125.333  82.632  0.00  0.00    +0.000 C 
ATOM      4  C   UNL     1     103.205 125.967  81.303  0.00  0.00    +0.000 C 
ATOM      5  O   UNL     1     102.988 125.397  80.238  0.00  0.00    +0.000 OA
ATOM      6  C   UNL     1     103.866 127.282  81.350  0.00  0.00    +0.000 A 
ATOM      7  C   UNL     1     104.325 127.893  80.180  0.00  0.00    +0.000 A 
ATOM      8  C   UNL     1     105.004 129.110  80.260  0.00  0.00    +0.000 A 
ATOM      9  C   UNL     1     105.228 129.703  81.504  0.00  0.00    +0.000 A 
ATOM     10  C   UNL     1     104.764 129.089  82.669  0.00  0.00    +0.000 A 
ATOM     11  C   UNL     1     104.067 127.885  82.591  0.00  0.00    +0.000 A 
ATOM     12  O   UNL     1     103.627 127.353  83.775  0.00  0.00    +0.000 OA
ENDROOT
BRANCH   2  13
ATOM     13  C   UNL     1     101.208 127.171  83.390  0.00  0.00    +0.000 A 
ATOM     14  C   UNL     1     100.163 126.529  82.696  0.00  0.00    +0.000 A 
ATOM     15  C   UNL     1      98.957 127.181  82.434  0.00  0.00    +0.000 A 
ATOM     16  C   UNL     1      98.770 128.493  82.854  0.00  0.00    +0.000 A 
ATOM     17  C   UNL     1      99.792 129.152  83.534  0.00  0.00    +0.000 A 
ATOM     18  C   UNL     1     101.001 128.499  83.797  0.00  0.00    +0.000 A 
ENDBRANCH   2  13
TORSDOF 1
ENDMDL
