REMARK  Name = *****
REMARK  2 active torsions:
REMARK  status: ('A' for Active; 'I' for Inactive)
REMARK    1  A    between atoms: C_1  and  C_2
REMARK    2  A    between atoms: C_11  and  C_13
REMARK                            x       y       z     vdW  Elec       q    Type
REMARK                         _______ _______ _______ _____ _____    ______ ____
ROOT
ATOM      1  C   UNL     1       1.034  -0.089   0.132  0.00  0.00    +0.000 C 
ATOM      2  C   UNL     1       2.526  -0.057  -0.017  0.00  0.00    +0.000 A 
ATOM      3  C   UNL     1       3.223   1.155   0.094  0.00  0.00    +0.000 A 
ATOM      4  C   UNL     1       4.614   1.181   0.000  0.00  0.00    +0.000 A 
ATOM      5  C   UNL     1       5.314  -0.002  -0.226  0.00  0.00    +0.000 A 
ATOM      6  C   UNL     1       4.636  -1.220  -0.321  0.00  0.00    +0.000 A 
ATOM      7  C   UNL     1       3.245  -1.245  -0.207  0.00  0.00    +0.000 A 
ATOM      8  C   UNL     1       6.776   0.061  -0.402  0.00  0.00    +0.000 C 
ATOM      9  O   UNL     1       7.441  -0.952  -0.595  0.00  0.00    +0.000 OA
ATOM     10  C   UNL     1       7.383   1.435  -0.415  0.00  0.00    +0.000 C 
ATOM     11  C   UNL     1       6.600   2.349   0.522  0.00  0.00    +0.000 C 
ATOM     12  O   UNL     1       5.214   2.407   0.123  0.00  0.00    +0.000 OA
ENDROOT
BRANCH  11  13
ATOM     13  C   UNL     1       6.722   2.126   2.027  0.00  0.00    +0.000 A 
ATOM     14  C   UNL     1       7.613   1.206   2.601  0.00  0.00    +0.000 A 
ATOM     15  C   UNL     1       7.694   1.058   3.989  0.00  0.00    +0.000 A 
ATOM     16  C   UNL     1       6.893   1.831   4.826  0.00  0.00    +0.000 A 
ATOM     17  C   UNL     1       6.011   2.756   4.277  0.00  0.00    +0.000 A 
ATOM     18  C   UNL     1       5.930   2.905   2.892  0.00  0.00    +0.000 A 
ENDBRANCH  11  13
TORSDOF 1
