REMARK  Name = *****
REMARK  1 active torsions:
REMARK  status: ('A' for Active; 'I' for Inactive)
REMARK    1  A    between atoms: C_2  and  C_14
REMARK                            x       y       z     vdW  Elec       q    Type
REMARK                         _______ _______ _______ _____ _____    ______ ____
ROOT
ATOM      1  C   UNL     1      -2.496   0.755  -0.386  0.00  0.00    +0.000 C 
ATOM      2  C   UNL     1      -2.377  -0.597   0.302  0.00  0.00    +0.000 C 
ATOM      3  O   UNL     1      -1.247  -1.325  -0.208  0.00  0.00    +0.000 OA
ATOM      4  C   UNL     1      -0.059  -0.653  -0.082  0.00  0.00    +0.000 A 
ATOM      5  C   UNL     1       0.011   0.740  -0.011  0.00  0.00    +0.000 A 
ATOM      6  C   UNL     1      -1.236   1.525  -0.114  0.00  0.00    +0.000 C 
ATOM      7  O   UNL     1      -1.211   2.749  -0.040  0.00  0.00    +0.000 OA
ATOM      8  C   UNL     1       1.241   1.392   0.117  0.00  0.00    +0.000 A 
ATOM      9  C   UNL     1       2.411   0.639   0.155  0.00  0.00    +0.000 A 
ATOM     10  C   UNL     1       2.363  -0.751   0.062  0.00  0.00    +0.000 A 
ATOM     11  C   UNL     1       1.129  -1.394  -0.062  0.00  0.00    +0.000 A 
ATOM     12 CL   UNL     1       1.112  -3.117  -0.174  0.00  0.00    +0.000 Cl
ATOM     13 CL   UNL     1       3.931   1.429   0.308  0.00  0.00    +0.000 Cl
ENDROOT
BRANCH   2  14
ATOM     14  C   UNL     1      -3.640  -1.411   0.089  0.00  0.00    +0.000 A 
ATOM     15  C   UNL     1      -3.791  -2.261  -1.018  0.00  0.00    +0.000 A 
ATOM     16  C   UNL     1      -4.973  -2.980  -1.207  0.00  0.00    +0.000 A 
ATOM     17  C   UNL     1      -6.021  -2.853  -0.299  0.00  0.00    +0.000 A 
ATOM     18  C   UNL     1      -5.890  -2.007   0.800  0.00  0.00    +0.000 A 
ATOM     19  C   UNL     1      -4.708  -1.289   0.993  0.00  0.00    +0.000 A 
ENDBRANCH   2  14
TORSDOF 1
