MODEL 1
REMARK VINA RESULT:      -5.3      0.000      0.000
REMARK  Name = *****
REMARK  5 active torsions:
REMARK  status: ('A' for Active; 'I' for Inactive)
REMARK    1  A    between atoms: C_1  and  C_2
REMARK    2  A    between atoms: C_5  and  C_8
REMARK    3  A    between atoms: C_8  and  O_21
REMARK    4  A    between atoms: C_9  and  C_19
REMARK    5  A    between atoms: C_9  and  C_20
REMARK                            x       y       z     vdW  Elec       q    Type
REMARK                         _______ _______ _______ _____ _____    ______ ____
ROOT
ATOM      1  C   UNL     1      87.728  63.790  87.898  0.00  0.00    +0.000 C 
ATOM      2  C   UNL     1      86.237  63.419  88.154  0.00  0.00    +0.000 C 
ATOM      3  C   UNL     1      85.795  64.122  89.427  0.00  0.00    +0.000 C 
ATOM      4  O   UNL     1      84.647  64.514  89.614  0.00  0.00    +0.000 OA
ATOM      5  C   UNL     1      86.809  64.268  90.492  0.00  0.00    +0.000 A 
ATOM      6  C   UNL     1      86.449  64.753  91.753  0.00  0.00    +0.000 A 
ATOM      7  C   UNL     1      87.412  64.845  92.758  0.00  0.00    +0.000 A 
ATOM      8  C   UNL     1      88.725  64.448  92.504  0.00  0.00    +0.000 A 
ATOM      9  C   UNL     1      89.080  63.967  91.242  0.00  0.00    +0.000 A 
ATOM     10  C   UNL     1      88.124  63.891  90.230  0.00  0.00    +0.000 A 
ATOM     11  O   UNL     1      88.552  63.413  89.021  0.00  0.00    +0.000 OA
ATOM     12  C   UNL     1      85.321  63.772  86.968  0.00  0.00    +0.000 C 
ATOM     13  C   UNL     1      86.059  61.901  88.418  0.00  0.00    +0.000 C 
ENDROOT
BRANCH   1  18
ATOM     14  C   UNL     1      89.514  69.194  86.405  0.00  0.00    +0.000 C 
ATOM     15  C   UNL     1      89.029  67.820  86.760  0.00  0.00    +0.000 A 
ATOM     16  C   UNL     1      87.839  67.650  87.471  0.00  0.00    +0.000 A 
ATOM     17  C   UNL     1      87.395  66.371  87.834  0.00  0.00    +0.000 A 
ATOM     18  C   UNL     1      88.126  65.221  87.497  0.00  0.00    +0.000 A 
ATOM     19  C   UNL     1      89.340  65.419  86.805  0.00  0.00    +0.000 A 
ATOM     20  C   UNL     1      89.785  66.693  86.443  0.00  0.00    +0.000 A 
ENDBRANCH   1  18
BRANCH   1  21
ATOM     21  O   UNL     1      88.177  62.959  86.812  0.00  0.00    +0.000 OA
ATOM     22  H   UNL     1      88.803  63.456  86.264  0.00  0.00    +0.000 HD
ENDBRANCH   1  21
TORSDOF 2
ENDMDL
