MODEL 1
REMARK VINA RESULT:      -5.2      0.000      0.000
REMARK  Name = *****
REMARK  3 active torsions:
REMARK  status: ('A' for Active; 'I' for Inactive)
REMARK    1  A    between atoms: C_1  and  C_2
REMARK    2  A    between atoms: C_4  and  C_12
REMARK    3  A    between atoms: C_4  and  C_13
REMARK                            x       y       z     vdW  Elec       q    Type
REMARK                         _______ _______ _______ _____ _____    ______ ____
ROOT
ATOM      1  C   UNL     1      88.554  70.406  88.883  0.00  0.00    +0.000 C 
ATOM      2  C   UNL     1      88.082  70.663  87.485  0.00  0.00    +0.000 C 
ATOM      3  C   UNL     1      88.824  70.353  86.412  0.00  0.00    +0.000 C 
ATOM      4  C   UNL     1      88.397  70.588  84.978  0.00  0.00    +0.000 C 
ATOM      5  O   UNL     1      87.163  71.316  84.813  0.00  0.00    +0.000 OA
ATOM      6  C   UNL     1      86.382  71.548  85.911  0.00  0.00    +0.000 A 
ATOM      7  C   UNL     1      85.143  72.135  85.638  0.00  0.00    +0.000 A 
ATOM      8  C   UNL     1      84.262  72.435  86.673  0.00  0.00    +0.000 A 
ATOM      9  C   UNL     1      84.624  72.153  87.986  0.00  0.00    +0.000 A 
ATOM     10  C   UNL     1      85.866  71.573  88.260  0.00  0.00    +0.000 A 
ATOM     11  C   UNL     1      86.765  71.263  87.227  0.00  0.00    +0.000 A 
ATOM     12  C   UNL     1      88.132  69.205  84.350  0.00  0.00    +0.000 C 
ENDROOT
BRANCH   4  13
ATOM     13  C   UNL     1      89.481  71.413  84.254  0.00  0.00    +0.000 C 
ATOM     14  C   UNL     1      90.709  70.955  83.927  0.00  0.00    +0.000 C 
ATOM     15  C   UNL     1      91.773  71.774  83.256  0.00  0.00    +0.000 C 
ATOM     16  C   UNL     1      91.477  73.271  83.255  0.00  0.00    +0.000 C 
ATOM     17  C   UNL     1      90.019  73.530  82.909  0.00  0.00    +0.000 C 
ATOM     18  C   UNL     1      89.086  72.844  83.911  0.00  0.00    +0.000 C 
ENDBRANCH   4  13
TORSDOF 1
ENDMDL
