MODEL 1
REMARK VINA RESULT:      -4.8      0.000      0.000
REMARK  Name = *****
REMARK  1 active torsions:
REMARK  status: ('A' for Active; 'I' for Inactive)
REMARK    1  A    between atoms: C_11  and  C_12
REMARK                            x       y       z     vdW  Elec       q    Type
REMARK                         _______ _______ _______ _____ _____    ______ ____
ROOT
ATOM      1  C   UNL     1     103.003 125.335  82.637  0.00  0.00    +0.000 C 
ATOM      2  C   UNL     1     103.216 125.988  81.301  0.00  0.00    +0.000 C 
ATOM      3  O   UNL     1     102.931 125.439  80.243  0.00  0.00    +0.000 OA
ATOM      4  C   UNL     1     103.869 127.309  81.332  0.00  0.00    +0.000 A 
ATOM      5  C   UNL     1     104.279 127.938  80.155  0.00  0.00    +0.000 A 
ATOM      6  C   UNL     1     104.975 129.145  80.231  0.00  0.00    +0.000 A 
ATOM      7  C   UNL     1     105.269 129.707  81.476  0.00  0.00    +0.000 A 
ATOM      8  C   UNL     1     104.838 129.083  82.648  0.00  0.00    +0.000 A 
ATOM      9  C   UNL     1     104.112 127.896  82.574  0.00  0.00    +0.000 A 
ATOM     10  O   UNL     1     103.662 127.373  83.760  0.00  0.00    +0.000 OA
ATOM     11  C   UNL     1     102.576 126.427  83.619  0.00  0.00    +0.000 C 
ATOM     12 CL   UNL     1     102.382 125.646  85.240  0.00  0.00    +0.000 Cl
ENDROOT
BRANCH  11  13
ATOM     13  C   UNL     1     101.241 127.125  83.308  0.00  0.00    +0.000 A 
ATOM     14  C   UNL     1     100.971 128.436  83.742  0.00  0.00    +0.000 A 
ATOM     15  C   UNL     1      99.723 129.025  83.524  0.00  0.00    +0.000 A 
ATOM     16  C   UNL     1      98.729 128.325  82.849  0.00  0.00    +0.000 A 
ATOM     17  C   UNL     1      98.989 127.046  82.368  0.00  0.00    +0.000 A 
ATOM     18  C   UNL     1     100.236 126.456  82.584  0.00  0.00    +0.000 A 
ENDBRANCH  11  13
TORSDOF 1
ENDMDL
