REMARK  Name = *****
REMARK  3 active torsions:
REMARK  status: ('A' for Active; 'I' for Inactive)
REMARK    1  A    between atoms: C_1  and  O_2
REMARK    2  A    between atoms: O_2  and  C_3
REMARK    3  A    between atoms: C_3  and  C_15
REMARK                            x       y       z     vdW  Elec       q    Type
REMARK                         _______ _______ _______ _____ _____    ______ ____
ROOT
ATOM      1  C   UNL     1       2.821  -0.971   0.589  0.00  0.00    +0.000 C 
ATOM      2  C   UNL     1       2.806  -0.233   1.964  0.00  0.00    +0.000 C 
ATOM      3  C   UNL     1       1.489   0.173   2.608  0.00  0.00    +0.000 A 
ATOM      4  C   UNL     1       1.428   1.417   3.265  0.00  0.00    +0.000 A 
ATOM      5  C   UNL     1       0.284   1.811   3.964  0.00  0.00    +0.000 A 
ATOM      6  C   UNL     1      -0.814   0.961   4.044  0.00  0.00    +0.000 A 
ATOM      7  C   UNL     1      -0.773  -0.282   3.417  0.00  0.00    +0.000 A 
ATOM      8  C   UNL     1       0.365  -0.671   2.695  0.00  0.00    +0.000 A 
ATOM      9  C   UNL     1       0.316  -1.992   2.040  0.00  0.00    +0.000 C 
ATOM     10  O   UNL     1      -0.140  -3.003   2.543  0.00  0.00    +0.000 OA
ATOM     11  O   UNL     1       0.655  -1.824   0.740  0.00  0.00    +0.000 OA
ATOM     12  O   UNL     1       2.060  -2.189   0.650  0.00  0.00    +0.000 OA
ENDROOT
BRANCH   1  13
ATOM     13  C   UNL     1       4.295  -1.399   0.371  0.00  0.00    +0.000 A 
ATOM     14  C   UNL     1       5.220  -0.513  -0.216  0.00  0.00    +0.000 A 
ATOM     15  C   UNL     1       6.561  -0.870  -0.378  0.00  0.00    +0.000 A 
ATOM     16  C   UNL     1       7.007  -2.117   0.050  0.00  0.00    +0.000 A 
ATOM     17  C   UNL     1       6.114  -3.007   0.641  0.00  0.00    +0.000 A 
ATOM     18  C   UNL     1       4.772  -2.652   0.804  0.00  0.00    +0.000 A 
ENDBRANCH   1  13
BRANCH   1  20
ATOM     19  C   UNL     1       1.536   0.834  -0.459  0.00  0.00    +0.000 C 
ATOM     20  O   UNL     1       2.497  -0.194  -0.574  0.00  0.00    +0.000 OA
ENDBRANCH   1  20
TORSDOF 2
