MODEL 1
REMARK VINA RESULT:      -5.5      0.000      0.000
REMARK  Name = *****
REMARK  1 active torsions:
REMARK  status: ('A' for Active; 'I' for Inactive)
REMARK    1  A    between atoms: C_4  and  C_7
REMARK                            x       y       z     vdW  Elec       q    Type
REMARK                         _______ _______ _______ _____ _____    ______ ____
ROOT
ATOM      1  C   UNL     1     103.484 126.694  81.966  0.00  0.00    +0.000 C 
ATOM      2  C   UNL     1     104.036 127.575  80.831  0.00  0.00    +0.000 C 
ATOM      3  C   UNL     1     105.397 127.031  80.464  0.00  0.00    +0.000 C 
ATOM      4  O   UNL     1     106.346 127.721  80.095  0.00  0.00    +0.000 OA
ATOM      5  C   UNL     1     105.531 125.563  80.479  0.00  0.00    +0.000 A 
ATOM      6  C   UNL     1     104.497 124.792  81.012  0.00  0.00    +0.000 A 
ATOM      7  O   UNL     1     103.365 125.312  81.571  0.00  0.00    +0.000 OA
ATOM      8  C   UNL     1     104.581 123.399  80.975  0.00  0.00    +0.000 A 
ATOM      9  C   UNL     1     105.711 122.782  80.432  0.00  0.00    +0.000 A 
ATOM     10  C   UNL     1     106.751 123.560  79.921  0.00  0.00    +0.000 A 
ATOM     11  C   UNL     1     106.668 124.950  79.940  0.00  0.00    +0.000 A 
ATOM     12 CL   UNL     1     108.139 122.794  79.255  0.00  0.00    +0.000 Cl
ATOM     13  F   UNL     1     104.097 128.881  81.224  0.00  0.00    +0.000 F 
ATOM     14  F   UNL     1     103.202 127.547  79.747  0.00  0.00    +0.000 F 
ATOM     15  F   UNL     1     104.377 126.706  83.010  0.00  0.00    +0.000 F 
ENDROOT
BRANCH   1  19
ATOM     16  C   UNL     1      99.549 127.954  83.280  0.00  0.00    +0.000 A 
ATOM     17  C   UNL     1     100.667 128.714  83.617  0.00  0.00    +0.000 A 
ATOM     18  C   UNL     1     101.937 128.317  83.195  0.00  0.00    +0.000 A 
ATOM     19  C   UNL     1     102.105 127.151  82.426  0.00  0.00    +0.000 A 
ATOM     20  C   UNL     1     100.967 126.397  82.096  0.00  0.00    +0.000 A 
ATOM     21  C   UNL     1      99.699 126.796  82.520  0.00  0.00    +0.000 A 
ENDBRANCH   1  19
TORSDOF 1
ENDMDL
