MODEL 1
REMARK VINA RESULT:      -5.1      0.000      0.000
REMARK  Name = *****
REMARK  2 active torsions:
REMARK  status: ('A' for Active; 'I' for Inactive)
REMARK    1  A    between atoms: C_1  and  C_2
REMARK    2  A    between atoms: C_4  and  C_12
REMARK                            x       y       z     vdW  Elec       q    Type
REMARK                         _______ _______ _______ _____ _____    ______ ____
ROOT
ATOM      1  C   UNL     1      87.907  69.714  84.004  0.00  0.00    +0.000 C 
ATOM      2  C   UNL     1      88.185  70.961  84.847  0.00  0.00    +0.000 C 
ATOM      3  C   UNL     1      89.429  70.830  85.726  0.00  0.00    +0.000 C 
ATOM      4  C   UNL     1      89.154  70.087  87.039  0.00  0.00    +0.000 C 
ATOM      5  O   UNL     1      88.078  70.675  87.787  0.00  0.00    +0.000 OA
ATOM      6  C   UNL     1      87.022  71.181  87.082  0.00  0.00    +0.000 A 
ATOM      7  C   UNL     1      85.921  71.563  87.853  0.00  0.00    +0.000 A 
ATOM      8  C   UNL     1      84.783  72.090  87.246  0.00  0.00    +0.000 A 
ATOM      9  C   UNL     1      84.744  72.243  85.864  0.00  0.00    +0.000 A 
ATOM     10  C   UNL     1      85.846  71.871  85.092  0.00  0.00    +0.000 A 
ATOM     11  C   UNL     1      86.997  71.338  85.693  0.00  0.00    +0.000 A 
ENDROOT
BRANCH   4  12
ATOM     12  C   UNL     1      89.046  68.570  86.925  0.00  0.00    +0.000 A 
ATOM     13  C   UNL     1      90.081  67.840  86.312  0.00  0.00    +0.000 A 
ATOM     14  C   UNL     1      90.013  66.450  86.201  0.00  0.00    +0.000 A 
ATOM     15  C   UNL     1      88.914  65.763  86.708  0.00  0.00    +0.000 A 
ATOM     16  C   UNL     1      87.886  66.465  87.331  0.00  0.00    +0.000 A 
ATOM     17  C   UNL     1      87.954  67.856  87.444  0.00  0.00    +0.000 A 
ENDBRANCH   4  12
TORSDOF 1
ENDMDL
