MODEL 1
REMARK VINA RESULT:      -5.2      0.000      0.000
REMARK  Name = *****
REMARK  6 active torsions:
REMARK  status: ('A' for Active; 'I' for Inactive)
REMARK    1  A    between atoms: C_1  and  C_2
REMARK    2  A    between atoms: C_5  and  C_8
REMARK    3  A    between atoms: C_8  and  C_9
REMARK    4  A    between atoms: C_8  and  C_11
REMARK    5  A    between atoms: C_11  and  C_13
REMARK    6  A    between atoms: C_16  and  C_19
REMARK                            x       y       z     vdW  Elec       q    Type
REMARK                         _______ _______ _______ _____ _____    ______ ____
ROOT
ATOM      1  C   UNL     1      88.117  70.850  85.382  0.00  0.00    +0.000 C 
ENDROOT
BRANCH   1   6
ATOM      2  C   UNL     1      83.118  72.898  87.669  0.00  0.00    +0.000 C 
ATOM      3  C   UNL     1      84.385  72.343  87.086  0.00  0.00    +0.000 A 
ATOM      4  C   UNL     1      85.393  71.849  87.918  0.00  0.00    +0.000 A 
ATOM      5  C   UNL     1      86.586  71.360  87.377  0.00  0.00    +0.000 A 
ATOM      6  C   UNL     1      86.802  71.346  85.987  0.00  0.00    +0.000 A 
ATOM      7  C   UNL     1      85.796  71.887  85.165  0.00  0.00    +0.000 A 
ATOM      8  C   UNL     1      84.603  72.374  85.707  0.00  0.00    +0.000 A 
ENDBRANCH   1   6
BRANCH   1   9
ATOM      9  C   UNL     1      89.041  70.153  86.396  0.00  0.00    +0.000 C 
ATOM     10  N   UNL     1      89.945  70.839  87.038  0.00  0.00    +0.000 NA
ATOM     11  H   UNL     1      90.033  71.806  86.881  0.00  0.00    +0.000 HD
BRANCH   9  12
ATOM     12  C   UNL     1      88.935  68.674  86.661  0.00  0.00    +0.000 A 
ATOM     13  C   UNL     1      87.861  68.092  87.341  0.00  0.00    +0.000 A 
ATOM     14  C   UNL     1      87.821  66.708  87.552  0.00  0.00    +0.000 A 
ATOM     15  C   UNL     1      88.856  65.886  87.095  0.00  0.00    +0.000 A 
ATOM     16  C   UNL     1      89.919  66.462  86.396  0.00  0.00    +0.000 A 
ATOM     17  C   UNL     1      89.959  67.843  86.184  0.00  0.00    +0.000 A 
ATOM     18  C   UNL     1      88.792  64.400  87.295  0.00  0.00    +0.000 C 
ENDBRANCH   9  12
ENDBRANCH   1   9
BRANCH   1  19
ATOM     19  C   UNL     1      88.891  71.854  84.623  0.00  0.00    +0.000 C 
ATOM     20  N   UNL     1      89.515  72.645  84.045  0.00  0.00    +0.000 NA
ENDBRANCH   1  19
TORSDOF 4
ENDMDL
