MODEL 1
REMARK VINA RESULT:      -5.0      0.000      0.000
REMARK  Name = *****
REMARK  2 active torsions:
REMARK  status: ('A' for Active; 'I' for Inactive)
REMARK    1  A    between atoms: C_11  and  C_15
REMARK    2  A    between atoms: N_13  and  O_14
REMARK                            x       y       z     vdW  Elec       q    Type
REMARK                         _______ _______ _______ _____ _____    ______ ____
ROOT
ATOM      1  C   UNL     1      90.048  66.369  85.804  0.00  0.00    +0.000 C 
ATOM      2  C   UNL     1      89.369  67.675  86.109  0.00  0.00    +0.000 A 
ATOM      3  C   UNL     1      88.361  67.770  87.075  0.00  0.00    +0.000 A 
ATOM      4  C   UNL     1      87.811  69.019  87.399  0.00  0.00    +0.000 A 
ATOM      5  C   UNL     1      88.238  70.172  86.741  0.00  0.00    +0.000 A 
ATOM      6  C   UNL     1      89.228  70.075  85.768  0.00  0.00    +0.000 A 
ATOM      7  C   UNL     1      89.796  68.841  85.453  0.00  0.00    +0.000 A 
ATOM      8 CL   UNL     1      89.764  71.492  84.953  0.00  0.00    +0.000 Cl
ATOM      9 CL   UNL     1      86.582  69.170  88.603  0.00  0.00    +0.000 Cl
ATOM     10  O   UNL     1      87.920  66.670  87.760  0.00  0.00    +0.000 OA
ATOM     11  C   UNL     1      87.974  65.451  87.017  0.00  0.00    +0.000 C 
ATOM     12  C   UNL     1      89.373  65.184  86.457  0.00  0.00    +0.000 C 
ATOM     13  N   UNL     1      89.887  63.986  86.468  0.00  0.00    +0.000 NA
ENDROOT
BRANCH  11  14
ATOM     14  C   UNL     1      87.447  64.331  87.905  0.00  0.00    +0.000 A 
ATOM     15  C   UNL     1      87.688  64.360  89.290  0.00  0.00    +0.000 A 
ATOM     16  C   UNL     1      87.195  63.349  90.117  0.00  0.00    +0.000 A 
ATOM     17  C   UNL     1      86.457  62.310  89.564  0.00  0.00    +0.000 A 
ATOM     18  C   UNL     1      86.199  62.262  88.200  0.00  0.00    +0.000 A 
ATOM     19  C   UNL     1      86.689  63.273  87.371  0.00  0.00    +0.000 A 
ATOM     20  F   UNL     1      85.984  61.341  90.359  0.00  0.00    +0.000 F 
ENDBRANCH  11  14
BRANCH  13  21
ATOM     21  O   UNL     1      91.140  63.956  85.848  0.00  0.00    +0.000 OA
ATOM     22  H   UNL     1      91.465  63.154  85.487  0.00  0.00    +0.000 HD
ENDBRANCH  13  21
TORSDOF 2
ENDMDL
