MODEL 1
REMARK VINA RESULT:      -4.8      0.000      0.000
REMARK  Name = *****
REMARK  3 active torsions:
REMARK  status: ('A' for Active; 'I' for Inactive)
REMARK    1  A    between atoms: C_10  and  C_11
REMARK    2  A    between atoms: C_11  and  C_12
REMARK    3  A    between atoms: C_11  and  O_17
REMARK                            x       y       z     vdW  Elec       q    Type
REMARK                         _______ _______ _______ _____ _____    ______ ____
ROOT
ATOM      1  C   UNL     1      84.005  72.459  88.210  0.00  0.00    +0.000 A 
ATOM      2  C   UNL     1      84.987  71.915  89.025  0.00  0.00    +0.000 A 
ATOM      3  C   UNL     1      86.166  71.419  88.461  0.00  0.00    +0.000 A 
ATOM      4  C   UNL     1      86.402  71.451  87.065  0.00  0.00    +0.000 A 
ATOM      5  C   UNL     1      85.382  72.010  86.251  0.00  0.00    +0.000 A 
ATOM      6  C   UNL     1      84.202  72.505  86.833  0.00  0.00    +0.000 A 
ATOM      7  C   UNL     1      85.545  72.069  84.861  0.00  0.00    +0.000 A 
ATOM      8  C   UNL     1      86.699  71.584  84.256  0.00  0.00    +0.000 A 
ATOM      9  C   UNL     1      87.708  71.034  85.037  0.00  0.00    +0.000 A 
ATOM     10  C   UNL     1      87.589  70.959  86.440  0.00  0.00    +0.000 A 
ENDROOT
BRANCH  10  11
ATOM     11  C   UNL     1      88.719  70.332  87.252  0.00  0.00    +0.000 C 
BRANCH  11  12
ATOM     12  C   UNL     1      88.916  68.863  86.981  0.00  0.00    +0.000 A 
ATOM     13  C   UNL     1      89.979  68.219  86.372  0.00  0.00    +0.000 A 
ATOM     14  C   UNL     1      89.803  66.807  86.313  0.00  0.00    +0.000 A 
ATOM     15  C   UNL     1      88.616  66.410  86.889  0.00  0.00    +0.000 A 
ATOM     16  S   UNL     1      87.726  67.735  87.499  0.00  0.00    +0.000 S 
ENDBRANCH  11  12
BRANCH  11  17
ATOM     17  O   UNL     1      89.975  70.955  86.962  0.00  0.00    +0.000 OA
ATOM     18  H   UNL     1      90.015  71.822  87.395  0.00  0.00    +0.000 HD
ENDBRANCH  11  17
ENDBRANCH  10  11
TORSDOF 3
ENDMDL
