MODEL 1
REMARK VINA RESULT:      -4.8      0.000      0.000
REMARK  Name = *****
REMARK  3 active torsions:
REMARK  status: ('A' for Active; 'I' for Inactive)
REMARK    1  A    between atoms: C_1  and  C_2
REMARK    2  A    between atoms: C_2  and  C_11
REMARK    3  A    between atoms: C_11  and  C_12
REMARK                            x       y       z     vdW  Elec       q    Type
REMARK                         _______ _______ _______ _____ _____    ______ ____
ROOT
ATOM      1  C   UNL     1     103.533 127.460  80.561  0.00  0.00    +0.000 C 
ATOM      2  C   UNL     1     103.252 126.804  81.924  0.00  0.00    +0.000 C 
ATOM      3  C   UNL     1     101.982 125.920  81.873  0.00  0.00    +0.000 C 
ATOM      4  C   UNL     1     100.982 126.864  82.424  0.00  0.00    +0.000 A 
ATOM      5  C   UNL     1      99.604 126.755  82.479  0.00  0.00    +0.000 A 
ATOM      6  C   UNL     1      98.887 127.770  83.117  0.00  0.00    +0.000 A 
ATOM      7  C   UNL     1      99.555 128.861  83.698  0.00  0.00    +0.000 A 
ATOM      8  C   UNL     1     100.947 128.950  83.642  0.00  0.00    +0.000 A 
ATOM      9  C   UNL     1     101.633 127.943  82.997  0.00  0.00    +0.000 A 
ATOM     10  O   UNL     1     102.996 127.901  82.865  0.00  0.00    +0.000 OA
ENDROOT
BRANCH   2  11
ATOM     11  C   UNL     1     104.486 126.045  82.465  0.00  0.00    +0.000 C 
BRANCH  11  12
ATOM     12  C   UNL     1     104.576 124.577  82.116  0.00  0.00    +0.000 A 
ATOM     13  C   UNL     1     104.849 124.174  80.803  0.00  0.00    +0.000 A 
ATOM     14  C   UNL     1     104.924 122.818  80.476  0.00  0.00    +0.000 A 
ATOM     15  C   UNL     1     104.734 121.852  81.462  0.00  0.00    +0.000 A 
ATOM     16  C   UNL     1     104.473 122.241  82.774  0.00  0.00    +0.000 A 
ATOM     17  C   UNL     1     104.397 123.596  83.101  0.00  0.00    +0.000 A 
ENDBRANCH  11  12
ENDBRANCH   2  11
TORSDOF 2
ENDMDL
