MODEL 1
REMARK VINA RESULT:      -5.4      0.000      0.000
REMARK  Name = *****
REMARK  3 active torsions:
REMARK  status: ('A' for Active; 'I' for Inactive)
REMARK    1  A    between atoms: C_10  and  C_11
REMARK    2  A    between atoms: C_11  and  C_12
REMARK    3  A    between atoms: C_11  and  O_19
REMARK                            x       y       z     vdW  Elec       q    Type
REMARK                         _______ _______ _______ _____ _____    ______ ____
ROOT
ATOM      1  C   UNL     1      83.821  72.616  88.175  0.00  0.00    +0.000 A 
ATOM      2  C   UNL     1      84.730  72.040  89.051  0.00  0.00    +0.000 A 
ATOM      3  C   UNL     1      85.901  71.458  88.559  0.00  0.00    +0.000 A 
ATOM      4  C   UNL     1      86.202  71.429  87.175  0.00  0.00    +0.000 A 
ATOM      5  C   UNL     1      85.259  72.028  86.298  0.00  0.00    +0.000 A 
ATOM      6  C   UNL     1      84.086  72.609  86.809  0.00  0.00    +0.000 A 
ATOM      7  C   UNL     1      85.493  72.044  84.917  0.00  0.00    +0.000 A 
ATOM      8  C   UNL     1      86.646  71.481  84.381  0.00  0.00    +0.000 A 
ATOM      9  C   UNL     1      87.579  70.887  85.224  0.00  0.00    +0.000 A 
ATOM     10  C   UNL     1      87.383  70.844  86.620  0.00  0.00    +0.000 A 
ENDROOT
BRANCH  10  11
ATOM     11  C   UNL     1      88.430  70.157  87.501  0.00  0.00    +0.000 C 
BRANCH  11  12
ATOM     12  C   UNL     1      88.696  68.698  87.151  0.00  0.00    +0.000 A 
ATOM     13  C   UNL     1      89.856  68.355  86.427  0.00  0.00    +0.000 A 
ATOM     14  C   UNL     1      90.144  67.026  86.105  0.00  0.00    +0.000 A 
ATOM     15  C   UNL     1      89.286  66.011  86.510  0.00  0.00    +0.000 A 
ATOM     16  C   UNL     1      88.145  66.324  87.246  0.00  0.00    +0.000 A 
ATOM     17  C   UNL     1      87.854  67.654  87.571  0.00  0.00    +0.000 A 
ATOM     18 CL   UNL     1      86.439  67.932  88.525  0.00  0.00    +0.000 Cl
ENDBRANCH  11  12
BRANCH  11  19
ATOM     19  O   UNL     1      89.682  70.854  87.451  0.00  0.00    +0.000 OA
ATOM     20  H   UNL     1      89.520  71.804  87.341  0.00  0.00    +0.000 HD
ENDBRANCH  11  19
ENDBRANCH  10  11
TORSDOF 3
ENDMDL
