REMARK  Name = *****
REMARK  2 active torsions:
REMARK  status: ('A' for Active; 'I' for Inactive)
REMARK    1  A    between atoms: C_9  and  C_11
REMARK    2  A    between atoms: C_11  and  C_12
REMARK                            x       y       z     vdW  Elec       q    Type
REMARK                         _______ _______ _______ _____ _____    ______ ____
ROOT
ATOM      1  C   UNL     1       2.778  -0.223   0.100  0.00  0.00    +0.000 C 
ATOM      2  C   UNL     1       2.115   1.011  -0.507  0.00  0.00    +0.000 C 
ATOM      3  C   UNL     1       0.793   1.326   0.186  0.00  0.00    +0.000 C 
ATOM      4  C   UNL     1      -0.178   0.138   0.162  0.00  0.00    +0.000 C 
ATOM      5  C   UNL     1       0.502  -1.108   0.758  0.00  0.00    +0.000 C 
ATOM      6  C   UNL     1       1.843  -1.430   0.101  0.00  0.00    +0.000 C 
ATOM      7  C   UNL     1      -0.760  -0.115  -1.234  0.00  0.00    +0.000 C 
ATOM      8  C   UNL     1      -2.170  -0.561  -0.930  0.00  0.00    +0.000 C 
ATOM      9  C   UNL     1      -2.524   0.331   0.247  0.00  0.00    +0.000 C 
ATOM     10  O   UNL     1      -1.306   0.456   1.007  0.00  0.00    +0.000 OA
ENDROOT
BRANCH   9  11
ATOM     11  C   UNL     1      -3.648  -0.250   1.109  0.00  0.00    +0.000 C 
BRANCH  11  12
ATOM     12  C   UNL     1      -4.272   0.779   2.024  0.00  0.00    +0.000 A 
ATOM     13  C   UNL     1      -5.538   1.311   1.742  0.00  0.00    +0.000 A 
ATOM     14  C   UNL     1      -6.108   2.266   2.586  0.00  0.00    +0.000 A 
ATOM     15  C   UNL     1      -5.420   2.698   3.718  0.00  0.00    +0.000 A 
ATOM     16  C   UNL     1      -4.160   2.178   4.007  0.00  0.00    +0.000 A 
ATOM     17  C   UNL     1      -3.589   1.223   3.164  0.00  0.00    +0.000 A 
ENDBRANCH  11  12
ENDBRANCH   9  11
TORSDOF 2
