MODEL 1
REMARK VINA RESULT:      -5.1      0.000      0.000
REMARK  Name = *****
REMARK  3 active torsions:
REMARK  status: ('A' for Active; 'I' for Inactive)
REMARK    1  A    between atoms: C_1  and  O_2
REMARK    2  A    between atoms: O_2  and  C_3
REMARK    3  A    between atoms: C_3  and  C_15
REMARK                            x       y       z     vdW  Elec       q    Type
REMARK                         _______ _______ _______ _____ _____    ______ ____
ROOT
ATOM      1  C   UNL     1      88.864  70.064  86.372  0.00  0.00    +0.000 C 
ATOM      2  C   UNL     1      88.299  69.394  85.134  0.00  0.00    +0.000 C 
ATOM      3  C   UNL     1      88.513  68.096  84.863  0.00  0.00    +0.000 C 
ATOM      4  C   UNL     1      89.441  67.251  85.719  0.00  0.00    +0.000 C 
ATOM      5  C   UNL     1      90.408  66.504  84.776  0.00  0.00    +0.000 C 
ATOM      6  C   UNL     1      91.214  65.384  85.439  0.00  0.00    +0.000 C 
ATOM      7  C   UNL     1      90.494  64.036  85.387  0.00  0.00    +0.000 C 
ATOM      8  C   UNL     1      89.280  63.910  86.300  0.00  0.00    +0.000 C 
ATOM      9  C   UNL     1      88.217  64.995  86.129  0.00  0.00    +0.000 C 
ATOM     10  C   UNL     1      88.665  66.344  86.692  0.00  0.00    +0.000 C 
ATOM     11  O   UNL     1      90.282  68.149  86.488  0.00  0.00    +0.000 OA
ATOM     12  O   UNL     1      89.421  69.065  87.262  0.00  0.00    +0.000 OA
ENDROOT
BRANCH   1  13
ATOM     13  C   UNL     1      87.710  70.725  87.154  0.00  0.00    +0.000 A 
ATOM     14  C   UNL     1      87.763  70.833  88.559  0.00  0.00    +0.000 A 
ATOM     15  C   UNL     1      86.715  71.406  89.283  0.00  0.00    +0.000 A 
ATOM     16  C   UNL     1      85.588  71.882  88.620  0.00  0.00    +0.000 A 
ATOM     17  C   UNL     1      85.508  71.784  87.234  0.00  0.00    +0.000 A 
ATOM     18  C   UNL     1      86.556  71.208  86.509  0.00  0.00    +0.000 A 
ENDBRANCH   1  13
BRANCH   1  20
ATOM     19  C   UNL     1      89.809  71.424  84.608  0.00  0.00    +0.000 C 
ATOM     20  O   UNL     1      89.773  71.104  85.985  0.00  0.00    +0.000 OA
ENDBRANCH   1  20
TORSDOF 2
ENDMDL
