MODEL 1
REMARK VINA RESULT:      -4.8      0.000      0.000
REMARK  Name = *****
REMARK  2 active torsions:
REMARK  status: ('A' for Active; 'I' for Inactive)
REMARK    1  A    between atoms: C_11  and  C_12
REMARK    2  A    between atoms: C_15  and  C_18
REMARK                            x       y       z     vdW  Elec       q    Type
REMARK                         _______ _______ _______ _____ _____    ______ ____
ROOT
ATOM      1  C   UNL     1     100.203 126.710  82.494  0.00  0.00    +0.000 C 
ATOM      2  C   UNL     1      99.204 127.158  83.551  0.00  0.00    +0.000 C 
ATOM      3  C   UNL     1      99.572 128.512  84.086  0.00  0.00    +0.000 A 
ATOM      4  C   UNL     1     100.859 129.032  83.901  0.00  0.00    +0.000 A 
ATOM      5  C   UNL     1     101.188 130.297  84.389  0.00  0.00    +0.000 A 
ATOM      6  C   UNL     1     100.242 131.044  85.092  0.00  0.00    +0.000 A 
ATOM      7  C   UNL     1      98.968 130.522  85.300  0.00  0.00    +0.000 A 
ATOM      8  C   UNL     1      98.630 129.262  84.804  0.00  0.00    +0.000 A 
ATOM      9 CL   UNL     1      97.801 131.437  86.173  0.00  0.00    +0.000 Cl
ATOM     10  O   UNL     1     101.849 128.377  83.220  0.00  0.00    +0.000 OA
ATOM     11  C   UNL     1     101.617 126.975  83.010  0.00  0.00    +0.000 C 
ENDROOT
BRANCH  11  12
ATOM     12  C   UNL     1     102.650 126.455  82.024  0.00  0.00    +0.000 A 
ATOM     13  C   UNL     1     103.084 125.122  82.099  0.00  0.00    +0.000 A 
ATOM     14  C   UNL     1     104.018 124.626  81.184  0.00  0.00    +0.000 A 
ATOM     15  C   UNL     1     104.527 125.455  80.180  0.00  0.00    +0.000 A 
ATOM     16  C   UNL     1     104.098 126.782  80.094  0.00  0.00    +0.000 A 
ATOM     17  C   UNL     1     103.164 127.276  81.009  0.00  0.00    +0.000 A 
BRANCH  15  18
ATOM     18  C   UNL     1     105.486 124.945  79.243  0.00  0.00    +0.000 C 
ATOM     19  N   UNL     1     106.260 124.535  78.482  0.00  0.00    +0.000 NA
ENDBRANCH  15  18
ENDBRANCH  11  12
TORSDOF 2
ENDMDL
