MODEL 1
REMARK VINA RESULT:      -5.4      0.000      0.000
REMARK  Name = *****
REMARK  0 active torsions:
REMARK  status: ('A' for Active; 'I' for Inactive)
REMARK                            x       y       z     vdW  Elec       q    Type
REMARK                         _______ _______ _______ _____ _____    ______ ____
ROOT
ATOM      1  C   UNL     1     103.958 127.781  81.451  0.00  0.00    +0.000 C 
ATOM      2  C   UNL     1     103.570 127.402  82.896  0.00  0.00    +0.000 C 
ATOM      3  C   UNL     1     102.641 128.385  83.580  0.00  0.00    +0.000 C 
ATOM      4  C   UNL     1     101.202 128.137  83.250  0.00  0.00    +0.000 A 
ATOM      5  C   UNL     1     100.244 129.119  83.549  0.00  0.00    +0.000 A 
ATOM      6  C   UNL     1      98.894 128.904  83.268  0.00  0.00    +0.000 A 
ATOM      7  C   UNL     1      98.489 127.704  82.689  0.00  0.00    +0.000 A 
ATOM      8  C   UNL     1      99.435 126.721  82.400  0.00  0.00    +0.000 A 
ATOM      9  C   UNL     1     100.785 126.930  82.691  0.00  0.00    +0.000 A 
ATOM     10  O   UNL     1     101.620 125.905  82.357  0.00  0.00    +0.000 OA
ATOM     11  C   UNL     1     102.969 125.987  82.807  0.00  0.00    +0.000 C 
ATOM     12  C   UNL     1     103.827 125.415  81.708  0.00  0.00    +0.000 A 
ATOM     13  C   UNL     1     104.049 124.083  81.397  0.00  0.00    +0.000 A 
ATOM     14  C   UNL     1     104.857 123.788  80.297  0.00  0.00    +0.000 A 
ATOM     15  C   UNL     1     105.416 124.817  79.521  0.00  0.00    +0.000 A 
ATOM     16  C   UNL     1     105.176 126.157  79.833  0.00  0.00    +0.000 A 
ATOM     17  C   UNL     1     104.386 126.441  80.932  0.00  0.00    +0.000 A 
ENDROOT
TORSDOF 0
ENDMDL
