MODEL 1
REMARK VINA RESULT:      -5.0      0.000      0.000
REMARK  Name = *****
REMARK  4 active torsions:
REMARK  status: ('A' for Active; 'I' for Inactive)
REMARK    1  A    between atoms: C_1  and  C_2
REMARK    2  A    between atoms: C_2  and  C_13
REMARK    3  A    between atoms: C_9  and  O_11
REMARK    4  A    between atoms: O_11  and  C_12
REMARK                            x       y       z     vdW  Elec       q    Type
REMARK                         _______ _______ _______ _____ _____    ______ ____
ROOT
ATOM      1  C   UNL     1     103.497 128.029  83.204  0.00  0.00    +0.000 C 
ATOM      2  C   UNL     1     102.523 126.926  82.748  0.00  0.00    +0.000 C 
ATOM      3  C   UNL     1     102.740 125.610  83.545  0.00  0.00    +0.000 C 
ATOM      4  C   UNL     1     103.534 124.831  82.569  0.00  0.00    +0.000 A 
ATOM      5  C   UNL     1     103.525 125.471  81.346  0.00  0.00    +0.000 A 
ATOM      6  O   UNL     1     102.845 126.657  81.345  0.00  0.00    +0.000 OA
ATOM      7  C   UNL     1     104.145 124.932  80.239  0.00  0.00    +0.000 A 
ATOM      8  C   UNL     1     104.797 123.702  80.380  0.00  0.00    +0.000 A 
ATOM      9  C   UNL     1     104.810 123.037  81.619  0.00  0.00    +0.000 A 
ATOM     10  C   UNL     1     104.170 123.609  82.724  0.00  0.00    +0.000 A 
ENDROOT
BRANCH   2  11
ATOM     11  C   UNL     1     101.081 127.420  82.886  0.00  0.00    +0.000 A 
ATOM     12  C   UNL     1     100.780 128.647  83.503  0.00  0.00    +0.000 A 
ATOM     13  C   UNL     1      99.459 129.090  83.614  0.00  0.00    +0.000 A 
ATOM     14  C   UNL     1      98.416 128.318  83.112  0.00  0.00    +0.000 A 
ATOM     15  C   UNL     1      98.691 127.099  82.498  0.00  0.00    +0.000 A 
ATOM     16  C   UNL     1     100.011 126.654  82.385  0.00  0.00    +0.000 A 
ENDBRANCH   2  11
BRANCH   9  17
ATOM     17  O   UNL     1     105.406 121.830  81.872  0.00  0.00    +0.000 OA
ATOM     18  C   UNL     1     104.550 120.699  81.967  0.00  0.00    +0.000 C 
ENDBRANCH   9  17
TORSDOF 2
ENDMDL
