MODEL 1
REMARK VINA RESULT:      -4.8      0.000      0.000
REMARK  Name = *****
REMARK  3 active torsions:
REMARK  status: ('A' for Active; 'I' for Inactive)
REMARK    1  A    between atoms: C_1  and  C_2
REMARK    2  A    between atoms: C_9  and  C_13
REMARK    3  A    between atoms: N_10  and  C_12
REMARK                            x       y       z     vdW  Elec       q    Type
REMARK                         _______ _______ _______ _____ _____    ______ ____
ROOT
ATOM      1  C   UNL     1      98.887 126.739  82.445  0.00  0.00    +0.000 C 
ATOM      2  C   UNL     1      99.582 127.853  83.175  0.00  0.00    +0.000 A 
ATOM      3  C   UNL     1      98.841 128.773  83.930  0.00  0.00    +0.000 A 
ATOM      4  C   UNL     1      99.489 129.802  84.611  0.00  0.00    +0.000 A 
ATOM      5  C   UNL     1     100.875 129.923  84.559  0.00  0.00    +0.000 A 
ATOM      6  C   UNL     1     101.631 129.004  83.819  0.00  0.00    +0.000 A 
ATOM      7  C   UNL     1     100.979 127.987  83.118  0.00  0.00    +0.000 A 
ATOM      8  O   UNL     1     101.668 127.066  82.378  0.00  0.00    +0.000 OA
ATOM      9  C   UNL     1     103.063 127.354  82.155  0.00  0.00    +0.000 C 
ATOM     10  N   UNL     1     103.757 127.867  83.350  0.00  0.00    +0.000 N 
ATOM     11  C   UNL     1     103.123 129.131  83.735  0.00  0.00    +0.000 C 
ATOM     12  C   UNL     1     105.183 128.094  83.110  0.00  0.00    +0.000 C 
ATOM     13 CL   UNL     1      98.567 130.932  85.526  0.00  0.00    +0.000 Cl
ATOM     14  H   UNL     1     103.684 127.170  84.091  0.00  0.00    +0.000 HD
ENDROOT
BRANCH   9  15
ATOM     15  C   UNL     1     103.646 126.041  81.645  0.00  0.00    +0.000 A 
ATOM     16  C   UNL     1     103.687 124.907  82.473  0.00  0.00    +0.000 A 
ATOM     17  C   UNL     1     104.218 123.704  82.002  0.00  0.00    +0.000 A 
ATOM     18  C   UNL     1     104.714 123.620  80.702  0.00  0.00    +0.000 A 
ATOM     19  C   UNL     1     104.683 124.737  79.870  0.00  0.00    +0.000 A 
ATOM     20  C   UNL     1     104.153 125.940  80.337  0.00  0.00    +0.000 A 
ENDBRANCH   9  15
TORSDOF 1
ENDMDL
