REMARK  Name = *****
REMARK  2 active torsions:
REMARK  status: ('A' for Active; 'I' for Inactive)
REMARK    1  A    between atoms: C_2  and  S_10
REMARK    2  A    between atoms: S_10  and  C_11
REMARK                            x       y       z     vdW  Elec       q    Type
REMARK                         _______ _______ _______ _____ _____    ______ ____
ROOT
ATOM      1  C   UNL     1       1.574   1.204  -0.093  0.00  0.00    +0.000 C 
ATOM      2  C   UNL     1       2.243  -0.092  -0.590  0.00  0.00    +0.000 C 
ATOM      3  O   UNL     1       1.370  -1.208  -0.269  0.00  0.00    +0.000 OA
ATOM      4  C   UNL     1       0.137  -0.638  -0.097  0.00  0.00    +0.000 A 
ATOM      5  C   UNL     1      -1.040  -1.350   0.004  0.00  0.00    +0.000 A 
ATOM      6  C   UNL     1      -2.224  -0.631   0.175  0.00  0.00    +0.000 A 
ATOM      7  C   UNL     1      -2.202   0.772   0.251  0.00  0.00    +0.000 A 
ATOM      8  C   UNL     1      -0.995   1.473   0.162  0.00  0.00    +0.000 A 
ATOM      9  C   UNL     1       0.167   0.745  -0.020  0.00  0.00    +0.000 A 
ENDROOT
BRANCH   2  10
ATOM     10  S   UNL     1       2.600   0.001  -2.396  0.00  0.00    +0.000 S 
BRANCH  10  11
ATOM     11  C   UNL     1       3.612  -1.452  -2.593  0.00  0.00    +0.000 A 
ATOM     12  C   UNL     1       3.087  -2.736  -2.417  0.00  0.00    +0.000 A 
ATOM     13  C   UNL     1       3.894  -3.861  -2.599  0.00  0.00    +0.000 A 
ATOM     14  C   UNL     1       5.228  -3.710  -2.970  0.00  0.00    +0.000 A 
ATOM     15  C   UNL     1       5.755  -2.434  -3.164  0.00  0.00    +0.000 A 
ATOM     16  C   UNL     1       4.948  -1.309  -2.981  0.00  0.00    +0.000 A 
ENDBRANCH  10  11
ENDBRANCH   2  10
TORSDOF 2
