MODEL 1
REMARK VINA RESULT:      -4.3      0.000      0.000
REMARK  Name = *****
REMARK  6 active torsions:
REMARK  status: ('A' for Active; 'I' for Inactive)
REMARK    1  A    between atoms: C_1  and  C_2
REMARK    2  A    between atoms: C_5  and  C_8
REMARK    3  A    between atoms: C_8  and  C_9
REMARK    4  A    between atoms: C_8  and  O_19
REMARK    5  A    between atoms: C_9  and  S_12
REMARK    6  A    between atoms: S_12  and  C_13
REMARK                            x       y       z     vdW  Elec       q    Type
REMARK                         _______ _______ _______ _____ _____    ______ ____
ROOT
ATOM      1  C   UNL     1      86.613  63.146  86.412  0.00  0.00    +0.000 C 
ENDROOT
BRANCH   1   6
ATOM      2  C   UNL     1      83.590  61.154  91.002  0.00  0.00    +0.000 C 
ATOM      3  C   UNL     1      84.368  61.692  89.839  0.00  0.00    +0.000 A 
ATOM      4  C   UNL     1      85.701  61.317  89.643  0.00  0.00    +0.000 A 
ATOM      5  C   UNL     1      86.418  61.796  88.542  0.00  0.00    +0.000 A 
ATOM      6  C   UNL     1      85.815  62.650  87.604  0.00  0.00    +0.000 A 
ATOM      7  C   UNL     1      84.475  63.013  87.804  0.00  0.00    +0.000 A 
ATOM      8  C   UNL     1      83.757  62.535  88.906  0.00  0.00    +0.000 A 
ENDBRANCH   1   6
BRANCH   1   9
ATOM      9  C   UNL     1      86.754  64.677  86.368  0.00  0.00    +0.000 C 
ATOM     10  C   UNL     1      85.513  65.529  86.151  0.00  0.00    +0.000 C 
ATOM     11  C   UNL     1      86.459  65.323  85.013  0.00  0.00    +0.000 C 
BRANCH   9  12
ATOM     12  S   UNL     1      88.208  65.318  87.178  0.00  0.00    +0.000 S 
BRANCH  12  13
ATOM     13  C   UNL     1      87.830  64.979  88.886  0.00  0.00    +0.000 A 
ATOM     14  C   UNL     1      86.676  65.480  89.493  0.00  0.00    +0.000 A 
ATOM     15  C   UNL     1      86.397  65.190  90.830  0.00  0.00    +0.000 A 
ATOM     16  C   UNL     1      87.265  64.384  91.566  0.00  0.00    +0.000 A 
ATOM     17  C   UNL     1      88.408  63.864  90.963  0.00  0.00    +0.000 A 
ATOM     18  C   UNL     1      88.688  64.157  89.626  0.00  0.00    +0.000 A 
ENDBRANCH  12  13
ENDBRANCH   9  12
ENDBRANCH   1   9
BRANCH   1  19
ATOM     19  O   UNL     1      87.907  62.534  86.356  0.00  0.00    +0.000 OA
ATOM     20  H   UNL     1      87.958  61.956  85.580  0.00  0.00    +0.000 HD
ENDBRANCH   1  19
TORSDOF 5
ENDMDL
