REMARK  Name = *****
REMARK  2 active torsions:
REMARK  status: ('A' for Active; 'I' for Inactive)
REMARK    1  A    between atoms: C_1  and  C_2
REMARK    2  A    between atoms: C_4  and  C_12
REMARK                            x       y       z     vdW  Elec       q    Type
REMARK                         _______ _______ _______ _____ _____    ______ ____
ROOT
ATOM      1  C   UNL     1       1.262   0.612  -0.464  0.00  0.00    +0.000 C 
ATOM      2  C   UNL     1       2.703   0.188  -0.172  0.00  0.00    +0.000 C 
ATOM      3  C   UNL     1       2.862  -1.323   0.003  0.00  0.00    +0.000 C 
ATOM      4  C   UNL     1       2.507  -1.799   1.417  0.00  0.00    +0.000 C 
ATOM      5  O   UNL     1       3.246  -1.102   2.432  0.00  0.00    +0.000 OA
ATOM      6  C   UNL     1       3.501   0.226   2.228  0.00  0.00    +0.000 A 
ATOM      7  C   UNL     1       4.047   0.901   3.322  0.00  0.00    +0.000 A 
ATOM      8  C   UNL     1       4.347   2.260   3.236  0.00  0.00    +0.000 A 
ATOM      9  C   UNL     1       4.105   2.947   2.050  0.00  0.00    +0.000 A 
ATOM     10  C   UNL     1       3.568   2.273   0.952  0.00  0.00    +0.000 A 
ATOM     11  C   UNL     1       3.262   0.904   1.029  0.00  0.00    +0.000 A 
ENDROOT
BRANCH   4  12
ATOM     12  C   UNL     1       1.016  -1.897   1.721  0.00  0.00    +0.000 A 
ATOM     13  C   UNL     1       0.194  -2.716   0.927  0.00  0.00    +0.000 A 
ATOM     14  C   UNL     1      -1.174  -2.831   1.187  0.00  0.00    +0.000 A 
ATOM     15  C   UNL     1      -1.741  -2.138   2.252  0.00  0.00    +0.000 A 
ATOM     16  C   UNL     1      -0.941  -1.336   3.060  0.00  0.00    +0.000 A 
ATOM     17  C   UNL     1       0.427  -1.220   2.800  0.00  0.00    +0.000 A 
ENDBRANCH   4  12
TORSDOF 1
