MODEL 1
REMARK VINA RESULT:      -4.7      0.000      0.000
REMARK  Name = *****
REMARK  1 active torsions:
REMARK  status: ('A' for Active; 'I' for Inactive)
REMARK    1  A    between atoms: C_6  and  C_12
REMARK                            x       y       z     vdW  Elec       q    Type
REMARK                         _______ _______ _______ _____ _____    ______ ____
ROOT
ATOM      1  C   UNL     1      94.919 115.373  75.810  0.00  0.00    +0.000 C 
ATOM      2  C   UNL     1      96.177 116.220  75.647  0.00  0.00    +0.000 C 
ATOM      3  C   UNL     1      96.810 116.592  76.988  0.00  0.00    +0.000 C 
ATOM      4  C   UNL     1      97.082 115.336  77.832  0.00  0.00    +0.000 C 
ATOM      5  C   UNL     1      97.808 115.660  79.145  0.00  0.00    +0.000 C 
ATOM      6  C   UNL     1      96.897 116.171  80.234  0.00  0.00    +0.000 C 
ATOM      7  C   UNL     1      95.407 115.901  80.173  0.00  0.00    +0.000 C 
ATOM      8  O   UNL     1      96.267 115.077  80.950  0.00  0.00    +0.000 OA
ATOM      9  C   UNL     1      94.788 115.259  78.978  0.00  0.00    +0.000 C 
ATOM     10  C   UNL     1      95.791 114.527  78.067  0.00  0.00    +0.000 C 
ATOM     11  C   UNL     1      95.145 114.162  76.718  0.00  0.00    +0.000 C 
ENDROOT
BRANCH   6  12
ATOM     12  C   UNL     1      97.396 117.334  81.058  0.00  0.00    +0.000 A 
ATOM     13  C   UNL     1      97.960 118.468  80.447  0.00  0.00    +0.000 A 
ATOM     14  C   UNL     1      98.435 119.543  81.202  0.00  0.00    +0.000 A 
ATOM     15  C   UNL     1      98.355 119.505  82.591  0.00  0.00    +0.000 A 
ATOM     16  C   UNL     1      97.802 118.394  83.223  0.00  0.00    +0.000 A 
ATOM     17  C   UNL     1      97.330 117.322  82.461  0.00  0.00    +0.000 A 
ENDBRANCH   6  12
TORSDOF 1
ENDMDL
