MODEL 1
REMARK VINA RESULT:      -5.2      0.000      0.000
REMARK  Name = *****
REMARK  3 active torsions:
REMARK  status: ('A' for Active; 'I' for Inactive)
REMARK    1  A    between atoms: C_3  and  C_8
REMARK    2  A    between atoms: C_8  and  O_9
REMARK    3  A    between atoms: O_9  and  C_10
REMARK                            x       y       z     vdW  Elec       q    Type
REMARK                         _______ _______ _______ _____ _____    ______ ____
ROOT
ATOM      1  C   UNL     1      88.675  68.571  87.019  0.00  0.00    +0.000 A 
ATOM      2  C   UNL     1      89.781  68.064  86.335  0.00  0.00    +0.000 A 
ATOM      3  C   UNL     1      89.920  66.687  86.176  0.00  0.00    +0.000 A 
ATOM      4  C   UNL     1      88.980  65.795  86.683  0.00  0.00    +0.000 A 
ATOM      5  C   UNL     1      87.876  66.303  87.369  0.00  0.00    +0.000 A 
ATOM      6  C   UNL     1      87.724  67.686  87.536  0.00  0.00    +0.000 A 
ATOM      7  C   UNL     1      89.181  64.370  86.485  0.00  0.00    +0.000 A 
ATOM      8  C   UNL     1      90.259  63.946  85.818  0.00  0.00    +0.000 A 
ATOM      9  C   UNL     1      91.267  64.871  85.270  0.00  0.00    +0.000 A 
ATOM     10  O   UNL     1      92.241  64.444  84.663  0.00  0.00    +0.000 OA
ATOM     11  O   UNL     1      91.053  66.227  85.476  0.00  0.00    +0.000 OA
ENDROOT
BRANCH   1  12
ATOM     12  O   UNL     1      88.642  69.934  87.114  0.00  0.00    +0.000 OA
BRANCH  12  13
ATOM     13  C   UNL     1      87.927  70.645  86.103  0.00  0.00    +0.000 C 
BRANCH  13  16
ATOM     14  C   UNL     1      85.338  71.839  88.647  0.00  0.00    +0.000 A 
ATOM     15  C   UNL     1      86.484  71.266  88.093  0.00  0.00    +0.000 A 
ATOM     16  C   UNL     1      86.671  71.234  86.702  0.00  0.00    +0.000 A 
ATOM     17  C   UNL     1      85.692  71.808  85.876  0.00  0.00    +0.000 A 
ATOM     18  C   UNL     1      84.549  72.381  86.435  0.00  0.00    +0.000 A 
ATOM     19  C   UNL     1      84.367  72.398  87.817  0.00  0.00    +0.000 A 
ATOM     20 CL   UNL     1      83.355  73.078  85.409  0.00  0.00    +0.000 Cl
ENDBRANCH  13  16
ENDBRANCH  12  13
ENDBRANCH   1  12
TORSDOF 3
ENDMDL
