REMARK  Name = *****
REMARK  3 active torsions:
REMARK  status: ('A' for Active; 'I' for Inactive)
REMARK    1  A    between atoms: C_1  and  C_2
REMARK    2  A    between atoms: C_2  and  C_3
REMARK    3  A    between atoms: C_5  and  C_13
REMARK                            x       y       z     vdW  Elec       q    Type
REMARK                         _______ _______ _______ _____ _____    ______ ____
ROOT
ATOM      1  C   UNL     1       2.930   0.944  -1.070  0.00  0.00    +0.000 C 
ATOM      2  C   UNL     1       2.905   2.445  -0.742  0.00  0.00    +0.000 C 
ATOM      3  C   UNL     1       3.042   3.254  -2.029  0.00  0.00    +0.000 C 
ATOM      4  O   UNL     1       1.906   3.036  -2.875  0.00  0.00    +0.000 OA
ATOM      5  C   UNL     1       1.645   1.715  -3.122  0.00  0.00    +0.000 A 
ATOM      6  C   UNL     1       0.857   1.465  -4.249  0.00  0.00    +0.000 A 
ATOM      7  C   UNL     1       0.558   0.157  -4.618  0.00  0.00    +0.000 A 
ATOM      8  C   UNL     1       1.050  -0.901  -3.860  0.00  0.00    +0.000 A 
ATOM      9  C   UNL     1       1.821  -0.650  -2.722  0.00  0.00    +0.000 A 
ATOM     10  C   UNL     1       2.104   0.665  -2.315  0.00  0.00    +0.000 A 
ENDROOT
BRANCH   3  11
ATOM     11  C   UNL     1       3.163   4.737  -1.718  0.00  0.00    +0.000 A 
ATOM     12  C   UNL     1       4.431   5.307  -1.524  0.00  0.00    +0.000 A 
ATOM     13  C   UNL     1       4.563   6.663  -1.216  0.00  0.00    +0.000 A 
ATOM     14  C   UNL     1       3.430   7.465  -1.096  0.00  0.00    +0.000 A 
ATOM     15  C   UNL     1       2.164   6.911  -1.279  0.00  0.00    +0.000 A 
ATOM     16  C   UNL     1       2.031   5.555  -1.584  0.00  0.00    +0.000 A 
ENDBRANCH   3  11
BRANCH   1  18
ATOM     17  C   UNL     1       3.334   0.344   1.398  0.00  0.00    +0.000 C 
ATOM     18  C   UNL     1       2.487   0.109   0.154  0.00  0.00    +0.000 C 
ENDBRANCH   1  18
TORSDOF 2
