MODEL 1
REMARK VINA RESULT:      -5.1      0.000      0.000
REMARK  Name = *****
REMARK  2 active torsions:
REMARK  status: ('A' for Active; 'I' for Inactive)
REMARK    1  A    between atoms: C_1  and  C_2
REMARK    2  A    between atoms: C_11  and  C_13
REMARK                            x       y       z     vdW  Elec       q    Type
REMARK                         _______ _______ _______ _____ _____    ______ ____
ROOT
ATOM      1  C   UNL     1      88.605  64.548  87.537  0.00  0.00    +0.000 C 
ATOM      2  C   UNL     1      88.786  65.975  87.108  0.00  0.00    +0.000 A 
ATOM      3  C   UNL     1      87.753  66.905  87.288  0.00  0.00    +0.000 A 
ATOM      4  C   UNL     1      87.912  68.225  86.867  0.00  0.00    +0.000 A 
ATOM      5  C   UNL     1      89.088  68.611  86.225  0.00  0.00    +0.000 A 
ATOM      6  C   UNL     1      90.122  67.693  86.028  0.00  0.00    +0.000 A 
ATOM      7  C   UNL     1      89.968  66.376  86.468  0.00  0.00    +0.000 A 
ATOM      8  C   UNL     1      89.201  69.992  85.716  0.00  0.00    +0.000 C 
ATOM      9  O   UNL     1      90.223  70.382  85.162  0.00  0.00    +0.000 OA
ATOM     10  C   UNL     1      87.976  70.853  85.849  0.00  0.00    +0.000 C 
ATOM     11  C   UNL     1      87.255  70.455  87.129  0.00  0.00    +0.000 C 
ATOM     12  O   UNL     1      86.861  69.074  87.093  0.00  0.00    +0.000 OA
ENDROOT
BRANCH  11  13
ATOM     13  C   UNL     1      86.017  71.313  87.332  0.00  0.00    +0.000 A 
ATOM     14  C   UNL     1      85.530  71.599  88.619  0.00  0.00    +0.000 A 
ATOM     15  C   UNL     1      84.378  72.368  88.787  0.00  0.00    +0.000 A 
ATOM     16  C   UNL     1      83.706  72.849  87.671  0.00  0.00    +0.000 A 
ATOM     17  C   UNL     1      84.164  72.574  86.388  0.00  0.00    +0.000 A 
ATOM     18  C   UNL     1      85.316  71.805  86.217  0.00  0.00    +0.000 A 
ATOM     19  F   UNL     1      82.600  73.587  87.832  0.00  0.00    +0.000 F 
ENDBRANCH  11  13
TORSDOF 1
ENDMDL
