REMARK  Name = *****
REMARK  3 active torsions:
REMARK  status: ('A' for Active; 'I' for Inactive)
REMARK    1  A    between atoms: C_4  and  S_7
REMARK    2  A    between atoms: S_7  and  C_10
REMARK    3  A    between atoms: C_11  and  C_12
REMARK                            x       y       z     vdW  Elec       q    Type
REMARK                         _______ _______ _______ _____ _____    ______ ____
ROOT
ATOM      1  S   UNL     1      -3.068   0.645  -0.300  0.00  0.00    +0.000 S 
ATOM      2  O   UNL     1      -3.285   0.757   1.132  0.00  0.00    +0.000 OA
ATOM      3  O   UNL     1      -3.437   1.738  -1.185  0.00  0.00    +0.000 OA
ENDROOT
BRANCH   1   7
ATOM      4  C   UNL     1       1.432   0.060  -0.816  0.00  0.00    +0.000 A 
ATOM      5  C   UNL     1       0.692   0.679  -1.826  0.00  0.00    +0.000 A 
ATOM      6  C   UNL     1      -0.683   0.857  -1.676  0.00  0.00    +0.000 A 
ATOM      7  C   UNL     1      -1.311   0.400  -0.513  0.00  0.00    +0.000 A 
ATOM      8  C   UNL     1      -0.572  -0.205   0.509  0.00  0.00    +0.000 A 
ATOM      9  C   UNL     1       0.802  -0.379   0.350  0.00  0.00    +0.000 A 
ENDBRANCH   1   7
BRANCH   1  10
ATOM     10  C   UNL     1      -3.719  -0.850  -0.908  0.00  0.00    +0.000 C 
ATOM     11  C   UNL     1      -4.998  -1.217  -0.738  0.00  0.00    +0.000 C 
ATOM     12  F   UNL     1      -2.910  -1.719  -1.563  0.00  0.00    +0.000 F 
BRANCH  11  13
ATOM     13  C   UNL     1      -6.010  -0.466  -0.082  0.00  0.00    +0.000 A 
ATOM     14  C   UNL     1      -6.449   0.831  -0.286  0.00  0.00    +0.000 A 
ATOM     15  C   UNL     1      -7.509   1.206   0.590  0.00  0.00    +0.000 A 
ATOM     16  C   UNL     1      -7.873   0.176   1.426  0.00  0.00    +0.000 A 
ATOM     17  S   UNL     1      -6.950  -1.231   1.144  0.00  0.00    +0.000 S 
ENDBRANCH  11  13
ENDBRANCH   1  10
TORSDOF 3
