MODEL 1
REMARK VINA RESULT:      -4.8      0.000      0.000
REMARK  Name = *****
REMARK  2 active torsions:
REMARK  status: ('A' for Active; 'I' for Inactive)
REMARK    1  A    between atoms: C_2  and  C_10
REMARK    2  A    between atoms: C_10  and  C_11
REMARK                            x       y       z     vdW  Elec       q    Type
REMARK                         _______ _______ _______ _____ _____    ______ ____
ROOT
ATOM      1  C   UNL     1     102.675 127.463  83.383  0.00  0.00    +0.000 C 
ATOM      2  C   UNL     1     102.641 126.235  82.453  0.00  0.00    +0.000 C 
ATOM      3  O   UNL     1     101.253 125.831  82.280  0.00  0.00    +0.000 OA
ATOM      4  C   UNL     1     100.525 126.935  82.637  0.00  0.00    +0.000 A 
ATOM      5  C   UNL     1      99.167 127.068  82.433  0.00  0.00    +0.000 A 
ATOM      6  C   UNL     1      98.558 128.253  82.852  0.00  0.00    +0.000 A 
ATOM      7  C   UNL     1      99.314 129.263  83.469  0.00  0.00    +0.000 A 
ATOM      8  C   UNL     1     100.687 129.100  83.676  0.00  0.00    +0.000 A 
ATOM      9  C   UNL     1     101.276 127.926  83.244  0.00  0.00    +0.000 A 
ENDROOT
BRANCH   2  10
ATOM     10  C   UNL     1     103.266 126.534  81.077  0.00  0.00    +0.000 C 
BRANCH  10  11
ATOM     11  C   UNL     1     104.178 125.424  80.602  0.00  0.00    +0.000 A 
ATOM     12  C   UNL     1     104.068 124.137  81.144  0.00  0.00    +0.000 A 
ATOM     13  C   UNL     1     104.918 123.115  80.716  0.00  0.00    +0.000 A 
ATOM     14  C   UNL     1     105.884 123.370  79.746  0.00  0.00    +0.000 A 
ATOM     15  C   UNL     1     106.005 124.649  79.204  0.00  0.00    +0.000 A 
ATOM     16  C   UNL     1     105.157 125.673  79.631  0.00  0.00    +0.000 A 
ENDBRANCH  10  11
ENDBRANCH   2  10
TORSDOF 2
ENDMDL
