REMARK  Name = *****
REMARK  1 active torsions:
REMARK  status: ('A' for Active; 'I' for Inactive)
REMARK    1  A    between atoms: C_4  and  C_7
REMARK                            x       y       z     vdW  Elec       q    Type
REMARK                         _______ _______ _______ _____ _____    ______ ____
ROOT
ATOM      1  C   UNL     1      -2.921   0.294  -0.455  0.00  0.00    +0.000 C 
ATOM      2  C   UNL     1      -3.183   0.605  -1.933  0.00  0.00    +0.000 C 
ATOM      3  C   UNL     1      -4.657   0.875  -2.087  0.00  0.00    +0.000 C 
ATOM      4  O   UNL     1      -5.109   1.682  -2.895  0.00  0.00    +0.000 OA
ATOM      5  C   UNL     1      -5.562   0.086  -1.226  0.00  0.00    +0.000 A 
ATOM      6  C   UNL     1      -6.947   0.144  -1.411  0.00  0.00    +0.000 A 
ATOM      7  C   UNL     1      -7.783  -0.643  -0.618  0.00  0.00    +0.000 A 
ATOM      8  C   UNL     1      -7.236  -1.487   0.349  0.00  0.00    +0.000 A 
ATOM      9  C   UNL     1      -5.853  -1.540   0.534  0.00  0.00    +0.000 A 
ATOM     10  C   UNL     1      -5.015  -0.741  -0.243  0.00  0.00    +0.000 A 
ATOM     11  O   UNL     1      -3.672  -0.844   0.005  0.00  0.00    +0.000 OA
ATOM     12 CL   UNL     1      -2.760  -0.726  -3.050  0.00  0.00    +0.000 Cl
ENDROOT
BRANCH   1  16
ATOM     13  C   UNL     1       1.300  -0.188   0.391  0.00  0.00    +0.000 A 
ATOM     14  C   UNL     1       0.729   1.082   0.361  0.00  0.00    +0.000 A 
ATOM     15  C   UNL     1      -0.634   1.230   0.093  0.00  0.00    +0.000 A 
ATOM     16  C   UNL     1      -1.444   0.107  -0.145  0.00  0.00    +0.000 A 
ATOM     17  C   UNL     1      -0.852  -1.165  -0.113  0.00  0.00    +0.000 A 
ATOM     18  C   UNL     1       0.511  -1.311   0.154  0.00  0.00    +0.000 A 
ENDBRANCH   1  16
TORSDOF 1
