MODEL 1
REMARK VINA RESULT:      -5.0      0.000      0.000
REMARK  Name = *****
REMARK  1 active torsions:
REMARK  status: ('A' for Active; 'I' for Inactive)
REMARK    1  A    between atoms: C_3  and  C_13
REMARK                            x       y       z     vdW  Elec       q    Type
REMARK                         _______ _______ _______ _____ _____    ______ ____
ROOT
ATOM      1  C   UNL     1      87.966  66.953  87.542  0.00  0.00    +0.000 C 
ATOM      2  C   UNL     1      87.994  68.212  87.071  0.00  0.00    +0.000 C 
ATOM      3  C   UNL     1      86.898  69.240  87.238  0.00  0.00    +0.000 C 
ATOM      4  O   UNL     1      86.660  69.938  85.996  0.00  0.00    +0.000 OA
ATOM      5  C   UNL     1      87.790  70.501  85.461  0.00  0.00    +0.000 A 
ATOM      6  C   UNL     1      87.626  71.673  84.724  0.00  0.00    +0.000 A 
ATOM      7  C   UNL     1      88.738  72.301  84.159  0.00  0.00    +0.000 A 
ATOM      8  C   UNL     1      90.012  71.751  84.318  0.00  0.00    +0.000 A 
ATOM      9  C   UNL     1      90.175  70.566  85.037  0.00  0.00    +0.000 A 
ATOM     10  C   UNL     1      89.060  69.942  85.607  0.00  0.00    +0.000 A 
ATOM     11  C   UNL     1      89.203  68.674  86.338  0.00  0.00    +0.000 C 
ATOM     12  O   UNL     1      90.268  68.058  86.350  0.00  0.00    +0.000 OA
ENDROOT
BRANCH   3  13
ATOM     13  C   UNL     1      87.097  70.246  88.364  0.00  0.00    +0.000 A 
ATOM     14  C   UNL     1      88.235  70.331  89.118  0.00  0.00    +0.000 A 
ATOM     15  C   UNL     1      88.401  71.431  89.996  0.00  0.00    +0.000 A 
ATOM     16  C   UNL     1      87.421  71.997  90.828  0.00  0.00    +0.000 A 
ATOM     17  C   UNL     1      86.467  72.092  89.843  0.00  0.00    +0.000 A 
ATOM     18  C   UNL     1      86.201  71.238  88.685  0.00  0.00    +0.000 A 
ATOM     19 CL   UNL     1      88.624  71.835  92.026  0.00  0.00    +0.000 Cl
ENDBRANCH   3  13
TORSDOF 1
ENDMDL
