REMARK  Name = *****
REMARK  5 active torsions:
REMARK  status: ('A' for Active; 'I' for Inactive)
REMARK    1  A    between atoms: C_4  and  C_7
REMARK    2  A    between atoms: C_7  and  N_8
REMARK    3  A    between atoms: N_8  and  N_9
REMARK    4  A    between atoms: N_8  and  S_11
REMARK    5  A    between atoms: S_11  and  C_14
REMARK                            x       y       z     vdW  Elec       q    Type
REMARK                         _______ _______ _______ _____ _____    ______ ____
ROOT
ATOM      1  N   UNL     1      -3.551  -0.777  -0.187  0.00  0.00    +0.000 NA
ENDROOT
BRANCH   1   2
ATOM      2  S   UNL     1      -5.239  -0.873  -0.443  0.00  0.00    +0.000 S 
ATOM      3  O   UNL     1      -5.648  -2.253  -0.615  0.00  0.00    +0.000 OA
ATOM      4  O   UNL     1      -5.896  -0.019   0.529  0.00  0.00    +0.000 OA
BRANCH   2   5
ATOM      5  C   UNL     1      -5.417  -0.106  -2.041  0.00  0.00    +0.000 A 
ATOM      6  C   UNL     1      -4.936  -0.780  -3.169  0.00  0.00    +0.000 A 
ATOM      7  C   UNL     1      -5.074  -0.194  -4.426  0.00  0.00    +0.000 A 
ATOM      8  C   UNL     1      -5.694   1.051  -4.552  0.00  0.00    +0.000 A 
ATOM      9  C   UNL     1      -6.186   1.711  -3.424  0.00  0.00    +0.000 A 
ATOM     10  C   UNL     1      -6.054   1.132  -2.162  0.00  0.00    +0.000 A 
ENDBRANCH   2   5
ENDBRANCH   1   2
BRANCH   1  11
ATOM     11  N   UNL     1      -3.048  -1.864   0.616  0.00  0.00    +0.000 NA
ATOM     12  O   UNL     1      -1.907  -1.683   1.048  0.00  0.00    +0.000 OA
ENDBRANCH   1  11
BRANCH   1  13
ATOM     13  C   UNL     1      -3.010   0.587   0.048  0.00  0.00    +0.000 C 
BRANCH  13  17
ATOM     14  C   UNL     1       0.471   1.495  -2.354  0.00  0.00    +0.000 A 
ATOM     15  C   UNL     1      -0.804   1.613  -2.902  0.00  0.00    +0.000 A 
ATOM     16  C   UNL     1      -1.929   1.324  -2.127  0.00  0.00    +0.000 A 
ATOM     17  C   UNL     1      -1.791   0.910  -0.793  0.00  0.00    +0.000 A 
ATOM     18  C   UNL     1      -0.500   0.797  -0.255  0.00  0.00    +0.000 A 
ATOM     19  C   UNL     1       0.623   1.087  -1.031  0.00  0.00    +0.000 A 
ENDBRANCH  13  17
ENDBRANCH   1  13
TORSDOF 5
