REMARK  Name = *****
REMARK  1 active torsions:
REMARK  status: ('A' for Active; 'I' for Inactive)
REMARK    1  A    between atoms: C_1  and  C_2
REMARK                            x       y       z     vdW  Elec       q    Type
REMARK                         _______ _______ _______ _____ _____    ______ ____
ROOT
ATOM      1  C   UNL     1       3.323   0.150   1.507  0.00  0.00    +0.000 C 
ATOM      2  C   UNL     1       2.585   0.012   0.173  0.00  0.00    +0.000 C 
ATOM      3  C   UNL     1       2.798  -1.355  -0.473  0.00  0.00    +0.000 C 
ATOM      4  C   UNL     1       3.943  -1.401  -1.491  0.00  0.00    +0.000 C 
ATOM      5  C   UNL     1       5.336  -1.510  -0.934  0.00  0.00    +0.000 A 
ATOM      6  C   UNL     1       6.202  -0.530  -0.467  0.00  0.00    +0.000 A 
ATOM      7  C   UNL     1       7.463  -0.909   0.002  0.00  0.00    +0.000 A 
ATOM      8  C   UNL     1       7.854  -2.254  -0.014  0.00  0.00    +0.000 A 
ATOM      9  C   UNL     1       6.994  -3.232  -0.515  0.00  0.00    +0.000 A 
ATOM     10  C   UNL     1       5.751  -2.836  -0.982  0.00  0.00    +0.000 A 
ATOM     11  C   UNL     1       4.685  -3.659  -1.596  0.00  0.00    +0.000 C 
ATOM     12  O   UNL     1       3.788  -2.691  -2.173  0.00  0.00    +0.000 OA
ATOM     13  O   UNL     1       3.858  -0.374  -2.477  0.00  0.00    +0.000 OA
ATOM     14  C   UNL     1       3.486   0.866  -2.039  0.00  0.00    +0.000 A 
ATOM     15  C   UNL     1       3.720   1.907  -2.941  0.00  0.00    +0.000 A 
ATOM     16  C   UNL     1       3.385   3.218  -2.609  0.00  0.00    +0.000 A 
ATOM     17  C   UNL     1       2.804   3.489  -1.374  0.00  0.00    +0.000 A 
ATOM     18  C   UNL     1       2.557   2.449  -0.477  0.00  0.00    +0.000 A 
ATOM     19  C   UNL     1       2.898   1.124  -0.797  0.00  0.00    +0.000 A 
ENDROOT
TORSDOF 0
