MODEL 1
REMARK VINA RESULT:      -5.5      0.000      0.000
REMARK  Name = *****
REMARK  2 active torsions:
REMARK  status: ('A' for Active; 'I' for Inactive)
REMARK    1  A    between atoms: C_1  and  C_2
REMARK    2  A    between atoms: C_9  and  C_15
REMARK                            x       y       z     vdW  Elec       q    Type
REMARK                         _______ _______ _______ _____ _____    ______ ____
ROOT
ATOM      1  C   UNL     1      89.152  65.973  85.906  0.00  0.00    +0.000 C 
ATOM      2  C   UNL     1      88.853  67.276  86.590  0.00  0.00    +0.000 A 
ATOM      3  C   UNL     1      87.722  67.407  87.405  0.00  0.00    +0.000 A 
ATOM      4  C   UNL     1      87.472  68.615  88.065  0.00  0.00    +0.000 A 
ATOM      5  C   UNL     1      88.334  69.698  87.913  0.00  0.00    +0.000 A 
ATOM      6  C   UNL     1      89.478  69.561  87.129  0.00  0.00    +0.000 A 
ATOM      7  C   UNL     1      89.738  68.356  86.473  0.00  0.00    +0.000 A 
ATOM      8  O   UNL     1      88.145  70.920  88.498  0.00  0.00    +0.000 OA
ATOM      9  C   UNL     1      86.800  71.177  88.974  0.00  0.00    +0.000 C 
ATOM     10  C   UNL     1      86.301  69.989  89.821  0.00  0.00    +0.000 C 
ATOM     11  C   UNL     1      86.303  68.757  88.950  0.00  0.00    +0.000 C 
ATOM     12  O   UNL     1      85.434  67.888  88.968  0.00  0.00    +0.000 OA
ATOM     13  F   UNL     1      87.132  69.806  90.895  0.00  0.00    +0.000 F 
ATOM     14  F   UNL     1      85.074  70.254  90.359  0.00  0.00    +0.000 F 
ATOM     15  F   UNL     1      86.945  72.244  89.830  0.00  0.00    +0.000 F 
ENDROOT
BRANCH   9  16
ATOM     16  C   UNL     1      85.933  71.628  87.789  0.00  0.00    +0.000 A 
ATOM     17  C   UNL     1      86.316  71.490  86.444  0.00  0.00    +0.000 A 
ATOM     18  C   UNL     1      85.476  71.919  85.412  0.00  0.00    +0.000 A 
ATOM     19  C   UNL     1      84.234  72.478  85.701  0.00  0.00    +0.000 A 
ATOM     20  C   UNL     1      83.824  72.602  87.024  0.00  0.00    +0.000 A 
ATOM     21  C   UNL     1      84.660  72.175  88.056  0.00  0.00    +0.000 A 
ENDBRANCH   9  16
TORSDOF 1
ENDMDL
