MODEL 1
REMARK VINA RESULT:      -4.9      0.000      0.000
REMARK  Name = *****
REMARK  3 active torsions:
REMARK  status: ('A' for Active; 'I' for Inactive)
REMARK    1  A    between atoms: C_1  and  C_2
REMARK    2  A    between atoms: N_12  and  N_13
REMARK    3  A    between atoms: C_14  and  C_15
REMARK                            x       y       z     vdW  Elec       q    Type
REMARK                         _______ _______ _______ _____ _____    ______ ____
ROOT
ATOM      1  C   UNL     1      90.351  64.708  85.851  0.00  0.00    +0.000 C 
ATOM      2  C   UNL     1      89.508  65.891  86.263  0.00  0.00    +0.000 A 
ATOM      3  N   UNL     1      90.072  67.057  86.335  0.00  0.00    +0.000 NA
ATOM      4  C   UNL     1      89.282  68.148  86.721  0.00  0.00    +0.000 A 
ATOM      5  C   UNL     1      89.894  69.390  86.897  0.00  0.00    +0.000 A 
ATOM      6  C   UNL     1      89.140  70.510  87.264  0.00  0.00    +0.000 A 
ATOM      7  C   UNL     1      87.763  70.395  87.452  0.00  0.00    +0.000 A 
ATOM      8  C   UNL     1      87.140  69.160  87.276  0.00  0.00    +0.000 A 
ATOM      9  C   UNL     1      87.906  68.044  86.915  0.00  0.00    +0.000 A 
ATOM     10  C   UNL     1      87.280  66.722  86.726  0.00  0.00    +0.000 A 
ATOM     11  O   UNL     1      86.052  66.647  86.706  0.00  0.00    +0.000 OA
ATOM     12  N   UNL     1      88.170  65.656  86.550  0.00  0.00    +0.000 N 
ENDROOT
BRANCH  12  13
ATOM     13  N   UNL     1      87.687  64.374  86.337  0.00  0.00    +0.000 NA
ATOM     14  C   UNL     1      87.337  63.634  87.348  0.00  0.00    +0.000 C 
BRANCH  14  15
ATOM     15  C   UNL     1      87.522  63.858  88.795  0.00  0.00    +0.000 A 
ATOM     16  C   UNL     1      86.494  64.279  89.645  0.00  0.00    +0.000 A 
ATOM     17  C   UNL     1      86.756  64.475  91.005  0.00  0.00    +0.000 A 
ATOM     18  C   UNL     1      88.042  64.268  91.501  0.00  0.00    +0.000 A 
ATOM     19  C   UNL     1      89.076  63.879  90.651  0.00  0.00    +0.000 A 
ATOM     20  C   UNL     1      88.819  63.682  89.294  0.00  0.00    +0.000 A 
ATOM     21 CL   UNL     1      88.359  64.510  93.174  0.00  0.00    +0.000 Cl
ATOM     22 CL   UNL     1      84.905  64.645  89.081  0.00  0.00    +0.000 Cl
ENDBRANCH  14  15
ENDBRANCH  12  13
TORSDOF 2
ENDMDL
