MODEL 1
REMARK VINA RESULT:      -5.4      0.000      0.000
REMARK  Name = *****
REMARK  3 active torsions:
REMARK  status: ('A' for Active; 'I' for Inactive)
REMARK    1  A    between atoms: C_1  and  C_2
REMARK    2  A    between atoms: C_7  and  C_8
REMARK    3  A    between atoms: C_10  and  C_13
REMARK                            x       y       z     vdW  Elec       q    Type
REMARK                         _______ _______ _______ _____ _____    ______ ____
ROOT
ATOM      1  C   UNL     1      91.203  65.434  85.416  0.00  0.00    +0.000 C 
ATOM      2  C   UNL     1      90.159  66.395  85.915  0.00  0.00    +0.000 A 
ATOM      3  C   UNL     1      90.277  67.761  85.604  0.00  0.00    +0.000 A 
ATOM      4  C   UNL     1      89.321  68.689  86.039  0.00  0.00    +0.000 A 
ATOM      5  C   UNL     1      88.253  68.247  86.820  0.00  0.00    +0.000 A 
ATOM      6  C   UNL     1      88.115  66.893  87.120  0.00  0.00    +0.000 A 
ATOM      7  C   UNL     1      89.057  65.955  86.674  0.00  0.00    +0.000 A 
ATOM      8  C   UNL     1      88.876  64.504  87.028  0.00  0.00    +0.000 C 
ATOM      9  O   UNL     1      87.272  69.072  87.301  0.00  0.00    +0.000 OA
ATOM     10  C   UNL     1      87.589  70.473  87.268  0.00  0.00    +0.000 C 
ATOM     11  C   UNL     1      88.164  70.885  85.912  0.00  0.00    +0.000 C 
ATOM     12  C   UNL     1      89.473  70.141  85.691  0.00  0.00    +0.000 C 
ENDROOT
BRANCH  10  13
ATOM     13  C   UNL     1      86.335  71.272  87.575  0.00  0.00    +0.000 A 
ATOM     14  C   UNL     1      85.523  71.734  86.526  0.00  0.00    +0.000 A 
ATOM     15  C   UNL     1      84.351  72.446  86.794  0.00  0.00    +0.000 A 
ATOM     16  C   UNL     1      83.975  72.700  88.110  0.00  0.00    +0.000 A 
ATOM     17  C   UNL     1      84.766  72.243  89.161  0.00  0.00    +0.000 A 
ATOM     18  C   UNL     1      85.937  71.530  88.896  0.00  0.00    +0.000 A 
ENDBRANCH  10  13
TORSDOF 1
ENDMDL
