MODEL 1
REMARK VINA RESULT:      -4.6      0.000      0.000
REMARK  Name = *****
REMARK  5 active torsions:
REMARK  status: ('A' for Active; 'I' for Inactive)
REMARK    1  A    between atoms: C_1  and  C_2
REMARK    2  A    between atoms: C_2  and  O_3
REMARK    3  A    between atoms: O_3  and  C_4
REMARK    4  A    between atoms: C_4  and  C_6
REMARK    5  A    between atoms: C_6  and  C_15
REMARK                            x       y       z     vdW  Elec       q    Type
REMARK                         _______ _______ _______ _____ _____    ______ ____
ROOT
ATOM      1  C   UNL     1     102.587 126.913  83.416  0.00  0.00    +0.000 C 
ATOM      2  C   UNL     1     103.153 126.199  82.226  0.00  0.00    +0.000 A 
ATOM      3  C   UNL     1     103.364 126.578  80.910  0.00  0.00    +0.000 A 
ATOM      4  C   UNL     1     103.937 125.643  80.046  0.00  0.00    +0.000 A 
ATOM      5  C   UNL     1     104.285 124.363  80.505  0.00  0.00    +0.000 A 
ATOM      6  C   UNL     1     104.063 124.004  81.838  0.00  0.00    +0.000 A 
ATOM      7  C   UNL     1     103.494 124.939  82.687  0.00  0.00    +0.000 A 
ATOM      8  N   UNL     1     103.198 124.760  84.043  0.00  0.00    +0.000 NA
ATOM      9  N   UNL     1     102.683 125.836  84.481  0.00  0.00    +0.000 NA
ENDROOT
BRANCH   1  10
ATOM     10  C   UNL     1     101.144 127.381  83.182  0.00  0.00    +0.000 A 
ATOM     11  C   UNL     1     100.208 126.554  82.531  0.00  0.00    +0.000 A 
ATOM     12  C   UNL     1      98.887 126.971  82.347  0.00  0.00    +0.000 A 
ATOM     13  C   UNL     1      98.472 128.213  82.820  0.00  0.00    +0.000 A 
ATOM     14  C   UNL     1      99.377 129.039  83.480  0.00  0.00    +0.000 A 
ATOM     15  C   UNL     1     100.699 128.626  83.664  0.00  0.00    +0.000 A 
ENDBRANCH   1  10
BRANCH   1  16
ATOM     16  C   UNL     1     103.506 128.061  83.897  0.00  0.00    +0.000 C 
ATOM     17  O   UNL     1     104.071 128.099  84.987  0.00  0.00    +0.000 OA
BRANCH  16  18
ATOM     18  O   UNL     1     103.676 129.010  82.924  0.00  0.00    +0.000 OA
BRANCH  18  20
ATOM     19  C   UNL     1     105.499 129.587  81.446  0.00  0.00    +0.000 C 
ATOM     20  C   UNL     1     104.965 129.635  82.866  0.00  0.00    +0.000 C 
ENDBRANCH  18  20
ENDBRANCH  16  18
ENDBRANCH   1  16
TORSDOF 4
ENDMDL
