MODEL 1
REMARK VINA RESULT:      -5.2      0.000      0.000
REMARK  Name = *****
REMARK  1 active torsions:
REMARK  status: ('A' for Active; 'I' for Inactive)
REMARK    1  A    between atoms: C_2  and  C_14
REMARK                            x       y       z     vdW  Elec       q    Type
REMARK                         _______ _______ _______ _____ _____    ______ ____
ROOT
ATOM      1  C   UNL     1      88.116  70.930  85.791  0.00  0.00    +0.000 C 
ATOM      2  C   UNL     1      87.596  70.446  87.136  0.00  0.00    +0.000 C 
ATOM      3  O   UNL     1      87.255  69.051  87.073  0.00  0.00    +0.000 OA
ATOM      4  C   UNL     1      88.295  68.249  86.680  0.00  0.00    +0.000 A 
ATOM      5  C   UNL     1      89.355  68.721  85.903  0.00  0.00    +0.000 A 
ATOM      6  C   UNL     1      89.339  70.127  85.451  0.00  0.00    +0.000 C 
ATOM      7  O   UNL     1      90.261  70.578  84.780  0.00  0.00    +0.000 OA
ATOM      8  C   UNL     1      90.399  67.874  85.521  0.00  0.00    +0.000 A 
ATOM      9  C   UNL     1      90.369  66.537  85.908  0.00  0.00    +0.000 A 
ATOM     10  C   UNL     1      89.308  66.042  86.664  0.00  0.00    +0.000 A 
ATOM     11  C   UNL     1      88.270  66.897  87.044  0.00  0.00    +0.000 A 
ATOM     12 CL   UNL     1      86.975  66.245  87.981  0.00  0.00    +0.000 Cl
ATOM     13 CL   UNL     1      91.645  65.484  85.441  0.00  0.00    +0.000 Cl
ENDROOT
BRANCH   2  14
ATOM     14  C   UNL     1      86.374  71.246  87.549  0.00  0.00    +0.000 A 
ATOM     15  C   UNL     1      86.052  71.454  88.899  0.00  0.00    +0.000 A 
ATOM     16  C   UNL     1      84.908  72.172  89.255  0.00  0.00    +0.000 A 
ATOM     17  C   UNL     1      84.068  72.682  88.269  0.00  0.00    +0.000 A 
ATOM     18  C   UNL     1      84.370  72.477  86.924  0.00  0.00    +0.000 A 
ATOM     19  C   UNL     1      85.515  71.762  86.565  0.00  0.00    +0.000 A 
ENDBRANCH   2  14
TORSDOF 1
ENDMDL
