MODEL 1
REMARK VINA RESULT:      -4.4      0.000      0.000
REMARK  Name = *****
REMARK  5 active torsions:
REMARK  status: ('A' for Active; 'I' for Inactive)
REMARK    1  A    between atoms: C_1  and  C_2
REMARK    2  A    between atoms: C_5  and  C_17
REMARK    3  A    between atoms: C_9  and  C_10
REMARK    4  A    between atoms: C_9  and  O_16
REMARK    5  A    between atoms: C_17  and  C_19
REMARK                            x       y       z     vdW  Elec       q    Type
REMARK                         _______ _______ _______ _____ _____    ______ ____
ROOT
ATOM      1  C   UNL     1      84.970  64.516  91.930  0.00  0.00    +0.000 C 
ATOM      2  C   UNL     1      85.307  63.973  90.544  0.00  0.00    +0.000 C 
ATOM      3  C   UNL     1      84.214  63.020  90.046  0.00  0.00    +0.000 C 
ATOM      4  C   UNL     1      84.670  62.052  88.945  0.00  0.00    +0.000 C 
ATOM      5  C   UNL     1      85.954  62.422  88.170  0.00  0.00    +0.000 C 
ATOM      6  C   UNL     1      87.093  62.751  89.160  0.00  0.00    +0.000 C 
ATOM      7  C   UNL     1      86.640  63.231  90.564  0.00  0.00    +0.000 C 
ATOM      8  C   UNL     1      87.955  64.019  90.709  0.00  0.00    +0.000 C 
ATOM      9  C   UNL     1      88.239  63.874  89.167  0.00  0.00    +0.000 C 
ENDROOT
BRANCH   9  10
ATOM     10  C   UNL     1      88.102  65.243  88.297  0.00  0.00    +0.000 A 
ATOM     11  C   UNL     1      87.205  66.293  88.587  0.00  0.00    +0.000 A 
ATOM     12  C   UNL     1      87.136  67.464  87.821  0.00  0.00    +0.000 A 
ATOM     13  C   UNL     1      87.983  67.638  86.735  0.00  0.00    +0.000 A 
ATOM     14  C   UNL     1      88.905  66.649  86.425  0.00  0.00    +0.000 A 
ATOM     15  C   UNL     1      88.962  65.484  87.200  0.00  0.00    +0.000 A 
ENDBRANCH   9  10
BRANCH   5  16
ATOM     16  C   UNL     1      85.807  63.405  87.030  0.00  0.00    +0.000 C 
ATOM     17  C   UNL     1      84.877  64.370  86.942  0.00  0.00    +0.000 C 
ATOM     18  C   UNL     1      86.739  63.165  85.864  0.00  0.00    +0.000 C 
ENDBRANCH   5  16
BRANCH   9  19
ATOM     19  O   UNL     1      89.555  63.286  88.917  0.00  0.00    +0.000 OA
ATOM     20  H   UNL     1      90.079  63.306  89.733  0.00  0.00    +0.000 HD
ENDBRANCH   9  19
TORSDOF 3
ENDMDL
