MODEL 1
REMARK VINA RESULT:      -5.0      0.000      0.000
REMARK  Name = *****
REMARK  3 active torsions:
REMARK  status: ('A' for Active; 'I' for Inactive)
REMARK    1  A    between atoms: C_1  and  C_2
REMARK    2  A    between atoms: C_2  and  C_12
REMARK    3  A    between atoms: C_12  and  C_13
REMARK                            x       y       z     vdW  Elec       q    Type
REMARK                         _______ _______ _______ _____ _____    ______ ____
ROOT
ATOM      1  C   UNL     1      88.685  65.218  84.880  0.00  0.00    +0.000 C 
ATOM      2  C   UNL     1      88.813  65.847  86.275  0.00  0.00    +0.000 C 
ATOM      3  C   UNL     1      87.580  66.706  86.512  0.00  0.00    +0.000 C 
ATOM      4  C   UNL     1      86.826  66.623  87.612  0.00  0.00    +0.000 C 
ATOM      5  C   UNL     1      87.215  65.658  88.627  0.00  0.00    +0.000 A 
ATOM      6  C   UNL     1      86.544  65.594  89.853  0.00  0.00    +0.000 A 
ATOM      7  C   UNL     1      86.915  64.646  90.809  0.00  0.00    +0.000 A 
ATOM      8  C   UNL     1      87.953  63.754  90.543  0.00  0.00    +0.000 A 
ATOM      9  C   UNL     1      88.622  63.813  89.320  0.00  0.00    +0.000 A 
ATOM     10  C   UNL     1      88.259  64.768  88.369  0.00  0.00    +0.000 A 
ATOM     11  O   UNL     1      88.956  64.741  87.195  0.00  0.00    +0.000 OA
ENDROOT
BRANCH   2  12
ATOM     12  C   UNL     1      90.067  66.759  86.390  0.00  0.00    +0.000 C 
BRANCH  12  13
ATOM     13  C   UNL     1      89.868  68.216  86.027  0.00  0.00    +0.000 A 
ATOM     14  C   UNL     1      89.655  69.178  87.024  0.00  0.00    +0.000 A 
ATOM     15  C   UNL     1      89.468  70.519  86.685  0.00  0.00    +0.000 A 
ATOM     16  C   UNL     1      89.493  70.912  85.349  0.00  0.00    +0.000 A 
ATOM     17  C   UNL     1      89.706  69.966  84.349  0.00  0.00    +0.000 A 
ATOM     18  C   UNL     1      89.894  68.624  84.686  0.00  0.00    +0.000 A 
ENDBRANCH  12  13
ENDBRANCH   2  12
TORSDOF 2
ENDMDL
