MODEL 1
REMARK VINA RESULT:      -4.7      0.000      0.000
REMARK  Name = *****
REMARK  2 active torsions:
REMARK  status: ('A' for Active; 'I' for Inactive)
REMARK    1  A    between atoms: C_10  and  C_11
REMARK    2  A    between atoms: C_14  and  C_17
REMARK                            x       y       z     vdW  Elec       q    Type
REMARK                         _______ _______ _______ _____ _____    ______ ____
ROOT
ATOM      1  C   UNL     1      89.385  70.453  87.501  0.00  0.00    +0.000 C 
ATOM      2  C   UNL     1      88.166  70.406  88.408  0.00  0.00    +0.000 C 
ATOM      3  C   UNL     1      86.999  71.045  87.718  0.00  0.00    +0.000 A 
ATOM      4  C   UNL     1      85.909  71.512  88.466  0.00  0.00    +0.000 A 
ATOM      5  C   UNL     1      84.817  72.105  87.830  0.00  0.00    +0.000 A 
ATOM      6  C   UNL     1      84.804  72.229  86.443  0.00  0.00    +0.000 A 
ATOM      7  C   UNL     1      85.879  71.755  85.692  0.00  0.00    +0.000 A 
ATOM      8  C   UNL     1      86.967  71.155  86.325  0.00  0.00    +0.000 A 
ATOM      9  O   UNL     1      87.958  70.699  85.497  0.00  0.00    +0.000 OA
ATOM     10  C   UNL     1      89.028  69.949  86.099  0.00  0.00    +0.000 C 
ENDROOT
BRANCH  10  11
ATOM     11  C   UNL     1      88.817  68.438  86.024  0.00  0.00    +0.000 A 
ATOM     12  C   UNL     1      87.604  67.867  85.608  0.00  0.00    +0.000 A 
ATOM     13  C   UNL     1      87.443  66.479  85.554  0.00  0.00    +0.000 A 
ATOM     14  C   UNL     1      88.497  65.635  85.913  0.00  0.00    +0.000 A 
ATOM     15  C   UNL     1      89.713  66.188  86.321  0.00  0.00    +0.000 A 
ATOM     16  C   UNL     1      89.871  67.577  86.374  0.00  0.00    +0.000 A 
BRANCH  14  17
ATOM     17  C   UNL     1      88.333  64.213  85.859  0.00  0.00    +0.000 C 
ATOM     18  N   UNL     1      88.197  63.061  85.812  0.00  0.00    +0.000 NA
ENDBRANCH  14  17
ENDBRANCH  10  11
TORSDOF 2
ENDMDL
