MODEL 1
REMARK VINA RESULT:      -4.3      0.000      0.000
REMARK  Name = *****
REMARK  4 active torsions:
REMARK  status: ('A' for Active; 'I' for Inactive)
REMARK    1  A    between atoms: C_1  and  N_2
REMARK    2  A    between atoms: N_2  and  C_3
REMARK    3  A    between atoms: N_2  and  S_9
REMARK    4  A    between atoms: S_9  and  C_12
REMARK                            x       y       z     vdW  Elec       q    Type
REMARK                         _______ _______ _______ _____ _____    ______ ____
ROOT
ATOM      1  S   UNL     1     103.298 127.967  83.148  0.00  0.00    +0.000 S 
ATOM      2  O   UNL     1     103.683 126.885  84.025  0.00  0.00    +0.000 OA
ATOM      3  O   UNL     1     103.671 129.339  83.425  0.00  0.00    +0.000 OA
ENDROOT
BRANCH   1   4
ATOM      4  C   UNL     1     101.521 127.880  83.046  0.00  0.00    +0.000 A 
ATOM      5  C   UNL     1     100.933 126.751  82.462  0.00  0.00    +0.000 A 
ATOM      6  C   UNL     1      99.543 126.670  82.377  0.00  0.00    +0.000 A 
ATOM      7  C   UNL     1      98.764 127.710  82.878  0.00  0.00    +0.000 A 
ATOM      8  C   UNL     1      99.346 128.831  83.465  0.00  0.00    +0.000 A 
ATOM      9  C   UNL     1     100.736 128.921  83.556  0.00  0.00    +0.000 A 
ATOM     10  F   UNL     1      97.430 127.630  82.794  0.00  0.00    +0.000 F 
ENDBRANCH   1   4
BRANCH   1  12
ATOM     11  C   UNL     1     104.511 128.786  80.898  0.00  0.00    +0.000 C 
ATOM     12  N   UNL     1     103.801 127.628  81.531  0.00  0.00    +0.000 NA
BRANCH  12  13
ATOM     13  C   UNL     1     104.588 126.341  81.309  0.00  0.00    +0.000 C 
ATOM     14  C   UNL     1     105.772 126.644  80.359  0.00  0.00    +0.000 C 
ATOM     15  C   UNL     1     106.592 125.406  80.010  0.00  0.00    +0.000 C 
ATOM     16  C   UNL     1     105.722 124.308  79.419  0.00  0.00    +0.000 C 
ATOM     17  C   UNL     1     104.578 123.965  80.360  0.00  0.00    +0.000 C 
ATOM     18  C   UNL     1     103.747 125.196  80.720  0.00  0.00    +0.000 C 
ENDBRANCH  12  13
ENDBRANCH   1  12
TORSDOF 3
ENDMDL
