REMARK  Name = *****
REMARK  3 active torsions:
REMARK  status: ('A' for Active; 'I' for Inactive)
REMARK    1  A    between atoms: C_7  and  O_10
REMARK    2  A    between atoms: O_10  and  C_11
REMARK    3  A    between atoms: C_11  and  C_12
REMARK                            x       y       z     vdW  Elec       q    Type
REMARK                         _______ _______ _______ _____ _____    ______ ____
ROOT
ATOM      1  C   UNL     1      -2.366  -0.021  -0.525  0.00  0.00    +0.000 C 
ATOM      2  C   UNL     1      -1.588   1.264  -0.266  0.00  0.00    +0.000 C 
ATOM      3  C   UNL     1      -0.107   1.009  -0.119  0.00  0.00    +0.000 A 
ATOM      4  C   UNL     1       0.355  -0.251   0.311  0.00  0.00    +0.000 A 
ATOM      5  C   UNL     1       1.727  -0.509   0.444  0.00  0.00    +0.000 A 
ATOM      6  C   UNL     1       2.657   0.489   0.174  0.00  0.00    +0.000 A 
ATOM      7  C   UNL     1       2.215   1.757  -0.199  0.00  0.00    +0.000 A 
ATOM      8  C   UNL     1       0.845   2.021  -0.357  0.00  0.00    +0.000 A 
ATOM      9 CL   UNL     1       0.347   3.616  -0.824  0.00  0.00    +0.000 Cl
ATOM     10  C   UNL     1      -0.603  -1.341   0.654  0.00  0.00    +0.000 C 
ATOM     11  O   UNL     1      -0.191  -2.421   1.070  0.00  0.00    +0.000 OA
ATOM     12  C   UNL     1      -2.080  -1.049   0.554  0.00  0.00    +0.000 C 
ENDROOT
BRANCH   7  13
ATOM     13  O   UNL     1       3.161   2.712  -0.475  0.00  0.00    +0.000 OA
BRANCH  13  14
ATOM     14  C   UNL     1       3.521   3.448   0.703  0.00  0.00    +0.000 C 
BRANCH  14  15
ATOM     15  C   UNL     1       4.858   2.984   1.227  0.00  0.00    +0.000 A 
ATOM     16  C   UNL     1       5.993   3.020   0.404  0.00  0.00    +0.000 A 
ATOM     17  C   UNL     1       7.232   2.594   0.884  0.00  0.00    +0.000 A 
ATOM     18  C   UNL     1       7.350   2.130   2.192  0.00  0.00    +0.000 A 
ATOM     19  C   UNL     1       6.229   2.090   3.021  0.00  0.00    +0.000 A 
ATOM     20  C   UNL     1       4.989   2.516   2.542  0.00  0.00    +0.000 A 
ENDBRANCH  14  15
ENDBRANCH  13  14
ENDBRANCH   7  13
TORSDOF 3
