REMARK  Name = *****
REMARK  2 active torsions:
REMARK  status: ('A' for Active; 'I' for Inactive)
REMARK    1  A    between atoms: C_10  and  C_11
REMARK    2  A    between atoms: C_14  and  C_17
REMARK                            x       y       z     vdW  Elec       q    Type
REMARK                         _______ _______ _______ _____ _____    ______ ____
ROOT
ATOM      1  C   UNL     1      -2.175  -0.852  -0.096  0.00  0.00    +0.000 C 
ATOM      2  C   UNL     1      -0.904  -1.660   0.107  0.00  0.00    +0.000 C 
ATOM      3  C   UNL     1       0.291  -0.801  -0.175  0.00  0.00    +0.000 A 
ATOM      4  C   UNL     1       1.526  -1.391  -0.479  0.00  0.00    +0.000 A 
ATOM      5  C   UNL     1       2.644  -0.597  -0.739  0.00  0.00    +0.000 A 
ATOM      6  C   UNL     1       2.538   0.791  -0.691  0.00  0.00    +0.000 A 
ATOM      7  C   UNL     1       1.316   1.384  -0.376  0.00  0.00    +0.000 A 
ATOM      8  C   UNL     1       0.199   0.592  -0.108  0.00  0.00    +0.000 A 
ATOM      9  O   UNL     1      -0.945   1.270   0.216  0.00  0.00    +0.000 OA
ATOM     10  C   UNL     1      -2.078   0.490   0.637  0.00  0.00    +0.000 C 
ENDROOT
BRANCH  10  11
ATOM     11  C   UNL     1      -2.192   0.370   2.156  0.00  0.00    +0.000 A 
ATOM     12  C   UNL     1      -1.132   0.692   3.018  0.00  0.00    +0.000 A 
ATOM     13  C   UNL     1      -1.269   0.567   4.404  0.00  0.00    +0.000 A 
ATOM     14  C   UNL     1      -2.473   0.121   4.954  0.00  0.00    +0.000 A 
ATOM     15  C   UNL     1      -3.540  -0.196   4.110  0.00  0.00    +0.000 A 
ATOM     16  C   UNL     1      -3.400  -0.070   2.724  0.00  0.00    +0.000 A 
BRANCH  14  17
ATOM     17  C   UNL     1      -2.614  -0.008   6.374  0.00  0.00    +0.000 C 
ATOM     18  N   UNL     1      -2.731  -0.116   7.524  0.00  0.00    +0.000 NA
ENDBRANCH  14  17
ENDBRANCH  10  11
TORSDOF 2
