REMARK  Name = *****
REMARK  3 active torsions:
REMARK  status: ('A' for Active; 'I' for Inactive)
REMARK    1  A    between atoms: C_1  and  O_2
REMARK    2  A    between atoms: O_2  and  N_3
REMARK    3  A    between atoms: C_6  and  C_14
REMARK                            x       y       z     vdW  Elec       q    Type
REMARK                         _______ _______ _______ _____ _____    ______ ____
ROOT
ATOM      1  N   UNL     1       2.987  -1.224   0.434  0.00  0.00    +0.000 NA
ATOM      2  C   UNL     1       4.269  -1.180   0.216  0.00  0.00    +0.000 C 
ATOM      3  C   UNL     1       5.022   0.059  -0.216  0.00  0.00    +0.000 C 
ATOM      4  C   UNL     1       6.208  -0.373  -1.070  0.00  0.00    +0.000 C 
ATOM      5  O   UNL     1       7.096  -1.224  -0.328  0.00  0.00    +0.000 OA
ATOM      6  C   UNL     1       6.467  -2.329   0.180  0.00  0.00    +0.000 A 
ATOM      7  C   UNL     1       7.279  -3.428   0.461  0.00  0.00    +0.000 A 
ATOM      8  C   UNL     1       6.718  -4.597   0.976  0.00  0.00    +0.000 A 
ATOM      9  C   UNL     1       5.346  -4.666   1.221  0.00  0.00    +0.000 A 
ATOM     10  C   UNL     1       4.534  -3.561   0.960  0.00  0.00    +0.000 A 
ATOM     11  C   UNL     1       5.097  -2.388   0.445  0.00  0.00    +0.000 A 
ENDROOT
BRANCH   4  12
ATOM     12  C   UNL     1       6.982   0.840  -1.558  0.00  0.00    +0.000 A 
ATOM     13  C   UNL     1       7.950   1.463  -0.755  0.00  0.00    +0.000 A 
ATOM     14  C   UNL     1       8.633   2.592  -1.209  0.00  0.00    +0.000 A 
ATOM     15  C   UNL     1       8.353   3.118  -2.469  0.00  0.00    +0.000 A 
ATOM     16  C   UNL     1       7.389   2.515  -3.274  0.00  0.00    +0.000 A 
ATOM     17  C   UNL     1       6.706   1.385  -2.822  0.00  0.00    +0.000 A 
ENDBRANCH   4  12
BRANCH   1  19
ATOM     18  C   UNL     1       0.990  -0.105   0.479  0.00  0.00    +0.000 C 
ATOM     19  O   UNL     1       2.382   0.019   0.212  0.00  0.00    +0.000 OA
ENDBRANCH   1  19
TORSDOF 2
