MODEL 1
REMARK VINA RESULT:      -4.9      0.000      0.000
REMARK  Name = *****
REMARK  3 active torsions:
REMARK  status: ('A' for Active; 'I' for Inactive)
REMARK    1  A    between atoms: C_1  and  O_2
REMARK    2  A    between atoms: O_2  and  C_3
REMARK    3  A    between atoms: C_3  and  C_14
REMARK                            x       y       z     vdW  Elec       q    Type
REMARK                         _______ _______ _______ _____ _____    ______ ____
ROOT
ATOM      1  C   UNL     1     103.192 127.470  82.653  0.00  0.00    +0.000 C 
ATOM      2  C   UNL     1     103.544 127.960  81.262  0.00  0.00    +0.000 C 
ATOM      3  C   UNL     1     104.273 127.222  80.409  0.00  0.00    +0.000 C 
ATOM      4  C   UNL     1     104.890 125.908  80.839  0.00  0.00    +0.000 C 
ATOM      5  C   UNL     1     106.361 125.861  80.379  0.00  0.00    +0.000 C 
ATOM      6  C   UNL     1     107.035 124.532  80.723  0.00  0.00    +0.000 C 
ATOM      7  C   UNL     1     106.253 123.345  80.175  0.00  0.00    +0.000 C 
ATOM      8  C   UNL     1     104.797 123.373  80.627  0.00  0.00    +0.000 C 
ATOM      9  C   UNL     1     104.123 124.699  80.272  0.00  0.00    +0.000 C 
ATOM     10  O   UNL     1     104.921 125.869  82.283  0.00  0.00    +0.000 OA
ATOM     11  O   UNL     1     103.553 126.074  82.796  0.00  0.00    +0.000 OA
ENDROOT
BRANCH   1  12
ATOM     12  C   UNL     1     101.658 127.537  82.823  0.00  0.00    +0.000 A 
ATOM     13  C   UNL     1     101.040 128.611  83.498  0.00  0.00    +0.000 A 
ATOM     14  C   UNL     1      99.649 128.681  83.622  0.00  0.00    +0.000 A 
ATOM     15  C   UNL     1      98.860 127.685  83.064  0.00  0.00    +0.000 A 
ATOM     16  C   UNL     1      99.433 126.621  82.382  0.00  0.00    +0.000 A 
ATOM     17  C   UNL     1     100.823 126.548  82.259  0.00  0.00    +0.000 A 
ATOM     18  F   UNL     1      97.527 127.755  83.180  0.00  0.00    +0.000 F 
ENDBRANCH   1  12
BRANCH   1  20
ATOM     19  C   UNL     1     104.568 129.396  83.146  0.00  0.00    +0.000 C 
ATOM     20  O   UNL     1     103.761 128.341  83.638  0.00  0.00    +0.000 OA
ENDBRANCH   1  20
TORSDOF 2
ENDMDL
