MODEL 1
REMARK VINA RESULT:      -4.5      0.000      0.000
REMARK  Name = *****
REMARK  3 active torsions:
REMARK  status: ('A' for Active; 'I' for Inactive)
REMARK    1  A    between atoms: C_4  and  O_7
REMARK    2  A    between atoms: O_7  and  C_8
REMARK    3  A    between atoms: C_8  and  C_9
REMARK                            x       y       z     vdW  Elec       q    Type
REMARK                         _______ _______ _______ _____ _____    ______ ____
ROOT
ATOM      1  C   UNL     1      88.631  69.737  86.158  0.00  0.00    +0.000 A 
ATOM      2  N   UNL     1      87.750  70.362  85.403  0.00  0.00    +0.000 NA
ATOM      3  C   UNL     1      86.795  70.976  86.197  0.00  0.00    +0.000 A 
ATOM      4  C   UNL     1      85.694  71.725  85.735  0.00  0.00    +0.000 A 
ATOM      5  C   UNL     1      84.805  72.296  86.653  0.00  0.00    +0.000 A 
ATOM      6  C   UNL     1      85.001  72.130  88.020  0.00  0.00    +0.000 A 
ATOM      7  C   UNL     1      86.086  71.392  88.504  0.00  0.00    +0.000 A 
ATOM      8  C   UNL     1      86.973  70.824  87.573  0.00  0.00    +0.000 A 
ATOM      9  S   UNL     1      88.385  69.882  87.854  0.00  0.00    +0.000 S 
ENDROOT
BRANCH   1  10
ATOM     10  C   UNL     1      89.815  68.983  85.627  0.00  0.00    +0.000 C 
BRANCH  10  11
ATOM     11  O   UNL     1      90.231  68.064  86.639  0.00  0.00    +0.000 OA
BRANCH  11  15
ATOM     12  C   UNL     1      89.903  63.996  85.810  0.00  0.00    +0.000 A 
ATOM     13  C   UNL     1      90.971  64.699  85.255  0.00  0.00    +0.000 A 
ATOM     14  C   UNL     1      91.122  66.066  85.504  0.00  0.00    +0.000 A 
ATOM     15  C   UNL     1      90.203  66.736  86.315  0.00  0.00    +0.000 A 
ATOM     16  C   UNL     1      89.131  66.026  86.862  0.00  0.00    +0.000 A 
ATOM     17  C   UNL     1      88.981  64.660  86.615  0.00  0.00    +0.000 A 
ENDBRANCH  11  15
ENDBRANCH  10  11
ENDBRANCH   1  10
TORSDOF 3
ENDMDL
