MODEL 1
REMARK VINA RESULT:      -5.1      0.000      0.000
REMARK  Name = *****
REMARK  1 active torsions:
REMARK  status: ('A' for Active; 'I' for Inactive)
REMARK    1  A    between atoms: C_11  and  C_12
REMARK                            x       y       z     vdW  Elec       q    Type
REMARK                         _______ _______ _______ _____ _____    ______ ____
ROOT
ATOM      1  C   UNL     1     102.779 125.580  83.770  0.00  0.00    +0.000 C 
ATOM      2  C   UNL     1     103.661 124.367  83.520  0.00  0.00    +0.000 C 
ATOM      3  C   UNL     1     104.281 124.435  82.153  0.00  0.00    +0.000 A 
ATOM      4  C   UNL     1     103.761 125.288  81.172  0.00  0.00    +0.000 A 
ATOM      5  C   UNL     1     104.351 125.359  79.910  0.00  0.00    +0.000 A 
ATOM      6  C   UNL     1     105.446 124.552  79.615  0.00  0.00    +0.000 A 
ATOM      7  C   UNL     1     105.960 123.679  80.572  0.00  0.00    +0.000 A 
ATOM      8  C   UNL     1     105.377 123.620  81.840  0.00  0.00    +0.000 A 
ATOM      9 CL   UNL     1     106.172 124.629  78.056  0.00  0.00    +0.000 Cl
ATOM     10  O   UNL     1     102.694 126.119  81.380  0.00  0.00    +0.000 OA
ATOM     11  C   UNL     1     101.902 125.813  82.539  0.00  0.00    +0.000 C 
ENDROOT
BRANCH  11  12
ATOM     12  C   UNL     1     100.932 126.956  82.788  0.00  0.00    +0.000 A 
ATOM     13  C   UNL     1      99.579 126.819  82.441  0.00  0.00    +0.000 A 
ATOM     14  C   UNL     1      98.673 127.851  82.688  0.00  0.00    +0.000 A 
ATOM     15  C   UNL     1      99.107 129.031  83.289  0.00  0.00    +0.000 A 
ATOM     16  C   UNL     1     100.445 129.181  83.643  0.00  0.00    +0.000 A 
ATOM     17  C   UNL     1     101.352 128.149  83.397  0.00  0.00    +0.000 A 
ENDBRANCH  11  12
TORSDOF 1
ENDMDL
