REMARK  Name = *****
REMARK  3 active torsions:
REMARK  status: ('A' for Active; 'I' for Inactive)
REMARK    1  A    between atoms: C_1  and  O_2
REMARK    2  A    between atoms: O_2  and  C_3
REMARK    3  A    between atoms: C_3  and  C_13
REMARK                            x       y       z     vdW  Elec       q    Type
REMARK                         _______ _______ _______ _____ _____    ______ ____
ROOT
ATOM      1  C   UNL     1       2.827  -0.998  -0.994  0.00  0.00    +0.000 C 
ATOM      2  C   UNL     1       1.777  -2.125  -1.215  0.00  0.00    +0.000 C 
ATOM      3  C   UNL     1       0.675  -1.732  -2.170  0.00  0.00    +0.000 A 
ATOM      4  C   UNL     1      -0.497  -2.495  -2.256  0.00  0.00    +0.000 A 
ATOM      5  C   UNL     1      -1.498  -2.141  -3.159  0.00  0.00    +0.000 A 
ATOM      6  C   UNL     1      -1.333  -1.031  -3.984  0.00  0.00    +0.000 A 
ATOM      7  C   UNL     1      -0.163  -0.275  -3.912  0.00  0.00    +0.000 A 
ATOM      8  C   UNL     1       0.855  -0.627  -3.016  0.00  0.00    +0.000 A 
ATOM      9  C   UNL     1       2.099   0.218  -2.910  0.00  0.00    +0.000 C 
ATOM     10  O   UNL     1       3.182  -0.459  -2.279  0.00  0.00    +0.000 OA
ENDROOT
BRANCH   1  11
ATOM     11  C   UNL     1       4.082  -1.655  -0.387  0.00  0.00    +0.000 A 
ATOM     12  C   UNL     1       4.077  -2.097   0.951  0.00  0.00    +0.000 A 
ATOM     13  C   UNL     1       5.195  -2.722   1.510  0.00  0.00    +0.000 A 
ATOM     14  C   UNL     1       6.340  -2.917   0.743  0.00  0.00    +0.000 A 
ATOM     15  C   UNL     1       6.369  -2.488  -0.580  0.00  0.00    +0.000 A 
ATOM     16  C   UNL     1       5.251  -1.864  -1.141  0.00  0.00    +0.000 A 
ENDBRANCH   1  11
BRANCH   1  18
ATOM     17  C   UNL     1       1.218   0.135   0.465  0.00  0.00    +0.000 C 
ATOM     18  O   UNL     1       2.512   0.082  -0.103  0.00  0.00    +0.000 OA
ENDBRANCH   1  18
TORSDOF 2
