MODEL 1
REMARK VINA RESULT:      -5.1      0.000      0.000
REMARK  Name = *****
REMARK  4 active torsions:
REMARK  status: ('A' for Active; 'I' for Inactive)
REMARK    1  A    between atoms: C_1  and  C_2
REMARK    2  A    between atoms: C_4  and  C_20
REMARK    3  A    between atoms: C_6  and  C_8
REMARK    4  A    between atoms: C_8  and  C_19
REMARK                            x       y       z     vdW  Elec       q    Type
REMARK                         _______ _______ _______ _____ _____    ______ ____
ROOT
ATOM      1  C   UNL     1      87.056  69.847  85.097  0.00  0.00    +0.000 C 
ATOM      2  C   UNL     1      88.524  69.477  84.837  0.00  0.00    +0.000 C 
ATOM      3  C   UNL     1      89.342  70.731  84.705  0.00  0.00    +0.000 C 
ATOM      4  O   UNL     1      90.517  70.788  85.050  0.00  0.00    +0.000 OA
ATOM      5  C   UNL     1      88.679  71.865  84.039  0.00  0.00    +0.000 A 
ATOM      6  C   UNL     1      89.392  73.023  83.721  0.00  0.00    +0.000 A 
ATOM      7  C   UNL     1      88.754  74.056  83.032  0.00  0.00    +0.000 A 
ATOM      8  C   UNL     1      87.416  73.923  82.657  0.00  0.00    +0.000 A 
ATOM      9  C   UNL     1      86.708  72.764  82.980  0.00  0.00    +0.000 A 
ATOM     10  C   UNL     1      87.336  71.739  83.687  0.00  0.00    +0.000 A 
ATOM     11  O   UNL     1      86.570  70.641  83.985  0.00  0.00    +0.000 OA
ATOM     12  C   UNL     1      86.231  68.545  85.058  0.00  0.00    +0.000 C 
ENDROOT
BRANCH   1  18
ATOM     13  C   UNL     1      88.311  71.109  89.876  0.00  0.00    +0.000 C 
ATOM     14  C   UNL     1      87.326  71.128  88.744  0.00  0.00    +0.000 A 
ATOM     15  C   UNL     1      86.121  71.827  88.869  0.00  0.00    +0.000 A 
ATOM     16  C   UNL     1      85.207  71.864  87.812  0.00  0.00    +0.000 A 
ATOM     17  C   UNL     1      85.531  71.226  86.608  0.00  0.00    +0.000 A 
ATOM     18  C   UNL     1      86.750  70.541  86.437  0.00  0.00    +0.000 A 
ATOM     19  C   UNL     1      87.634  70.498  87.529  0.00  0.00    +0.000 A 
ATOM     20  C   UNL     1      83.927  72.636  87.940  0.00  0.00    +0.000 C 
ENDBRANCH   1  18
TORSDOF 1
ENDMDL
