REMARK  Name = *****
REMARK  4 active torsions:
REMARK  status: ('A' for Active; 'I' for Inactive)
REMARK    1  A    between atoms: C_1  and  C_2
REMARK    2  A    between atoms: C_4  and  C_18
REMARK    3  A    between atoms: C_9  and  C_11
REMARK    4  A    between atoms: C_11  and  C_12
REMARK                            x       y       z     vdW  Elec       q    Type
REMARK                         _______ _______ _______ _____ _____    ______ ____
ROOT
ATOM      1  C   UNL     1       1.085  -0.223  -0.076  0.00  0.00    +0.000 C 
ATOM      2  C   UNL     1       2.578  -0.071  -0.116  0.00  0.00    +0.000 A 
ATOM      3  C   UNL     1       3.416  -1.203  -0.017  0.00  0.00    +0.000 A 
ATOM      4  C   UNL     1       4.813  -1.080  -0.048  0.00  0.00    +0.000 A 
ATOM      5  C   UNL     1       5.333   0.198  -0.163  0.00  0.00    +0.000 A 
ATOM      6  C   UNL     1       4.524   1.319  -0.245  0.00  0.00    +0.000 A 
ATOM      7  C   UNL     1       3.145   1.206  -0.227  0.00  0.00    +0.000 A 
ATOM      8  C   UNL     1       5.364   2.524  -0.417  0.00  0.00    +0.000 C 
ATOM      9  C   UNL     1       6.752   1.935  -0.107  0.00  0.00    +0.000 C 
ATOM     10  O   UNL     1       6.672   0.486  -0.220  0.00  0.00    +0.000 OA
ATOM     11  C   UNL     1       5.709  -2.274   0.044  0.00  0.00    +0.000 C 
ENDROOT
BRANCH   9  12
ATOM     12  C   UNL     1       7.242   2.311   1.304  0.00  0.00    +0.000 C 
BRANCH  12  13
ATOM     13  C   UNL     1       8.719   2.043   1.487  0.00  0.00    +0.000 A 
ATOM     14  C   UNL     1       9.659   3.062   1.282  0.00  0.00    +0.000 A 
ATOM     15  C   UNL     1      11.024   2.806   1.430  0.00  0.00    +0.000 A 
ATOM     16  C   UNL     1      11.460   1.530   1.781  0.00  0.00    +0.000 A 
ATOM     17  C   UNL     1      10.534   0.508   1.982  0.00  0.00    +0.000 A 
ATOM     18  C   UNL     1       9.170   0.763   1.835  0.00  0.00    +0.000 A 
ENDBRANCH  12  13
ENDBRANCH   9  12
TORSDOF 2
