REMARK  Name = *****
REMARK  4 active torsions:
REMARK  status: ('A' for Active; 'I' for Inactive)
REMARK    1  A    between atoms: C_1  and  C_2
REMARK    2  A    between atoms: C_2  and  C_21
REMARK    3  A    between atoms: C_12  and  C_13
REMARK    4  A    between atoms: C_12  and  O_20
REMARK                            x       y       z     vdW  Elec       q    Type
REMARK                         _______ _______ _______ _____ _____    ______ ____
ROOT
ATOM      1  C   UNL     1       1.008   0.109   0.036  0.00  0.00    +0.000 C 
ATOM      2  C   UNL     1       2.544   0.017  -0.034  0.00  0.00    +0.000 C 
ATOM      3  C   UNL     1       3.194   1.369   0.206  0.00  0.00    +0.000 C 
ATOM      4  O   UNL     1       2.616   2.436   0.023  0.00  0.00    +0.000 OA
ATOM      5  C   UNL     1       4.610   1.358   0.629  0.00  0.00    +0.000 A 
ATOM      6  C   UNL     1       5.336   2.550   0.712  0.00  0.00    +0.000 A 
ATOM      7  C   UNL     1       6.682   2.514   1.075  0.00  0.00    +0.000 A 
ATOM      8  C   UNL     1       7.299   1.293   1.349  0.00  0.00    +0.000 A 
ATOM      9  C   UNL     1       6.569   0.105   1.269  0.00  0.00    +0.000 A 
ATOM     10  C   UNL     1       5.218   0.139   0.924  0.00  0.00    +0.000 A 
ATOM     11  O   UNL     1       4.571  -1.066   0.874  0.00  0.00    +0.000 OA
ATOM     12  C   UNL     1       3.137  -0.985   1.001  0.00  0.00    +0.000 C 
ATOM     13  C   UNL     1       2.899  -0.379  -1.491  0.00  0.00    +0.000 C 
ENDROOT
BRANCH  12  14
ATOM     14  C   UNL     1       2.819  -0.851   2.502  0.00  0.00    +0.000 A 
ATOM     15  C   UNL     1       2.331   0.321   3.109  0.00  0.00    +0.000 A 
ATOM     16  C   UNL     1       2.105   0.382   4.489  0.00  0.00    +0.000 A 
ATOM     17  C   UNL     1       2.373  -0.722   5.285  0.00  0.00    +0.000 A 
ATOM     18  C   UNL     1       2.868  -1.890   4.728  0.00  0.00    +0.000 A 
ATOM     19  C   UNL     1       3.093  -1.950   3.351  0.00  0.00    +0.000 A 
ATOM     20  F   UNL     1       2.157  -0.656   6.605  0.00  0.00    +0.000 F 
ENDBRANCH  12  14
BRANCH  12  21
ATOM     21  O   UNL     1       2.654  -2.290   0.637  0.00  0.00    +0.000 OA
ATOM     22  H   UNL     1       2.821  -2.446  -0.305  0.00  0.00    +0.000 HD
ENDBRANCH  12  21
TORSDOF 2
