MODEL 1
REMARK VINA RESULT:      -4.7      0.000      0.000
REMARK  Name = *****
REMARK  9 active torsions:
REMARK  status: ('A' for Active; 'I' for Inactive)
REMARK    1  A    between atoms: C_1  and  O_2
REMARK    2  A    between atoms: O_2  and  C_3
REMARK    3  A    between atoms: C_4  and  O_23
REMARK    4  A    between atoms: C_5  and  O_21
REMARK    5  A    between atoms: C_9  and  C_13
REMARK    6  A    between atoms: C_9  and  O_19
REMARK    7  A    between atoms: O_19  and  C_20
REMARK    8  A    between atoms: O_21  and  C_22
REMARK    9  A    between atoms: O_23  and  C_24
REMARK                            x       y       z     vdW  Elec       q    Type
REMARK                         _______ _______ _______ _____ _____    ______ ____
ROOT
ATOM      1  C   UNL     1      87.767  64.447  87.042  0.00  0.00    +0.000 A 
ATOM      2  C   UNL     1      88.790  64.494  86.082  0.00  0.00    +0.000 A 
ATOM      3  C   UNL     1      89.370  65.719  85.713  0.00  0.00    +0.000 A 
ATOM      4  C   UNL     1      88.994  66.903  86.363  0.00  0.00    +0.000 A 
ATOM      5  C   UNL     1      89.638  68.214  86.016  0.00  0.00    +0.000 C 
ATOM      6  C   UNL     1      89.364  69.250  87.096  0.00  0.00    +0.000 C 
ATOM      7  C   UNL     1      87.871  69.238  87.466  0.00  0.00    +0.000 C 
ATOM      8  O   UNL     1      87.494  67.947  87.981  0.00  0.00    +0.000 OA
ATOM      9  C   UNL     1      87.969  66.851  87.311  0.00  0.00    +0.000 A 
ATOM     10  C   UNL     1      87.366  65.636  87.654  0.00  0.00    +0.000 A 
ENDROOT
BRANCH   7  11
ATOM     11  C   UNL     1      87.664  70.304  88.557  0.00  0.00    +0.000 A 
ATOM     12  C   UNL     1      88.769  70.870  89.222  0.00  0.00    +0.000 A 
ATOM     13  C   UNL     1      88.593  71.821  90.229  0.00  0.00    +0.000 A 
ATOM     14  C   UNL     1      87.310  72.219  90.595  0.00  0.00    +0.000 A 
ATOM     15  C   UNL     1      86.203  71.665  89.956  0.00  0.00    +0.000 A 
ATOM     16  C   UNL     1      86.377  70.713  88.949  0.00  0.00    +0.000 A 
ENDBRANCH   7  11
BRANCH   1  18
ATOM     17  C   UNL     1      87.244  62.782  88.668  0.00  0.00    +0.000 C 
ATOM     18  O   UNL     1      87.245  63.209  87.313  0.00  0.00    +0.000 OA
ENDBRANCH   1  18
BRANCH   7  19
ATOM     19  O   UNL     1      87.123  69.592  86.285  0.00  0.00    +0.000 OA
ATOM     20  C   UNL     1      87.491  70.845  85.721  0.00  0.00    +0.000 C 
ENDBRANCH   7  19
BRANCH   3  21
ATOM     21  O   UNL     1      90.368  65.809  84.772  0.00  0.00    +0.000 OA
ATOM     22  C   UNL     1      91.623  65.342  85.271  0.00  0.00    +0.000 C 
ENDBRANCH   3  21
BRANCH   2  23
ATOM     23  O   UNL     1      89.195  63.331  85.468  0.00  0.00    +0.000 OA
ATOM     24  C   UNL     1      88.454  63.143  84.262  0.00  0.00    +0.000 C 
ENDBRANCH   2  23
TORSDOF 5
ENDMDL
