REMARK  Name = *****
REMARK  2 active torsions:
REMARK  status: ('A' for Active; 'I' for Inactive)
REMARK    1  A    between atoms: C_8  and  C_11
REMARK    2  A    between atoms: C_8  and  C_17
REMARK                            x       y       z     vdW  Elec       q    Type
REMARK                         _______ _______ _______ _____ _____    ______ ____
ROOT
ATOM      1  C   UNL     1       2.443   0.273  -0.328  0.00  0.00    +0.000 C 
ATOM      2  C   UNL     1       1.320   0.856  -1.181  0.00  0.00    +0.000 C 
ATOM      3  C   UNL     1       0.044   1.060  -0.366  0.00  0.00    +0.000 C 
ATOM      4  C   UNL     1      -0.398  -0.226   0.342  0.00  0.00    +0.000 C 
ATOM      5  C   UNL     1       0.736  -0.808   1.187  0.00  0.00    +0.000 C 
ATOM      6  C   UNL     1       2.014  -1.012   0.374  0.00  0.00    +0.000 C 
ATOM      7  O   UNL     1      -0.797  -1.192  -0.626  0.00  0.00    +0.000 OA
ATOM      8  C   UNL     1      -2.236  -1.253  -0.542  0.00  0.00    +0.000 C 
ATOM      9  O   UNL     1      -2.663  -0.196   0.336  0.00  0.00    +0.000 OA
ATOM     10  O   UNL     1      -1.507   0.054   1.187  0.00  0.00    +0.000 OA
ENDROOT
BRANCH   8  11
ATOM     11  C   UNL     1      -2.818  -1.003  -1.933  0.00  0.00    +0.000 A 
ATOM     12  C   UNL     1      -2.114  -1.381  -3.091  0.00  0.00    +0.000 A 
ATOM     13  C   UNL     1      -2.657  -1.172  -4.361  0.00  0.00    +0.000 A 
ATOM     14  C   UNL     1      -3.913  -0.588  -4.496  0.00  0.00    +0.000 A 
ATOM     15  C   UNL     1      -4.631  -0.215  -3.362  0.00  0.00    +0.000 A 
ATOM     16  C   UNL     1      -4.090  -0.423  -2.091  0.00  0.00    +0.000 A 
ENDBRANCH   8  11
BRANCH   8  17
ATOM     17  C   UNL     1      -2.704  -2.623   0.026  0.00  0.00    +0.000 C 
ATOM     18  F   UNL     1      -2.344  -3.659  -0.774  0.00  0.00    +0.000 F 
ATOM     19  F   UNL     1      -2.160  -2.871   1.246  0.00  0.00    +0.000 F 
ATOM     20  F   UNL     1      -4.051  -2.685   0.177  0.00  0.00    +0.000 F 
ENDBRANCH   8  17
TORSDOF 2
