MODEL 1
REMARK VINA RESULT:      -4.7      0.000      0.000
REMARK  Name = *****
REMARK  4 active torsions:
REMARK  status: ('A' for Active; 'I' for Inactive)
REMARK    1  A    between atoms: C_1  and  O_2
REMARK    2  A    between atoms: O_2  and  C_3
REMARK    3  A    between atoms: C_3  and  C_5
REMARK    4  A    between atoms: C_14  and  C_15
REMARK                            x       y       z     vdW  Elec       q    Type
REMARK                         _______ _______ _______ _____ _____    ______ ____
ROOT
ATOM      1  C   UNL     1     103.069 127.226  81.356  0.00  0.00    +0.000 C 
ATOM      2  C   UNL     1     103.945 126.866  80.158  0.00  0.00    +0.000 C 
ATOM      3  C   UNL     1     104.493 125.470  80.238  0.00  0.00    +0.000 A 
ATOM      4  C   UNL     1     105.471 125.051  79.324  0.00  0.00    +0.000 A 
ATOM      5  C   UNL     1     106.001 123.761  79.395  0.00  0.00    +0.000 A 
ATOM      6  C   UNL     1     105.560 122.880  80.380  0.00  0.00    +0.000 A 
ATOM      7  C   UNL     1     104.584 123.287  81.288  0.00  0.00    +0.000 A 
ATOM      8  C   UNL     1     104.041 124.569  81.207  0.00  0.00    +0.000 A 
ATOM      9  O   UNL     1     103.093 124.881  82.142  0.00  0.00    +0.000 OA
ATOM     10  C   UNL     1     102.266 126.003  81.802  0.00  0.00    +0.000 C 
ENDROOT
BRANCH  10  11
ATOM     11  C   UNL     1     101.313 126.307  82.949  0.00  0.00    +0.000 A 
ATOM     12  C   UNL     1     101.578 125.877  84.259  0.00  0.00    +0.000 A 
ATOM     13  C   UNL     1     100.705 126.192  85.302  0.00  0.00    +0.000 A 
ATOM     14  C   UNL     1      99.558 126.942  85.051  0.00  0.00    +0.000 A 
ATOM     15  C   UNL     1      99.282 127.377  83.757  0.00  0.00    +0.000 A 
ATOM     16  C   UNL     1     100.153 127.064  82.712  0.00  0.00    +0.000 A 
ENDBRANCH  10  11
BRANCH   1  17
ATOM     17  C   UNL     1     103.911 127.787  82.485  0.00  0.00    +0.000 C 
ATOM     18  O   UNL     1     104.849 127.220  83.029  0.00  0.00    +0.000 OA
BRANCH  17  20
ATOM     19  C   UNL     1     103.223 129.249  84.185  0.00  0.00    +0.000 C 
ATOM     20  O   UNL     1     103.488 129.048  82.795  0.00  0.00    +0.000 OA
ENDBRANCH  17  20
ENDBRANCH   1  17
TORSDOF 3
ENDMDL
