MODEL 1
REMARK VINA RESULT:      -5.1      0.000      0.000
REMARK  Name = *****
REMARK  4 active torsions:
REMARK  status: ('A' for Active; 'I' for Inactive)
REMARK    1  A    between atoms: C_1  and  C_2
REMARK    2  A    between atoms: C_7  and  O_10
REMARK    3  A    between atoms: O_10  and  C_11
REMARK    4  A    between atoms: C_11  and  C_12
REMARK                            x       y       z     vdW  Elec       q    Type
REMARK                         _______ _______ _______ _____ _____    ______ ____
ROOT
ATOM      1  C   UNL     1     105.857 119.373  82.080  0.00  0.00    +0.000 C 
ATOM      2  C   UNL     1     105.279 120.751  82.174  0.00  0.00    +0.000 A 
ATOM      3  C   UNL     1     105.310 121.623  81.156  0.00  0.00    +0.000 A 
ATOM      4  C   UNL     1     104.734 122.949  81.306  0.00  0.00    +0.000 A 
ATOM      5  C   UNL     1     104.151 123.298  82.519  0.00  0.00    +0.000 A 
ATOM      6  C   UNL     1     103.580 124.554  82.735  0.00  0.00    +0.000 A 
ATOM      7  C   UNL     1     103.595 125.490  81.704  0.00  0.00    +0.000 A 
ATOM      8  C   UNL     1     104.178 125.149  80.478  0.00  0.00    +0.000 A 
ATOM      9  C   UNL     1     104.746 123.886  80.275  0.00  0.00    +0.000 A 
ATOM     10  O   UNL     1     104.115 122.383  83.590  0.00  0.00    +0.000 OA
ATOM     11  C   UNL     1     104.659 121.108  83.476  0.00  0.00    +0.000 A 
ATOM     12  O   UNL     1     104.627 120.316  84.413  0.00  0.00    +0.000 OA
ENDROOT
BRANCH   7  13
ATOM     13  O   UNL     1     103.084 126.756  81.757  0.00  0.00    +0.000 OA
BRANCH  13  14
ATOM     14  C   UNL     1     102.699 127.252  83.040  0.00  0.00    +0.000 C 
BRANCH  14  15
ATOM     15  C   UNL     1     101.233 127.616  83.007  0.00  0.00    +0.000 A 
ATOM     16  C   UNL     1     100.291 126.726  82.470  0.00  0.00    +0.000 A 
ATOM     17  C   UNL     1      98.934 127.048  82.459  0.00  0.00    +0.000 A 
ATOM     18  C   UNL     1      98.502 128.262  82.990  0.00  0.00    +0.000 A 
ATOM     19  C   UNL     1      99.427 129.153  83.531  0.00  0.00    +0.000 A 
ATOM     20  C   UNL     1     100.785 128.832  83.542  0.00  0.00    +0.000 A 
ENDBRANCH  14  15
ENDBRANCH  13  14
ENDBRANCH   7  13
TORSDOF 3
ENDMDL
