REMARK  Name = *****
REMARK  4 active torsions:
REMARK  status: ('A' for Active; 'I' for Inactive)
REMARK    1  A    between atoms: C_4  and  C_7
REMARK    2  A    between atoms: C_7  and  O_8
REMARK    3  A    between atoms: O_8  and  C_9
REMARK    4  A    between atoms: C_15  and  C_17
REMARK                            x       y       z     vdW  Elec       q    Type
REMARK                         _______ _______ _______ _____ _____    ______ ____
ROOT
ATOM      1  C   UNL     1      -5.215  -0.517  -0.274  0.00  0.00    +0.000 A 
ATOM      2  C   UNL     1      -5.952   0.240  -1.189  0.00  0.00    +0.000 A 
ATOM      3  C   UNL     1      -7.315  -0.012  -1.414  0.00  0.00    +0.000 A 
ATOM      4  C   UNL     1      -7.951  -1.052  -0.700  0.00  0.00    +0.000 A 
ATOM      5  C   UNL     1      -9.315  -1.308  -0.920  0.00  0.00    +0.000 A 
ATOM      6  C   UNL     1     -10.046  -0.547  -1.835  0.00  0.00    +0.000 A 
ATOM      7  C   UNL     1      -9.414   0.479  -2.537  0.00  0.00    +0.000 A 
ATOM      8  C   UNL     1      -8.058   0.748  -2.332  0.00  0.00    +0.000 A 
ATOM      9  C   UNL     1      -7.203  -1.808   0.215  0.00  0.00    +0.000 A 
ATOM     10  C   UNL     1      -5.845  -1.543   0.427  0.00  0.00    +0.000 A 
ENDROOT
BRANCH   7  11
ATOM     11  C   UNL     1     -10.192   1.281  -3.503  0.00  0.00    +0.000 C 
ATOM     12  O   UNL     1      -9.692   2.193  -4.149  0.00  0.00    +0.000 OA
ENDBRANCH   7  11
BRANCH   1  13
ATOM     13  O   UNL     1      -3.902  -0.152  -0.162  0.00  0.00    +0.000 OA
BRANCH  13  14
ATOM     14  C   UNL     1      -3.102  -0.873   0.771  0.00  0.00    +0.000 C 
BRANCH  14  18
ATOM     15  C   UNL     1       0.870   0.806   0.661  0.00  0.00    +0.000 A 
ATOM     16  C   UNL     1      -0.053   1.262   1.600  0.00  0.00    +0.000 A 
ATOM     17  C   UNL     1      -1.339   0.719   1.638  0.00  0.00    +0.000 A 
ATOM     18  C   UNL     1      -1.709  -0.294   0.742  0.00  0.00    +0.000 A 
ATOM     19  C   UNL     1      -0.777  -0.734  -0.208  0.00  0.00    +0.000 A 
ATOM     20  C   UNL     1       0.508  -0.189  -0.245  0.00  0.00    +0.000 A 
ENDBRANCH  14  18
ENDBRANCH  13  14
ENDBRANCH   1  13
TORSDOF 4
