MODEL 1
REMARK VINA RESULT:      -4.7      0.000      0.000
REMARK  Name = *****
REMARK  2 active torsions:
REMARK  status: ('A' for Active; 'I' for Inactive)
REMARK    1  A    between atoms: C_1  and  C_2
REMARK    2  A    between atoms: C_2  and  C_8
REMARK                            x       y       z     vdW  Elec       q    Type
REMARK                         _______ _______ _______ _____ _____    ______ ____
ROOT
ATOM      1  C   UNL     1      88.668  69.397  86.193  0.00  0.00    +0.000 C 
ATOM      2  C   UNL     1      89.132  69.885  87.564  0.00  0.00    +0.000 C 
ATOM      3  C   UNL     1      87.989  70.361  88.410  0.00  0.00    +0.000 C 
ATOM      4  O   UNL     1      88.007  70.301  89.634  0.00  0.00    +0.000 OA
ATOM      5  C   UNL     1      86.872  70.993  87.695  0.00  0.00    +0.000 A 
ATOM      6  C   UNL     1      85.848  71.632  88.402  0.00  0.00    +0.000 A 
ATOM      7  C   UNL     1      84.815  72.258  87.706  0.00  0.00    +0.000 A 
ATOM      8  C   UNL     1      84.809  72.247  86.311  0.00  0.00    +0.000 A 
ATOM      9  C   UNL     1      85.832  71.603  85.612  0.00  0.00    +0.000 A 
ATOM     10  C   UNL     1      86.861  70.962  86.303  0.00  0.00    +0.000 A 
ATOM     11  O   UNL     1      87.800  70.340  85.536  0.00  0.00    +0.000 OA
ENDROOT
BRANCH   1  13
ATOM     12  C   UNL     1      86.720  67.766  86.703  0.00  0.00    +0.000 C 
ATOM     13  C   UNL     1      88.124  67.918  86.079  0.00  0.00    +0.000 C 
ATOM     14  C   UNL     1      89.062  66.901  86.789  0.00  0.00    +0.000 C 
ATOM     15  C   UNL     1      90.423  66.744  86.109  0.00  0.00    +0.000 C 
ATOM     16  C   UNL     1      90.278  66.382  84.635  0.00  0.00    +0.000 C 
ATOM     17  C   UNL     1      89.364  67.348  83.888  0.00  0.00    +0.000 C 
ATOM     18  C   UNL     1      88.010  67.495  84.584  0.00  0.00    +0.000 C 
ENDBRANCH   1  13
TORSDOF 1
ENDMDL
