MODEL 1
REMARK VINA RESULT:      -4.5      0.000      0.000
REMARK  Name = *****
REMARK  3 active torsions:
REMARK  status: ('A' for Active; 'I' for Inactive)
REMARK    1  A    between atoms: C_1  and  O_2
REMARK    2  A    between atoms: O_2  and  C_3
REMARK    3  A    between atoms: C_3  and  C_13
REMARK                            x       y       z     vdW  Elec       q    Type
REMARK                         _______ _______ _______ _____ _____    ______ ____
ROOT
ATOM      1  C   UNL     1      89.438  68.675  85.997  0.00  0.00    +0.000 C 
ATOM      2  N   UNL     1      88.479  68.074  85.025  0.00  0.00    +0.000 NA
ATOM      3  N   UNL     1      88.440  68.784  83.989  0.00  0.00    +0.000 NA
ATOM      4  C   UNL     1      89.362  69.921  84.173  0.00  0.00    +0.000 C 
ATOM      5  O   UNL     1      90.103  69.795  85.387  0.00  0.00    +0.000 OA
ATOM      6  C   UNL     1      88.538  71.219  84.214  0.00  0.00    +0.000 C 
ATOM      7  C   UNL     1      89.429  72.462  84.242  0.00  0.00    +0.000 C 
ATOM      8  C   UNL     1      90.414  72.472  83.077  0.00  0.00    +0.000 C 
ATOM      9  C   UNL     1      91.238  71.189  83.019  0.00  0.00    +0.000 C 
ATOM     10  C   UNL     1      90.344  69.949  82.993  0.00  0.00    +0.000 C 
ENDROOT
BRANCH   1  11
ATOM     11  C   UNL     1      88.696  69.190  87.241  0.00  0.00    +0.000 A 
ATOM     12  C   UNL     1      87.536  68.547  87.713  0.00  0.00    +0.000 A 
ATOM     13  C   UNL     1      86.852  69.025  88.834  0.00  0.00    +0.000 A 
ATOM     14  C   UNL     1      87.306  70.164  89.494  0.00  0.00    +0.000 A 
ATOM     15  C   UNL     1      88.438  70.829  89.030  0.00  0.00    +0.000 A 
ATOM     16  C   UNL     1      89.124  70.352  87.910  0.00  0.00    +0.000 A 
ENDBRANCH   1  11
BRANCH   1  18
ATOM     17  C   UNL     1      90.230  66.434  86.129  0.00  0.00    +0.000 C 
ATOM     18  O   UNL     1      90.421  67.777  86.536  0.00  0.00    +0.000 OA
ENDBRANCH   1  18
TORSDOF 2
ENDMDL
