MODEL 1
REMARK VINA RESULT:      -4.5      0.000      0.000
REMARK  Name = *****
REMARK  3 active torsions:
REMARK  status: ('A' for Active; 'I' for Inactive)
REMARK    1  A    between atoms: N_7  and  S_11
REMARK    2  A    between atoms: S_11  and  C_12
REMARK    3  A    between atoms: C_12  and  C_13
REMARK                            x       y       z     vdW  Elec       q    Type
REMARK                         _______ _______ _______ _____ _____    ______ ____
ROOT
ATOM      1  C   UNL     1      88.522  65.534  87.654  0.00  0.00    +0.000 C 
ATOM      2  C   UNL     1      88.860  64.509  86.556  0.00  0.00    +0.000 C 
ATOM      3  C   UNL     1      89.860  65.036  85.517  0.00  0.00    +0.000 C 
ATOM      4  C   UNL     1      89.371  66.379  85.009  0.00  0.00    +0.000 C 
ATOM      5  C   UNL     1      89.280  67.361  86.153  0.00  0.00    +0.000 C 
ATOM      6  C   UNL     1      88.179  66.931  87.108  0.00  0.00    +0.000 C 
ATOM      7  N   UNL     1      89.171  68.574  85.412  0.00  0.00    +0.000 N 
ATOM      8  C   UNL     1      89.947  68.397  84.257  0.00  0.00    +0.000 C 
ATOM      9  O   UNL     1      90.357  69.256  83.492  0.00  0.00    +0.000 OA
ATOM     10  O   UNL     1      90.222  67.049  84.086  0.00  0.00    +0.000 OA
ENDROOT
BRANCH   7  11
ATOM     11  S   UNL     1      89.033  70.072  86.198  0.00  0.00    +0.000 S 
BRANCH  11  12
ATOM     12  C   UNL     1      87.580  70.761  85.339  0.00  0.00    +0.000 C 
BRANCH  12  13
ATOM     13  C   UNL     1      86.562  71.287  86.319  0.00  0.00    +0.000 A 
ATOM     14  C   UNL     1      86.746  71.108  87.699  0.00  0.00    +0.000 A 
ATOM     15  C   UNL     1      85.799  71.582  88.608  0.00  0.00    +0.000 A 
ATOM     16  C   UNL     1      84.658  72.236  88.149  0.00  0.00    +0.000 A 
ATOM     17  C   UNL     1      84.460  72.414  86.780  0.00  0.00    +0.000 A 
ATOM     18  C   UNL     1      85.406  71.940  85.869  0.00  0.00    +0.000 A 
ENDBRANCH  12  13
ENDBRANCH  11  12
ENDBRANCH   7  11
TORSDOF 3
ENDMDL
