MODEL 1
REMARK VINA RESULT:      -4.6      0.000      0.000
REMARK  Name = *****
REMARK  5 active torsions:
REMARK  status: ('A' for Active; 'I' for Inactive)
REMARK    1  A    between atoms: C_1  and  C_2
REMARK    2  A    between atoms: C_2  and  O_3
REMARK    3  A    between atoms: O_3  and  C_4
REMARK    4  A    between atoms: C_4  and  C_13
REMARK    5  A    between atoms: C_5  and  C_12
REMARK                            x       y       z     vdW  Elec       q    Type
REMARK                         _______ _______ _______ _____ _____    ______ ____
ROOT
ATOM      1  C   UNL     1      88.220  70.408  85.297  0.00  0.00    +0.000 C 
ATOM      2  C   UNL     1      89.357  70.010  86.371  0.00  0.00    +0.000 C 
ATOM      3  C   UNL     1      88.407  70.527  87.422  0.00  0.00    +0.000 A 
ATOM      4  C   UNL     1      88.256  70.733  88.774  0.00  0.00    +0.000 A 
ATOM      5  C   UNL     1      87.039  71.264  89.211  0.00  0.00    +0.000 A 
ATOM      6  C   UNL     1      86.018  71.569  88.291  0.00  0.00    +0.000 A 
ATOM      7  C   UNL     1      86.203  71.349  86.925  0.00  0.00    +0.000 A 
ATOM      8  C   UNL     1      87.415  70.828  86.523  0.00  0.00    +0.000 A 
ATOM      9  C   UNL     1      89.724  68.546  86.580  0.00  0.00    +0.000 C 
ENDROOT
BRANCH   1  10
ATOM     10  C   UNL     1      88.432  71.718  84.353  0.00  0.00    +0.000 A 
ATOM     11  C   UNL     1      89.725  72.259  84.159  0.00  0.00    +0.000 A 
ATOM     12  C   UNL     1      89.962  73.383  83.362  0.00  0.00    +0.000 A 
ATOM     13  C   UNL     1      88.902  74.007  82.715  0.00  0.00    +0.000 A 
ATOM     14  C   UNL     1      87.616  73.504  82.867  0.00  0.00    +0.000 A 
ATOM     15  C   UNL     1      87.389  72.380  83.670  0.00  0.00    +0.000 A 
ENDBRANCH   1  10
BRANCH   1  16
ATOM     16  O   UNL     1      87.614  69.290  84.581  0.00  0.00    +0.000 OA
BRANCH  16  18
ATOM     17  C   UNL     1      89.137  68.262  83.059  0.00  0.00    +0.000 C 
ATOM     18  C   UNL     1      87.916  69.151  83.197  0.00  0.00    +0.000 C 
ENDBRANCH  16  18
ENDBRANCH   1  16
TORSDOF 3
ENDMDL
