REMARK  Name = *****
REMARK  4 active torsions:
REMARK  status: ('A' for Active; 'I' for Inactive)
REMARK    1  A    between atoms: C_1  and  O_2
REMARK    2  A    between atoms: O_2  and  C_3
REMARK    3  A    between atoms: C_10  and  S_12
REMARK    4  A    between atoms: S_12  and  C_13
REMARK                            x       y       z     vdW  Elec       q    Type
REMARK                         _______ _______ _______ _____ _____    ______ ____
ROOT
ATOM      1  C   UNL     1       2.954   0.368   1.131  0.00  0.00    +0.000 A 
ATOM      2  C   UNL     1       4.128   1.127   1.213  0.00  0.00    +0.000 A 
ATOM      3  C   UNL     1       4.880   1.064   2.373  0.00  0.00    +0.000 A 
ATOM      4  C   UNL     1       4.473   0.284   3.440  0.00  0.00    +0.000 A 
ATOM      5  C   UNL     1       3.311  -0.456   3.397  0.00  0.00    +0.000 A 
ATOM      6  C   UNL     1       2.546  -0.416   2.226  0.00  0.00    +0.000 A 
ATOM      7  O   UNL     1       5.319   0.332   4.515  0.00  0.00    +0.000 OA
ATOM      8  C   UNL     1       6.507   0.998   4.010  0.00  0.00    +0.000 C 
ATOM      9  C   UNL     1       6.119   1.786   2.744  0.00  0.00    +0.000 C 
ENDROOT
BRANCH   1  11
ATOM     10  C   UNL     1       1.161  -0.364  -0.248  0.00  0.00    +0.000 C 
ATOM     11  O   UNL     1       2.287   0.484  -0.059  0.00  0.00    +0.000 OA
ENDBRANCH   1  11
BRANCH   8  12
ATOM     12  S   UNL     1       7.861  -0.200   3.651  0.00  0.00    +0.000 S 
BRANCH  12  13
ATOM     13  C   UNL     1       8.291  -0.691   5.310  0.00  0.00    +0.000 A 
ATOM     14  C   UNL     1       7.407  -1.431   6.101  0.00  0.00    +0.000 A 
ATOM     15  C   UNL     1       7.773  -1.822   7.391  0.00  0.00    +0.000 A 
ATOM     16  C   UNL     1       9.029  -1.486   7.892  0.00  0.00    +0.000 A 
ATOM     17  C   UNL     1       9.922  -0.763   7.103  0.00  0.00    +0.000 A 
ATOM     18  C   UNL     1       9.555  -0.371   5.813  0.00  0.00    +0.000 A 
ENDBRANCH  12  13
ENDBRANCH   8  12
TORSDOF 3
