MODEL 1
REMARK VINA RESULT:      -4.6      0.000      0.000
REMARK  Name = *****
REMARK  5 active torsions:
REMARK  status: ('A' for Active; 'I' for Inactive)
REMARK    1  A    between atoms: C_1  and  O_2
REMARK    2  A    between atoms: O_2  and  C_3
REMARK    3  A    between atoms: C_8  and  O_9
REMARK    4  A    between atoms: O_9  and  C_10
REMARK    5  A    between atoms: C_10  and  C_11
REMARK                            x       y       z     vdW  Elec       q    Type
REMARK                         _______ _______ _______ _____ _____    ______ ____
ROOT
ATOM      1  C   UNL     1      89.809  68.954  85.606  0.00  0.00    +0.000 C 
ENDROOT
BRANCH   1   2
ATOM      2  C   UNL     1      88.643  69.727  86.158  0.00  0.00    +0.000 A 
ATOM      3  N   UNL     1      87.726  70.323  85.423  0.00  0.00    +0.000 NA
ATOM      4  C   UNL     1      86.799  70.951  86.237  0.00  0.00    +0.000 A 
ATOM      5  C   UNL     1      85.671  71.675  85.798  0.00  0.00    +0.000 A 
ATOM      6  C   UNL     1      84.814  72.264  86.735  0.00  0.00    +0.000 A 
ATOM      7  C   UNL     1      85.068  72.141  88.096  0.00  0.00    +0.000 A 
ATOM      8  C   UNL     1      86.180  71.428  88.557  0.00  0.00    +0.000 A 
ATOM      9  C   UNL     1      87.033  70.840  87.608  0.00  0.00    +0.000 A 
ATOM     10  S   UNL     1      88.463  69.916  87.859  0.00  0.00    +0.000 S 
ENDBRANCH   1   2
BRANCH   1  11
ATOM     11  O   UNL     1      90.213  68.032  86.615  0.00  0.00    +0.000 OA
BRANCH  11  17
ATOM     12  C   UNL     1      89.069  65.819  86.821  0.00  0.00    +0.000 A 
ATOM     13  C   UNL     1      89.122  64.470  86.439  0.00  0.00    +0.000 A 
ATOM     14  C   UNL     1      90.160  63.986  85.639  0.00  0.00    +0.000 A 
ATOM     15  C   UNL     1      91.164  64.844  85.209  0.00  0.00    +0.000 A 
ATOM     16  C   UNL     1      91.119  66.188  85.574  0.00  0.00    +0.000 A 
ATOM     17  C   UNL     1      90.075  66.691  86.365  0.00  0.00    +0.000 A 
BRANCH  12  19
ATOM     18  C   UNL     1      87.452  65.455  88.547  0.00  0.00    +0.000 C 
ATOM     19  O   UNL     1      88.083  66.330  87.622  0.00  0.00    +0.000 OA
ENDBRANCH  12  19
ENDBRANCH  11  17
ENDBRANCH   1  11
TORSDOF 4
ENDMDL
