MODEL 1
REMARK VINA RESULT:      -5.5      0.000      0.000
REMARK  Name = *****
REMARK  3 active torsions:
REMARK  status: ('A' for Active; 'I' for Inactive)
REMARK    1  A    between atoms: C_1  and  C_2
REMARK    2  A    between atoms: C_5  and  S_8
REMARK    3  A    between atoms: C_16  and  C_18
REMARK                            x       y       z     vdW  Elec       q    Type
REMARK                         _______ _______ _______ _____ _____    ______ ____
ROOT
ATOM      1  S   UNL     1      88.622  70.205  87.235  0.00  0.00    +0.000 S 
ATOM      2  N   UNL     1      87.606  70.619  86.158  0.00  0.00    +0.000 NA
ATOM      3  C   UNL     1      86.483  71.259  86.446  0.00  0.00    +0.000 A 
ATOM      4  C   UNL     1      85.722  71.597  85.338  0.00  0.00    +0.000 A 
ATOM      5  C   UNL     1      84.501  72.265  85.440  0.00  0.00    +0.000 A 
ATOM      6  C   UNL     1      84.015  72.609  86.690  0.00  0.00    +0.000 A 
ATOM      7  C   UNL     1      84.756  72.282  87.824  0.00  0.00    +0.000 A 
ATOM      8  C   UNL     1      85.996  71.604  87.736  0.00  0.00    +0.000 A 
ATOM      9  C   UNL     1      86.747  71.264  88.885  0.00  0.00    +0.000 C 
ATOM     10  C   UNL     1      87.972  70.611  88.787  0.00  0.00    +0.000 C 
ATOM     11  C   UNL     1      86.262  71.609  90.275  0.00  0.00    +0.000 C 
ATOM     12  O   UNL     1      89.842  70.935  86.990  0.00  0.00    +0.000 OA
ENDROOT
BRANCH   1  17
ATOM     13  C   UNL     1      89.301  64.268  86.363  0.00  0.00    +0.000 C 
ATOM     14  C   UNL     1      89.143  65.741  86.605  0.00  0.00    +0.000 A 
ATOM     15  C   UNL     1      90.122  66.639  86.159  0.00  0.00    +0.000 A 
ATOM     16  C   UNL     1      89.962  68.013  86.347  0.00  0.00    +0.000 A 
ATOM     17  C   UNL     1      88.813  68.490  86.977  0.00  0.00    +0.000 A 
ATOM     18  C   UNL     1      87.819  67.611  87.410  0.00  0.00    +0.000 A 
ATOM     19  C   UNL     1      87.985  66.238  87.217  0.00  0.00    +0.000 A 
ENDBRANCH   1  17
TORSDOF 1
ENDMDL
