MODEL 1
REMARK VINA RESULT:      -4.6      0.000      0.000
REMARK  Name = *****
REMARK  3 active torsions:
REMARK  status: ('A' for Active; 'I' for Inactive)
REMARK    1  A    between atoms: C_1  and  C_2
REMARK    2  A    between atoms: N_9  and  N_12
REMARK    3  A    between atoms: C_13  and  C_14
REMARK                            x       y       z     vdW  Elec       q    Type
REMARK                         _______ _______ _______ _____ _____    ______ ____
ROOT
ATOM      1  C   UNL     1      97.155 117.657  72.420  0.00  0.00    +0.000 C 
ATOM      2  C   UNL     1      96.376 117.803  73.694  0.00  0.00    +0.000 A 
ATOM      3  C   UNL     1      96.834 117.199  74.873  0.00  0.00    +0.000 A 
ATOM      4  C   UNL     1      96.070 117.331  76.027  0.00  0.00    +0.000 A 
ATOM      5  C   UNL     1      94.866 118.025  76.034  0.00  0.00    +0.000 A 
ATOM      6  C   UNL     1      94.391 118.612  74.873  0.00  0.00    +0.000 A 
ATOM      7  C   UNL     1      95.149 118.496  73.701  0.00  0.00    +0.000 A 
ATOM      8  S   UNL     1      94.109 118.019  77.629  0.00  0.00    +0.000 S 
ATOM      9  N   UNL     1      95.464 117.184  78.299  0.00  0.00    +0.000 N 
ATOM     10  C   UNL     1      96.400 116.760  77.345  0.00  0.00    +0.000 A 
ATOM     11  O   UNL     1      97.379 116.043  77.506  0.00  0.00    +0.000 OA
ENDROOT
BRANCH   9  12
ATOM     12  N   UNL     1      95.274 116.423  79.415  0.00  0.00    +0.000 NA
ATOM     13  C   UNL     1      95.629 116.921  80.563  0.00  0.00    +0.000 C 
BRANCH  13  14
ATOM     14  C   UNL     1      96.387 118.156  80.840  0.00  0.00    +0.000 A 
ATOM     15  C   UNL     1      95.678 119.290  81.241  0.00  0.00    +0.000 A 
ATOM     16  C   UNL     1      96.379 120.459  81.532  0.00  0.00    +0.000 A 
ATOM     17  C   UNL     1      97.771 120.497  81.442  0.00  0.00    +0.000 A 
ATOM     18  C   UNL     1      98.475 119.353  81.063  0.00  0.00    +0.000 A 
ATOM     19  C   UNL     1      97.784 118.177  80.768  0.00  0.00    +0.000 A 
ATOM     20 CL   UNL     1      95.517 121.870  82.008  0.00  0.00    +0.000 Cl
ENDBRANCH  13  14
ENDBRANCH   9  12
TORSDOF 2
ENDMDL
