MODEL 1
REMARK VINA RESULT:      -4.7      0.000      0.000
REMARK  Name = *****
REMARK  4 active torsions:
REMARK  status: ('A' for Active; 'I' for Inactive)
REMARK    1  A    between atoms: C_1  and  C_2
REMARK    2  A    between atoms: C_2  and  C_3
REMARK    3  A    between atoms: C_2  and  O_12
REMARK    4  A    between atoms: O_12  and  C_13
REMARK                            x       y       z     vdW  Elec       q    Type
REMARK                         _______ _______ _______ _____ _____    ______ ____
ROOT
ATOM      1  C   UNL     1      91.083  65.187  85.340  0.00  0.00    +0.000 C 
ATOM      2  C   UNL     1      89.845  65.941  85.821  0.00  0.00    +0.000 C 
ENDROOT
BRANCH   2   3
ATOM      3  C   UNL     1      88.997  65.069  86.719  0.00  0.00    +0.000 A 
ATOM      4  N   UNL     1      88.755  65.357  87.982  0.00  0.00    +0.000 NA
ATOM      5  C   UNL     1      87.953  64.382  88.550  0.00  0.00    +0.000 A 
ATOM      6  C   UNL     1      87.495  64.361  89.882  0.00  0.00    +0.000 A 
ATOM      7  C   UNL     1      86.686  63.309  90.326  0.00  0.00    +0.000 A 
ATOM      8  C   UNL     1      86.332  62.281  89.458  0.00  0.00    +0.000 A 
ATOM      9  C   UNL     1      86.772  62.279  88.130  0.00  0.00    +0.000 A 
ATOM     10  C   UNL     1      87.581  63.342  87.697  0.00  0.00    +0.000 A 
ATOM     11  S   UNL     1      88.265  63.621  86.143  0.00  0.00    +0.000 S 
ENDBRANCH   2   3
BRANCH   2  12
ATOM     12  O   UNL     1      90.297  67.101  86.537  0.00  0.00    +0.000 OA
BRANCH  12  13
ATOM     13  C   UNL     1      89.986  68.337  86.042  0.00  0.00    +0.000 A 
ATOM     14  C   UNL     1      89.918  68.695  84.695  0.00  0.00    +0.000 A 
ATOM     15  C   UNL     1      89.572  70.001  84.332  0.00  0.00    +0.000 A 
ATOM     16  C   UNL     1      89.288  70.951  85.311  0.00  0.00    +0.000 A 
ATOM     17  C   UNL     1      89.344  70.597  86.656  0.00  0.00    +0.000 A 
ATOM     18  C   UNL     1      89.688  69.293  87.018  0.00  0.00    +0.000 A 
ENDBRANCH  12  13
ENDBRANCH   2  12
TORSDOF 3
ENDMDL
