MODEL 1
REMARK VINA RESULT:      -5.1      0.000      0.000
REMARK  Name = *****
REMARK  5 active torsions:
REMARK  status: ('A' for Active; 'I' for Inactive)
REMARK    1  A    between atoms: C_1  and  C_2
REMARK    2  A    between atoms: C_6  and  C_20
REMARK    3  A    between atoms: C_7  and  O_12
REMARK    4  A    between atoms: O_12  and  C_13
REMARK    5  A    between atoms: C_13  and  C_14
REMARK                            x       y       z     vdW  Elec       q    Type
REMARK                         _______ _______ _______ _____ _____    ______ ____
ROOT
ATOM      1  C   UNL     1      89.808  72.160  84.217  0.00  0.00    +0.000 C 
ATOM      2  C   UNL     1      89.731  70.811  84.867  0.00  0.00    +0.000 A 
ATOM      3  C   UNL     1      89.936  69.642  84.122  0.00  0.00    +0.000 A 
ATOM      4  C   UNL     1      89.892  68.382  84.709  0.00  0.00    +0.000 A 
ATOM      5  N   UNL     1      90.086  67.286  83.950  0.00  0.00    +0.000 NA
ATOM      6  C   UNL     1      90.025  66.084  84.579  0.00  0.00    +0.000 A 
ATOM      7  C   UNL     1      89.777  65.994  85.946  0.00  0.00    +0.000 A 
ATOM      8  N   UNL     1      89.588  67.086  86.719  0.00  0.00    +0.000 NA
ATOM      9  C   UNL     1      89.645  68.278  86.098  0.00  0.00    +0.000 A 
ATOM     10  C   UNL     1      89.460  69.439  86.838  0.00  0.00    +0.000 A 
ATOM     11  C   UNL     1      89.504  70.699  86.238  0.00  0.00    +0.000 A 
ATOM     12  C   UNL     1      90.237  64.861  83.742  0.00  0.00    +0.000 C 
ENDROOT
BRANCH   7  13
ATOM     13  O   UNL     1      89.723  64.740  86.520  0.00  0.00    +0.000 OA
BRANCH  13  14
ATOM     14  C   UNL     1      88.388  64.289  86.753  0.00  0.00    +0.000 C 
BRANCH  14  15
ATOM     15  C   UNL     1      88.047  64.380  88.226  0.00  0.00    +0.000 A 
ATOM     16  C   UNL     1      86.873  65.003  88.675  0.00  0.00    +0.000 A 
ATOM     17  C   UNL     1      86.559  65.031  90.035  0.00  0.00    +0.000 A 
ATOM     18  C   UNL     1      87.406  64.425  90.961  0.00  0.00    +0.000 A 
ATOM     19  C   UNL     1      88.567  63.789  90.528  0.00  0.00    +0.000 A 
ATOM     20  C   UNL     1      88.883  63.762  89.169  0.00  0.00    +0.000 A 
ENDBRANCH  14  15
ENDBRANCH  13  14
ENDBRANCH   7  13
TORSDOF 3
ENDMDL
