REMARK  Name = *****
REMARK  3 active torsions:
REMARK  status: ('A' for Active; 'I' for Inactive)
REMARK    1  A    between atoms: C_1  and  C_2
REMARK    2  A    between atoms: C_3  and  C_11
REMARK    3  A    between atoms: C_11  and  C_13
REMARK                            x       y       z     vdW  Elec       q    Type
REMARK                         _______ _______ _______ _____ _____    ______ ____
ROOT
ATOM      1  C   UNL     1       0.911   0.167  -0.575  0.00  0.00    +0.000 C 
ATOM      2  C   UNL     1       2.414  -0.004  -0.389  0.00  0.00    +0.000 C 
ATOM      3  C   UNL     1       3.036   1.153   0.442  0.00  0.00    +0.000 C 
ATOM      4  C   UNL     1       4.292   0.555   1.104  0.00  0.00    +0.000 C 
ATOM      5  C   UNL     1       3.884  -0.874   1.280  0.00  0.00    +0.000 A 
ATOM      6  C   UNL     1       4.461  -1.824   2.105  0.00  0.00    +0.000 A 
ATOM      7  C   UNL     1       3.938  -3.118   2.093  0.00  0.00    +0.000 A 
ATOM      8  C   UNL     1       2.863  -3.446   1.253  0.00  0.00    +0.000 A 
ATOM      9  C   UNL     1       2.297  -2.484   0.414  0.00  0.00    +0.000 A 
ATOM     10  C   UNL     1       2.810  -1.196   0.441  0.00  0.00    +0.000 A 
ENDROOT
BRANCH   3  11
ATOM     11  C   UNL     1       3.388   2.362  -0.412  0.00  0.00    +0.000 C 
ATOM     12  O   UNL     1       3.492   2.281  -1.635  0.00  0.00    +0.000 OA
BRANCH  11  13
ATOM     13  C   UNL     1       3.620   3.690   0.242  0.00  0.00    +0.000 A 
ATOM     14  C   UNL     1       3.960   4.777  -0.578  0.00  0.00    +0.000 A 
ATOM     15  C   UNL     1       4.178   6.042  -0.029  0.00  0.00    +0.000 A 
ATOM     16  C   UNL     1       4.060   6.234   1.345  0.00  0.00    +0.000 A 
ATOM     17  C   UNL     1       3.724   5.161   2.170  0.00  0.00    +0.000 A 
ATOM     18  C   UNL     1       3.504   3.893   1.623  0.00  0.00    +0.000 A 
ENDBRANCH  11  13
ENDBRANCH   3  11
TORSDOF 2
