MODEL 1
REMARK VINA RESULT:      -5.3      0.000      0.000
REMARK  Name = *****
REMARK  3 active torsions:
REMARK  status: ('A' for Active; 'I' for Inactive)
REMARK    1  A    between atoms: C_1  and  C_2
REMARK    2  A    between atoms: C_4  and  C_9
REMARK    3  A    between atoms: C_5  and  C_8
REMARK                            x       y       z     vdW  Elec       q    Type
REMARK                         _______ _______ _______ _____ _____    ______ ____
ROOT
ATOM      1  C   UNL     1      89.518  70.475  86.663  0.00  0.00    +0.000 C 
ATOM      2  C   UNL     1      90.050  70.846  85.283  0.00  0.00    +0.000 C 
ATOM      3  C   UNL     1      89.626  69.840  84.257  0.00  0.00    +0.000 C 
ATOM      4  O   UNL     1      89.431  70.134  83.082  0.00  0.00    +0.000 OA
ATOM      5  C   UNL     1      89.587  68.440  84.706  0.00  0.00    +0.000 A 
ATOM      6  C   UNL     1      89.459  67.402  83.778  0.00  0.00    +0.000 A 
ATOM      7  C   UNL     1      89.474  66.077  84.216  0.00  0.00    +0.000 A 
ATOM      8  C   UNL     1      89.618  65.796  85.575  0.00  0.00    +0.000 A 
ATOM      9  C   UNL     1      89.739  66.839  86.497  0.00  0.00    +0.000 A 
ATOM     10  C   UNL     1      89.713  68.166  86.065  0.00  0.00    +0.000 A 
ATOM     11  O   UNL     1      89.788  69.115  87.045  0.00  0.00    +0.000 OA
ENDROOT
BRANCH   1  15
ATOM     12  C   UNL     1      85.052  72.031  84.828  0.00  0.00    +0.000 C 
ATOM     13  C   UNL     1      85.900  71.645  86.003  0.00  0.00    +0.000 A 
ATOM     14  C   UNL     1      87.228  71.238  85.816  0.00  0.00    +0.000 A 
ATOM     15  C   UNL     1      88.065  70.900  86.899  0.00  0.00    +0.000 A 
ATOM     16  C   UNL     1      87.532  70.995  88.208  0.00  0.00    +0.000 A 
ATOM     17  C   UNL     1      86.202  71.414  88.388  0.00  0.00    +0.000 A 
ATOM     18  C   UNL     1      85.399  71.744  87.299  0.00  0.00    +0.000 A 
ATOM     19  C   UNL     1      88.327  70.629  89.434  0.00  0.00    +0.000 C 
ENDBRANCH   1  15
TORSDOF 1
ENDMDL
