REMARK  Name = *****
REMARK  1 active torsions:
REMARK  status: ('A' for Active; 'I' for Inactive)
REMARK    1  A    between atoms: C_2  and  C_11
REMARK                            x       y       z     vdW  Elec       q    Type
REMARK                         _______ _______ _______ _____ _____    ______ ____
ROOT
ATOM      1  C   UNL     1      -2.582   0.840  -0.572  0.00  0.00    +0.000 C 
ATOM      2  C   UNL     1      -2.450  -0.472   0.199  0.00  0.00    +0.000 C 
ATOM      3  O   UNL     1      -1.295  -1.214  -0.221  0.00  0.00    +0.000 OA
ATOM      4  C   UNL     1      -0.096  -0.567  -0.069  0.00  0.00    +0.000 A 
ATOM      5  C   UNL     1       1.020  -1.410  -0.055  0.00  0.00    +0.000 A 
ATOM      6  C   UNL     1       2.303  -0.884   0.092  0.00  0.00    +0.000 A 
ATOM      7  C   UNL     1       2.477   0.491   0.219  0.00  0.00    +0.000 A 
ATOM      8  C   UNL     1       1.367   1.339   0.189  0.00  0.00    +0.000 A 
ATOM      9  C   UNL     1       0.074   0.821   0.034  0.00  0.00    +0.000 A 
ATOM     10  S   UNL     1      -1.276   1.985  -0.042  0.00  0.00    +0.000 S 
ENDROOT
BRANCH   2  11
ATOM     11  C   UNL     1      -3.681  -1.334  -0.044  0.00  0.00    +0.000 A 
ATOM     12  C   UNL     1      -3.803  -2.130  -1.194  0.00  0.00    +0.000 A 
ATOM     13  C   UNL     1      -4.953  -2.890  -1.415  0.00  0.00    +0.000 A 
ATOM     14  C   UNL     1      -5.999  -2.858  -0.495  0.00  0.00    +0.000 A 
ATOM     15  C   UNL     1      -5.896  -2.067   0.647  0.00  0.00    +0.000 A 
ATOM     16  C   UNL     1      -4.746  -1.308   0.872  0.00  0.00    +0.000 A 
ENDBRANCH   2  11
TORSDOF 1
