MODEL 1
REMARK VINA RESULT:      -4.5      0.000      0.000
REMARK  Name = *****
REMARK  4 active torsions:
REMARK  status: ('A' for Active; 'I' for Inactive)
REMARK    1  A    between atoms: C_1  and  O_2
REMARK    2  A    between atoms: O_2  and  C_3
REMARK    3  A    between atoms: C_10  and  S_12
REMARK    4  A    between atoms: S_12  and  C_13
REMARK                            x       y       z     vdW  Elec       q    Type
REMARK                         _______ _______ _______ _____ _____    ______ ____
ROOT
ATOM      1  C   UNL     1      99.633 129.487  83.697  0.00  0.00    +0.000 A 
ATOM      2  C   UNL     1     100.998 129.206  83.826  0.00  0.00    +0.000 A 
ATOM      3  C   UNL     1     101.480 128.009  83.326  0.00  0.00    +0.000 A 
ATOM      4  C   UNL     1     100.630 127.097  82.728  0.00  0.00    +0.000 A 
ATOM      5  C   UNL     1      99.278 127.336  82.607  0.00  0.00    +0.000 A 
ATOM      6  C   UNL     1      98.776 128.548  83.093  0.00  0.00    +0.000 A 
ATOM      7  O   UNL     1     101.256 125.961  82.291  0.00  0.00    +0.000 OA
ATOM      8  C   UNL     1     102.672 126.270  82.383  0.00  0.00    +0.000 C 
ATOM      9  C   UNL     1     102.848 127.442  83.369  0.00  0.00    +0.000 C 
ENDROOT
BRANCH   1  11
ATOM     10  C   UNL     1      98.484 130.679  85.403  0.00  0.00    +0.000 C 
ATOM     11  O   UNL     1      99.254 130.700  84.207  0.00  0.00    +0.000 OA
ENDBRANCH   1  11
BRANCH   8  12
ATOM     12  S   UNL     1     103.390 126.681  80.736  0.00  0.00    +0.000 S 
BRANCH  12  13
ATOM     13  C   UNL     1     104.376 125.223  80.453  0.00  0.00    +0.000 A 
ATOM     14  C   UNL     1     104.167 124.051  81.186  0.00  0.00    +0.000 A 
ATOM     15  C   UNL     1     104.938 122.914  80.933  0.00  0.00    +0.000 A 
ATOM     16  C   UNL     1     105.914 122.940  79.939  0.00  0.00    +0.000 A 
ATOM     17  C   UNL     1     106.117 124.100  79.193  0.00  0.00    +0.000 A 
ATOM     18  C   UNL     1     105.346 125.237  79.447  0.00  0.00    +0.000 A 
ENDBRANCH  12  13
ENDBRANCH   8  12
TORSDOF 3
ENDMDL
