MODEL 1
REMARK VINA RESULT:      -4.8      0.000      0.000
REMARK  Name = *****
REMARK  5 active torsions:
REMARK  status: ('A' for Active; 'I' for Inactive)
REMARK    1  A    between atoms: C_1  and  O_2
REMARK    2  A    between atoms: O_2  and  C_3
REMARK    3  A    between atoms: C_5  and  C_14
REMARK    4  A    between atoms: C_5  and  O_20
REMARK    5  A    between atoms: O_20  and  C_21
REMARK                            x       y       z     vdW  Elec       q    Type
REMARK                         _______ _______ _______ _____ _____    ______ ____
ROOT
ATOM      1  C   UNL     1      86.519  68.497  88.790  0.00  0.00    +0.000 C 
ATOM      2  C   UNL     1      86.693  69.764  89.614  0.00  0.00    +0.000 C 
ATOM      3  C   UNL     1      87.189  70.949  88.765  0.00  0.00    +0.000 C 
ATOM      4  O   UNL     1      88.438  70.615  88.123  0.00  0.00    +0.000 OA
ATOM      5  C   UNL     1      88.567  69.360  87.600  0.00  0.00    +0.000 A 
ATOM      6  C   UNL     1      87.681  68.314  87.856  0.00  0.00    +0.000 A 
ATOM      7  C   UNL     1      87.888  67.075  87.226  0.00  0.00    +0.000 A 
ATOM      8  C   UNL     1      88.980  66.891  86.378  0.00  0.00    +0.000 A 
ATOM      9  C   UNL     1      89.876  67.931  86.149  0.00  0.00    +0.000 A 
ATOM     10  C   UNL     1      89.668  69.166  86.763  0.00  0.00    +0.000 A 
ATOM     11 CL   UNL     1      89.223  65.367  85.617  0.00  0.00    +0.000 Cl
ENDROOT
BRANCH   3  12
ATOM     12  C   UNL     1      86.124  71.490  87.796  0.00  0.00    +0.000 A 
ATOM     13  C   UNL     1      84.928  72.044  88.296  0.00  0.00    +0.000 A 
ATOM     14  C   UNL     1      83.950  72.549  87.437  0.00  0.00    +0.000 A 
ATOM     15  C   UNL     1      84.150  72.519  86.059  0.00  0.00    +0.000 A 
ATOM     16  C   UNL     1      85.329  71.990  85.543  0.00  0.00    +0.000 A 
ATOM     17  C   UNL     1      86.308  71.483  86.402  0.00  0.00    +0.000 A 
ENDBRANCH   3  12
BRANCH   1  19
ATOM     18  C   UNL     1      84.141  68.383  88.766  0.00  0.00    +0.000 C 
ATOM     19  O   UNL     1      85.331  68.512  88.001  0.00  0.00    +0.000 OA
ENDBRANCH   1  19
BRANCH   3  20
ATOM     20  O   UNL     1      87.439  71.984  89.757  0.00  0.00    +0.000 OA
ATOM     21  C   UNL     1      88.564  71.738  90.591  0.00  0.00    +0.000 C 
ENDBRANCH   3  20
TORSDOF 3
ENDMDL
