MODEL 1
REMARK VINA RESULT:      -4.5      0.000      0.000
REMARK  Name = *****
REMARK  5 active torsions:
REMARK  status: ('A' for Active; 'I' for Inactive)
REMARK    1  A    between atoms: C_2  and  C_3
REMARK    2  A    between atoms: C_3  and  C_4
REMARK    3  A    between atoms: C_3  and  C_10
REMARK    4  A    between atoms: C_10  and  C_11
REMARK    5  A    between atoms: C_10  and  O_17
REMARK                            x       y       z     vdW  Elec       q    Type
REMARK                         _______ _______ _______ _____ _____    ______ ____
ROOT
ATOM      1  C   UNL     1      88.468  70.790  85.214  0.00  0.00    +0.000 C 
ENDROOT
BRANCH   1   2
ATOM      2  C   UNL     1      89.661  71.574  84.573  0.00  0.00    +0.000 C 
ATOM      3  C   UNL     1      89.241  72.833  83.792  0.00  0.00    +0.000 C 
ATOM      4  C   UNL     1      90.451  73.571  83.217  0.00  0.00    +0.000 C 
ATOM      5  C   UNL     1      91.315  72.657  82.355  0.00  0.00    +0.000 C 
ATOM      6  C   UNL     1      91.736  71.405  83.115  0.00  0.00    +0.000 C 
ATOM      7  C   UNL     1      90.528  70.660  83.681  0.00  0.00    +0.000 C 
ENDBRANCH   1   2
BRANCH   1   9
ATOM      8  C   UNL     1      86.245  71.537  86.158  0.00  0.00    +0.000 C 
ATOM      9  C   UNL     1      87.174  71.590  85.194  0.00  0.00    +0.000 C 
ENDBRANCH   1   9
BRANCH   1  10
ATOM     10  C   UNL     1      88.784  70.290  86.658  0.00  0.00    +0.000 C 
BRANCH  10  11
ATOM     11  C   UNL     1      88.861  68.777  86.781  0.00  0.00    +0.000 A 
ATOM     12  C   UNL     1      87.832  68.049  87.401  0.00  0.00    +0.000 A 
ATOM     13  C   UNL     1      87.907  66.660  87.506  0.00  0.00    +0.000 A 
ATOM     14  C   UNL     1      89.009  65.981  86.992  0.00  0.00    +0.000 A 
ATOM     15  C   UNL     1      90.037  66.690  86.373  0.00  0.00    +0.000 A 
ATOM     16  C   UNL     1      89.964  68.079  86.267  0.00  0.00    +0.000 A 
ENDBRANCH  10  11
BRANCH  10  17
ATOM     17  O   UNL     1      90.026  70.841  87.115  0.00  0.00    +0.000 OA
ATOM     18  H   UNL     1      89.849  71.568  87.731  0.00  0.00    +0.000 HD
ENDBRANCH  10  17
ENDBRANCH   1  10
TORSDOF 5
ENDMDL
