MODEL 1
REMARK VINA RESULT:      -4.8      0.000      0.000
REMARK  Name = *****
REMARK  6 active torsions:
REMARK  status: ('A' for Active; 'I' for Inactive)
REMARK    1  A    between atoms: C_1  and  C_2
REMARK    2  A    between atoms: C_3  and  C_12
REMARK    3  A    between atoms: C_3  and  O_20
REMARK    4  A    between atoms: C_15  and  O_18
REMARK    5  A    between atoms: O_18  and  C_19
REMARK    6  A    between atoms: O_20  and  C_21
REMARK                            x       y       z     vdW  Elec       q    Type
REMARK                         _______ _______ _______ _____ _____    ______ ____
ROOT
ATOM      1  C   UNL     1     103.344 127.351  85.788  0.00  0.00    +0.000 C 
ATOM      2  C   UNL     1     103.758 127.140  84.332  0.00  0.00    +0.000 C 
ATOM      3  C   UNL     1     102.981 128.019  83.301  0.00  0.00    +0.000 C 
ATOM      4  O   UNL     1     103.542 127.809  81.984  0.00  0.00    +0.000 OA
ATOM      5  C   UNL     1     103.840 126.499  81.719  0.00  0.00    +0.000 A 
ATOM      6  C   UNL     1     104.084 126.181  80.383  0.00  0.00    +0.000 A 
ATOM      7  C   UNL     1     104.362 124.863  80.019  0.00  0.00    +0.000 A 
ATOM      8  C   UNL     1     104.400 123.864  80.992  0.00  0.00    +0.000 A 
ATOM      9  C   UNL     1     104.170 124.184  82.331  0.00  0.00    +0.000 A 
ATOM     10  C   UNL     1     103.905 125.503  82.695  0.00  0.00    +0.000 A 
ATOM     11  O   UNL     1     103.698 125.736  84.030  0.00  0.00    +0.000 OA
ENDROOT
BRANCH   3  12
ATOM     12  C   UNL     1     101.460 127.816  83.153  0.00  0.00    +0.000 A 
ATOM     13  C   UNL     1     100.870 126.719  82.509  0.00  0.00    +0.000 A 
ATOM     14  C   UNL     1      99.479 126.620  82.375  0.00  0.00    +0.000 A 
ATOM     15  C   UNL     1      98.638 127.617  82.868  0.00  0.00    +0.000 A 
ATOM     16  C   UNL     1      99.200 128.720  83.502  0.00  0.00    +0.000 A 
ATOM     17  C   UNL     1     100.592 128.817  83.638  0.00  0.00    +0.000 A 
BRANCH  15  18
ATOM     18  O   UNL     1      97.305 127.395  82.663  0.00  0.00    +0.000 OA
ATOM     19  C   UNL     1      96.575 126.834  83.747  0.00  0.00    +0.000 C 
ENDBRANCH  15  18
ENDBRANCH   3  12
BRANCH   3  20
ATOM     20  O   UNL     1     103.116 129.413  83.689  0.00  0.00    +0.000 OA
ATOM     21  C   UNL     1     104.420 129.955  83.549  0.00  0.00    +0.000 C 
ENDBRANCH   3  20
TORSDOF 3
ENDMDL
