REMARK  Name = *****
REMARK  7 active torsions:
REMARK  status: ('A' for Active; 'I' for Inactive)
REMARK    1  A    between atoms: C_1  and  C_2
REMARK    2  A    between atoms: C_5  and  O_9
REMARK    3  A    between atoms: C_7  and  O_8
REMARK    4  A    between atoms: O_9  and  C_10
REMARK    5  A    between atoms: C_13  and  C_15
REMARK    6  A    between atoms: C_13  and  O_21
REMARK    7  A    between atoms: O_21  and  C_22
REMARK                            x       y       z     vdW  Elec       q    Type
REMARK                         _______ _______ _______ _____ _____    ______ ____
ROOT
ATOM      1  C   UNL     1       0.982   0.166   0.102  0.00  0.00    +0.000 C 
ATOM      2  C   UNL     1       2.477   0.050  -0.023  0.00  0.00    +0.000 A 
ATOM      3  C   UNL     1       3.298   1.183   0.118  0.00  0.00    +0.000 A 
ATOM      4  C   UNL     1       4.693   1.079   0.009  0.00  0.00    +0.000 A 
ATOM      5  C   UNL     1       5.284  -0.185  -0.176  0.00  0.00    +0.000 A 
ATOM      6  C   UNL     1       4.475  -1.318  -0.286  0.00  0.00    +0.000 A 
ATOM      7  C   UNL     1       3.088  -1.193  -0.209  0.00  0.00    +0.000 A 
ATOM      8  C   UNL     1       5.553   2.307   0.127  0.00  0.00    +0.000 C 
ATOM      9  C   UNL     1       4.723   3.561  -0.068  0.00  0.00    +0.000 C 
ATOM     10  C   UNL     1       3.438   3.504   0.774  0.00  0.00    +0.000 C 
ATOM     11  O   UNL     1       2.653   2.367   0.374  0.00  0.00    +0.000 OA
ENDROOT
BRANCH  10  12
ATOM     12  C   UNL     1       3.728   3.548   2.286  0.00  0.00    +0.000 A 
ATOM     13  C   UNL     1       4.455   4.621   2.837  0.00  0.00    +0.000 A 
ATOM     14  C   UNL     1       4.731   4.681   4.205  0.00  0.00    +0.000 A 
ATOM     15  C   UNL     1       4.278   3.674   5.051  0.00  0.00    +0.000 A 
ATOM     16  C   UNL     1       3.542   2.613   4.533  0.00  0.00    +0.000 A 
ATOM     17  C   UNL     1       3.265   2.552   3.164  0.00  0.00    +0.000 A 
ENDBRANCH  10  12
BRANCH   7  18
ATOM     18  O   UNL     1       2.299  -2.308  -0.303  0.00  0.00    +0.000 OA
ATOM     19  H   UNL     1       1.367  -2.228  -0.251  0.00  0.00    +0.000 HD
ENDBRANCH   7  18
BRANCH   5  20
ATOM     20  O   UNL     1       6.654  -0.197  -0.234  0.00  0.00    +0.000 OA
ATOM     21  C   UNL     1       7.302  -1.460  -0.315  0.00  0.00    +0.000 C 
ENDBRANCH   5  20
BRANCH  10  22
ATOM     22  O   UNL     1       2.736   4.723   0.421  0.00  0.00    +0.000 OA
ATOM     23  C   UNL     1       1.386   4.764   0.863  0.00  0.00    +0.000 C 
ENDBRANCH  10  22
TORSDOF 4
