MODEL 1
REMARK VINA RESULT:      -4.7      0.000      0.000
REMARK  Name = *****
REMARK  9 active torsions:
REMARK  status: ('A' for Active; 'I' for Inactive)
REMARK    1  A    between atoms: C_1  and  O_2
REMARK    2  A    between atoms: O_2  and  C_3
REMARK    3  A    between atoms: C_4  and  O_23
REMARK    4  A    between atoms: C_5  and  O_21
REMARK    5  A    between atoms: C_9  and  C_13
REMARK    6  A    between atoms: C_9  and  O_19
REMARK    7  A    between atoms: O_19  and  C_20
REMARK    8  A    between atoms: O_21  and  C_22
REMARK    9  A    between atoms: O_23  and  C_24
REMARK                            x       y       z     vdW  Elec       q    Type
REMARK                         _______ _______ _______ _____ _____    ______ ____
ROOT
ATOM      1  C   UNL     1      87.776  64.478  87.027  0.00  0.00    +0.000 A 
ATOM      2  C   UNL     1      88.807  64.518  86.075  0.00  0.00    +0.000 A 
ATOM      3  C   UNL     1      89.397  65.738  85.708  0.00  0.00    +0.000 A 
ATOM      4  C   UNL     1      89.022  66.926  86.353  0.00  0.00    +0.000 A 
ATOM      5  C   UNL     1      89.676  68.233  86.008  0.00  0.00    +0.000 C 
ATOM      6  C   UNL     1      89.399  69.272  87.085  0.00  0.00    +0.000 C 
ATOM      7  C   UNL     1      87.904  69.270  87.442  0.00  0.00    +0.000 C 
ATOM      8  O   UNL     1      87.515  67.982  87.955  0.00  0.00    +0.000 OA
ATOM      9  C   UNL     1      87.989  66.882  87.292  0.00  0.00    +0.000 A 
ATOM     10  C   UNL     1      87.377  65.670  87.633  0.00  0.00    +0.000 A 
ENDROOT
BRANCH   7  11
ATOM     11  C   UNL     1      87.693  70.339  88.528  0.00  0.00    +0.000 A 
ATOM     12  C   UNL     1      88.794  70.876  89.224  0.00  0.00    +0.000 A 
ATOM     13  C   UNL     1      88.615  71.831  90.228  0.00  0.00    +0.000 A 
ATOM     14  C   UNL     1      87.332  72.259  90.559  0.00  0.00    +0.000 A 
ATOM     15  C   UNL     1      86.230  71.734  89.891  0.00  0.00    +0.000 A 
ATOM     16  C   UNL     1      86.407  70.779  88.887  0.00  0.00    +0.000 A 
ENDBRANCH   7  11
BRANCH   1  18
ATOM     17  C   UNL     1      87.268  62.802  88.647  0.00  0.00    +0.000 C 
ATOM     18  O   UNL     1      87.244  63.244  87.296  0.00  0.00    +0.000 OA
ENDBRANCH   1  18
BRANCH   7  19
ATOM     19  O   UNL     1      87.167  69.625  86.253  0.00  0.00    +0.000 OA
ATOM     20  C   UNL     1      87.539  70.879  85.695  0.00  0.00    +0.000 C 
ENDBRANCH   7  19
BRANCH   3  21
ATOM     21  O   UNL     1      90.403  65.821  84.775  0.00  0.00    +0.000 OA
ATOM     22  C   UNL     1      91.643  65.316  85.273  0.00  0.00    +0.000 C 
ENDBRANCH   3  21
BRANCH   2  23
ATOM     23  O   UNL     1      89.210  63.350  85.469  0.00  0.00    +0.000 OA
ATOM     24  C   UNL     1      88.479  63.162  84.257  0.00  0.00    +0.000 C 
ENDBRANCH   2  23
TORSDOF 5
ENDMDL
