REMARK  Name = *****
REMARK  1 active torsions:
REMARK  status: ('A' for Active; 'I' for Inactive)
REMARK    1  A    between atoms: C_2  and  C_13
REMARK                            x       y       z     vdW  Elec       q    Type
REMARK                         _______ _______ _______ _____ _____    ______ ____
ROOT
ATOM      1  C   UNL     1      -2.475   0.592  -0.433  0.00  0.00    +0.000 C 
ATOM      2  C   UNL     1      -2.224  -0.604   0.478  0.00  0.00    +0.000 C 
ATOM      3  O   UNL     1      -1.069  -1.332   0.013  0.00  0.00    +0.000 OA
ATOM      4  C   UNL     1       0.073  -0.576  -0.088  0.00  0.00    +0.000 A 
ATOM      5  C   UNL     1       0.044   0.805  -0.289  0.00  0.00    +0.000 A 
ATOM      6  C   UNL     1      -1.262   1.476  -0.442  0.00  0.00    +0.000 C 
ATOM      7  O   UNL     1      -1.334   2.686  -0.631  0.00  0.00    +0.000 OA
ATOM      8  C   UNL     1       1.229   1.543  -0.381  0.00  0.00    +0.000 A 
ATOM      9  C   UNL     1       2.458   0.892  -0.283  0.00  0.00    +0.000 A 
ATOM     10  C   UNL     1       2.499  -0.491  -0.101  0.00  0.00    +0.000 A 
ATOM     11  C   UNL     1       1.311  -1.223  -0.008  0.00  0.00    +0.000 A 
ATOM     12 CL   UNL     1       1.417  -2.931   0.226  0.00  0.00    +0.000 Cl
ENDROOT
BRANCH   2  13
ATOM     13  C   UNL     1      -2.151  -0.371   1.985  0.00  0.00    +0.000 A 
ATOM     14  C   UNL     1      -2.492   0.848   2.592  0.00  0.00    +0.000 A 
ATOM     15  C   UNL     1      -2.421   1.000   3.980  0.00  0.00    +0.000 A 
ATOM     16  C   UNL     1      -2.017  -0.063   4.784  0.00  0.00    +0.000 A 
ATOM     17  C   UNL     1      -1.687  -1.283   4.202  0.00  0.00    +0.000 A 
ATOM     18  C   UNL     1      -1.759  -1.437   2.817  0.00  0.00    +0.000 A 
ENDBRANCH   2  13
TORSDOF 1
