MODEL 1
REMARK VINA RESULT:      -5.5      0.000      0.000
REMARK  Name = *****
REMARK  3 active torsions:
REMARK  status: ('A' for Active; 'I' for Inactive)
REMARK    1  A    between atoms: C_10  and  C_11
REMARK    2  A    between atoms: C_11  and  C_12
REMARK    3  A    between atoms: C_11  and  O_19
REMARK                            x       y       z     vdW  Elec       q    Type
REMARK                         _______ _______ _______ _____ _____    ______ ____
ROOT
ATOM      1  C   UNL     1      84.043  72.439  88.244  0.00  0.00    +0.000 A 
ATOM      2  C   UNL     1      85.095  71.936  88.995  0.00  0.00    +0.000 A 
ATOM      3  C   UNL     1      86.247  71.468  88.356  0.00  0.00    +0.000 A 
ATOM      4  C   UNL     1      86.386  71.486  86.947  0.00  0.00    +0.000 A 
ATOM      5  C   UNL     1      85.296  72.007  86.200  0.00  0.00    +0.000 A 
ATOM      6  C   UNL     1      84.145  72.474  86.855  0.00  0.00    +0.000 A 
ATOM      7  C   UNL     1      85.363  72.058  84.801  0.00  0.00    +0.000 A 
ATOM      8  C   UNL     1      86.489  71.605  84.123  0.00  0.00    +0.000 A 
ATOM      9  C   UNL     1      87.564  71.091  84.839  0.00  0.00    +0.000 A 
ATOM     10  C   UNL     1      87.541  71.019  86.246  0.00  0.00    +0.000 A 
ENDROOT
BRANCH  10  11
ATOM     11  C   UNL     1      88.741  70.426  86.982  0.00  0.00    +0.000 C 
BRANCH  11  12
ATOM     12  C   UNL     1      88.819  68.906  86.958  0.00  0.00    +0.000 A 
ATOM     13  C   UNL     1      87.789  68.111  87.490  0.00  0.00    +0.000 A 
ATOM     14  C   UNL     1      87.862  66.717  87.433  0.00  0.00    +0.000 A 
ATOM     15  C   UNL     1      88.959  66.105  86.833  0.00  0.00    +0.000 A 
ATOM     16  C   UNL     1      89.982  66.874  86.286  0.00  0.00    +0.000 A 
ATOM     17  C   UNL     1      89.910  68.269  86.342  0.00  0.00    +0.000 A 
ATOM     18 CL   UNL     1      89.049  64.388  86.762  0.00  0.00    +0.000 Cl
ENDBRANCH  11  12
BRANCH  11  19
ATOM     19  O   UNL     1      89.976  70.944  86.473  0.00  0.00    +0.000 OA
ATOM     20  H   UNL     1      89.818  71.808  86.060  0.00  0.00    +0.000 HD
ENDBRANCH  11  19
ENDBRANCH  10  11
TORSDOF 3
ENDMDL
