MODEL 1
REMARK VINA RESULT:      -5.2      0.000      0.000
REMARK  Name = *****
REMARK  1 active torsions:
REMARK  status: ('A' for Active; 'I' for Inactive)
REMARK    1  A    between atoms: C_2  and  C_13
REMARK                            x       y       z     vdW  Elec       q    Type
REMARK                         _______ _______ _______ _____ _____    ______ ____
ROOT
ATOM      1  C   UNL     1     102.566 125.579  83.853  0.00  0.00    +0.000 C 
ATOM      2  C   UNL     1     101.809 125.918  82.576  0.00  0.00    +0.000 C 
ATOM      3  O   UNL     1     102.710 126.342  81.538  0.00  0.00    +0.000 OA
ATOM      4  C   UNL     1     103.691 125.425  81.273  0.00  0.00    +0.000 A 
ATOM      5  C   UNL     1     104.122 124.469  82.195  0.00  0.00    +0.000 A 
ATOM      6  C   UNL     1     103.528 124.467  83.545  0.00  0.00    +0.000 C 
ATOM      7  O   UNL     1     103.863 123.632  84.378  0.00  0.00    +0.000 OA
ATOM      8  C   UNL     1     105.126 123.556  81.858  0.00  0.00    +0.000 A 
ATOM      9  C   UNL     1     105.706 123.621  80.593  0.00  0.00    +0.000 A 
ATOM     10  C   UNL     1     105.296 124.589  79.674  0.00  0.00    +0.000 A 
ATOM     11  C   UNL     1     104.290 125.497  80.016  0.00  0.00    +0.000 A 
ATOM     12 CL   UNL     1     106.945 122.510  80.163  0.00  0.00    +0.000 Cl
ENDROOT
BRANCH   2  13
ATOM     13  C   UNL     1     100.799 127.021  82.833  0.00  0.00    +0.000 A 
ATOM     14  C   UNL     1      99.455 126.886  82.453  0.00  0.00    +0.000 A 
ATOM     15  C   UNL     1      98.545 127.921  82.672  0.00  0.00    +0.000 A 
ATOM     16  C   UNL     1      98.969 129.108  83.265  0.00  0.00    +0.000 A 
ATOM     17  C   UNL     1     100.302 129.261  83.641  0.00  0.00    +0.000 A 
ATOM     18  C   UNL     1     101.212 128.225  83.424  0.00  0.00    +0.000 A 
ENDBRANCH   2  13
TORSDOF 1
ENDMDL
