MODEL 1
REMARK VINA RESULT:      -4.8      0.000      0.000
REMARK  Name = *****
REMARK  3 active torsions:
REMARK  status: ('A' for Active; 'I' for Inactive)
REMARK    1  A    between atoms: C_1  and  C_2
REMARK    2  A    between atoms: C_3  and  C_13
REMARK    3  A    between atoms: N_11  and  C_12
REMARK                            x       y       z     vdW  Elec       q    Type
REMARK                         _______ _______ _______ _____ _____    ______ ____
ROOT
ATOM      1  C   UNL     1      90.261  71.085  84.926  0.00  0.00    +0.000 C 
ATOM      2  C   UNL     1      89.462  69.784  85.099  0.00  0.00    +0.000 C 
ATOM      3  C   UNL     1      89.781  69.103  86.457  0.00  0.00    +0.000 C 
ATOM      4  O   UNL     1      89.290  69.854  87.582  0.00  0.00    +0.000 OA
ATOM      5  C   UNL     1      88.073  70.459  87.385  0.00  0.00    +0.000 A 
ATOM      6  C   UNL     1      87.482  70.977  88.543  0.00  0.00    +0.000 A 
ATOM      7  C   UNL     1      86.228  71.580  88.481  0.00  0.00    +0.000 A 
ATOM      8  C   UNL     1      85.569  71.673  87.260  0.00  0.00    +0.000 A 
ATOM      9  C   UNL     1      86.166  71.166  86.101  0.00  0.00    +0.000 A 
ATOM     10  C   UNL     1      87.427  70.548  86.137  0.00  0.00    +0.000 A 
ATOM     11  N   UNL     1      88.025  70.091  84.943  0.00  0.00    +0.000 N 
ATOM     12  C   UNL     1      87.224  69.098  84.224  0.00  0.00    +0.000 C 
ENDROOT
BRANCH   3  13
ATOM     13  C   UNL     1      89.418  67.618  86.516  0.00  0.00    +0.000 A 
ATOM     14  C   UNL     1      90.248  66.679  85.874  0.00  0.00    +0.000 A 
ATOM     15  C   UNL     1      89.949  65.316  85.904  0.00  0.00    +0.000 A 
ATOM     16  C   UNL     1      88.819  64.865  86.580  0.00  0.00    +0.000 A 
ATOM     17  C   UNL     1      87.992  65.776  87.230  0.00  0.00    +0.000 A 
ATOM     18  C   UNL     1      88.291  67.141  87.202  0.00  0.00    +0.000 A 
ENDBRANCH   3  13
TORSDOF 1
ENDMDL
