REMARK  Name = *****
REMARK  6 active torsions:
REMARK  status: ('A' for Active; 'I' for Inactive)
REMARK    1  A    between atoms: C_1  and  C_2
REMARK    2  A    between atoms: C_2  and  O_3
REMARK    3  A    between atoms: O_3  and  C_4
REMARK    4  A    between atoms: C_4  and  C_16
REMARK    5  A    between atoms: C_5  and  C_14
REMARK    6  A    between atoms: C_5  and  C_15
REMARK                            x       y       z     vdW  Elec       q    Type
REMARK                         _______ _______ _______ _____ _____    ______ ____
ROOT
ATOM      1  C   UNL     1       4.551  -0.708   1.340  0.00  0.00    +0.000 C 
ATOM      2  C   UNL     1       5.069  -1.819   2.339  0.00  0.00    +0.000 C 
ATOM      3  O   UNL     1       6.509  -1.841   2.447  0.00  0.00    +0.000 OA
ATOM      4  C   UNL     1       7.071  -0.593   2.452  0.00  0.00    +0.000 A 
ATOM      5  C   UNL     1       8.416  -0.523   2.810  0.00  0.00    +0.000 A 
ATOM      6  C   UNL     1       9.064   0.712   2.855  0.00  0.00    +0.000 A 
ATOM      7  C   UNL     1       8.364   1.877   2.539  0.00  0.00    +0.000 A 
ATOM      8  C   UNL     1       7.020   1.805   2.171  0.00  0.00    +0.000 A 
ATOM      9  C   UNL     1       6.377   0.569   2.114  0.00  0.00    +0.000 A 
ATOM     10  O   UNL     1       5.066   0.586   1.727  0.00  0.00    +0.000 OA
ATOM     11  C   UNL     1       4.523  -1.613   3.775  0.00  0.00    +0.000 C 
ATOM     12  C   UNL     1       4.629  -3.235   1.916  0.00  0.00    +0.000 C 
ENDROOT
BRANCH   1  13
ATOM     13  C   UNL     1       4.877  -0.865  -0.166  0.00  0.00    +0.000 A 
ATOM     14  C   UNL     1       4.068  -0.220  -1.126  0.00  0.00    +0.000 A 
ATOM     15  C   UNL     1       4.344  -0.299  -2.494  0.00  0.00    +0.000 A 
ATOM     16  C   UNL     1       5.446  -1.018  -2.941  0.00  0.00    +0.000 A 
ATOM     17  C   UNL     1       6.274  -1.648  -2.018  0.00  0.00    +0.000 A 
ATOM     18  C   UNL     1       5.996  -1.566  -0.649  0.00  0.00    +0.000 A 
ENDBRANCH   1  13
BRANCH   1  19
ATOM     19  O   UNL     1       3.095  -0.753   1.419  0.00  0.00    +0.000 OA
BRANCH  19  21
ATOM     20  C   UNL     1       0.985   0.146   2.053  0.00  0.00    +0.000 C 
ATOM     21  C   UNL     1       2.481   0.393   2.002  0.00  0.00    +0.000 C 
ENDBRANCH  19  21
ENDBRANCH   1  19
TORSDOF 3
