MODEL 1
REMARK VINA RESULT:      -5.4      0.000      0.000
REMARK  Name = *****
REMARK  4 active torsions:
REMARK  status: ('A' for Active; 'I' for Inactive)
REMARK    1  A    between atoms: C_1  and  C_2
REMARK    2  A    between atoms: C_11  and  O_13
REMARK    3  A    between atoms: O_13  and  C_14
REMARK    4  A    between atoms: C_14  and  C_15
REMARK                            x       y       z     vdW  Elec       q    Type
REMARK                         _______ _______ _______ _____ _____    ______ ____
ROOT
ATOM      1  C   UNL     1     100.190 130.202  84.431  0.00  0.00    +0.000 C 
ATOM      2  C   UNL     1     100.035 128.912  83.682  0.00  0.00    +0.000 A 
ATOM      3  C   UNL     1      98.824 128.385  83.440  0.00  0.00    +0.000 A 
ATOM      4  C   UNL     1      98.618 127.129  82.704  0.00  0.00    +0.000 A 
ATOM      5  O   UNL     1      97.487 126.692  82.520  0.00  0.00    +0.000 OA
ATOM      6  O   UNL     1      99.748 126.483  82.239  0.00  0.00    +0.000 OA
ATOM      7  C   UNL     1     101.034 127.010  82.472  0.00  0.00    +0.000 A 
ATOM      8  C   UNL     1     101.216 128.196  83.185  0.00  0.00    +0.000 A 
ATOM      9  C   UNL     1     102.531 128.638  83.377  0.00  0.00    +0.000 A 
ATOM     10  C   UNL     1     103.618 127.918  82.859  0.00  0.00    +0.000 A 
ATOM     11  C   UNL     1     103.407 126.746  82.131  0.00  0.00    +0.000 A 
ATOM     12  C   UNL     1     102.104 126.285  81.950  0.00  0.00    +0.000 A 
ENDROOT
BRANCH  11  13
ATOM     13  O   UNL     1     104.374 125.969  81.558  0.00  0.00    +0.000 OA
BRANCH  13  14
ATOM     14  C   UNL     1     103.938 124.885  80.737  0.00  0.00    +0.000 C 
BRANCH  14  15
ATOM     15  C   UNL     1     104.412 123.584  81.340  0.00  0.00    +0.000 A 
ATOM     16  C   UNL     1     104.258 123.339  82.712  0.00  0.00    +0.000 A 
ATOM     17  C   UNL     1     104.680 122.131  83.256  0.00  0.00    +0.000 A 
ATOM     18  C   UNL     1     105.252 121.145  82.461  0.00  0.00    +0.000 A 
ATOM     19  C   UNL     1     105.401 121.370  81.095  0.00  0.00    +0.000 A 
ATOM     20  C   UNL     1     104.979 122.580  80.536  0.00  0.00    +0.000 A 
ATOM     21  F   UNL     1     104.532 121.914  84.570  0.00  0.00    +0.000 F 
ENDBRANCH  14  15
ENDBRANCH  13  14
ENDBRANCH  11  13
TORSDOF 3
ENDMDL
