MODEL 1
REMARK VINA RESULT:      -4.6      0.000      0.000
REMARK  Name = *****
REMARK  3 active torsions:
REMARK  status: ('A' for Active; 'I' for Inactive)
REMARK    1  A    between atoms: C_1  and  C_2
REMARK    2  A    between atoms: C_9  and  S_11
REMARK    3  A    between atoms: S_11  and  C_12
REMARK                            x       y       z     vdW  Elec       q    Type
REMARK                         _______ _______ _______ _____ _____    ______ ____
ROOT
ATOM      1  C   UNL     1      88.621  62.978  85.339  0.00  0.00    +0.000 C 
ATOM      2  C   UNL     1      89.044  64.388  85.630  0.00  0.00    +0.000 A 
ATOM      3  C   UNL     1      88.118  65.332  86.097  0.00  0.00    +0.000 A 
ATOM      4  C   UNL     1      88.561  66.618  86.359  0.00  0.00    +0.000 A 
ATOM      5  C   UNL     1      89.890  66.966  86.180  0.00  0.00    +0.000 A 
ATOM      6  C   UNL     1      90.826  66.059  85.733  0.00  0.00    +0.000 A 
ATOM      7  C   UNL     1      90.395  64.760  85.450  0.00  0.00    +0.000 A 
ATOM      8  O   UNL     1      90.170  68.264  86.518  0.00  0.00    +0.000 OA
ATOM      9  C   UNL     1      88.862  68.880  86.644  0.00  0.00    +0.000 C 
ATOM     10  C   UNL     1      87.828  67.774  86.927  0.00  0.00    +0.000 C 
ENDROOT
BRANCH   9  11
ATOM     11  S   UNL     1      88.804  70.142  87.964  0.00  0.00    +0.000 S 
BRANCH  11  12
ATOM     12  C   UNL     1      87.222  70.948  87.741  0.00  0.00    +0.000 A 
ATOM     13  C   UNL     1      86.371  71.362  88.771  0.00  0.00    +0.000 A 
ATOM     14  C   UNL     1      85.158  71.998  88.481  0.00  0.00    +0.000 A 
ATOM     15  C   UNL     1      84.783  72.230  87.161  0.00  0.00    +0.000 A 
ATOM     16  C   UNL     1      85.619  71.826  86.126  0.00  0.00    +0.000 A 
ATOM     17  C   UNL     1      86.830  71.191  86.416  0.00  0.00    +0.000 A 
ENDBRANCH  11  12
ENDBRANCH   9  11
TORSDOF 2
ENDMDL
