MODEL 1
REMARK VINA RESULT:      -5.6      0.000      0.000
REMARK  Name = *****
REMARK  5 active torsions:
REMARK  status: ('A' for Active; 'I' for Inactive)
REMARK    1  A    between atoms: C_1  and  C_2
REMARK    2  A    between atoms: C_3  and  C_12
REMARK    3  A    between atoms: C_5  and  C_11
REMARK    4  A    between atoms: C_12  and  C_13
REMARK    5  A    between atoms: C_12  and  O_19
REMARK                            x       y       z     vdW  Elec       q    Type
REMARK                         _______ _______ _______ _____ _____    ______ ____
ROOT
ATOM      1  C   UNL     1      87.507  70.831  84.051  0.00  0.00    +0.000 C 
ATOM      2  C   UNL     1      86.923  71.158  85.385  0.00  0.00    +0.000 C 
ATOM      3  C   UNL     1      87.428  70.944  86.625  0.00  0.00    +0.000 C 
ATOM      4  C   UNL     1      86.421  71.434  87.604  0.00  0.00    +0.000 A 
ATOM      5  C   UNL     1      86.374  71.482  89.002  0.00  0.00    +0.000 A 
ATOM      6  C   UNL     1      85.220  72.029  89.610  0.00  0.00    +0.000 A 
ATOM      7  C   UNL     1      84.144  72.511  88.857  0.00  0.00    +0.000 A 
ATOM      8  C   UNL     1      84.191  72.466  87.472  0.00  0.00    +0.000 A 
ATOM      9  C   UNL     1      85.324  71.932  86.872  0.00  0.00    +0.000 A 
ATOM     10  C   UNL     1      85.563  71.802  85.405  0.00  0.00    +0.000 C 
ATOM     11  C   UNL     1      87.467  70.997  89.904  0.00  0.00    +0.000 C 
ENDROOT
BRANCH   3  12
ATOM     12  C   UNL     1      88.768  70.369  87.009  0.00  0.00    +0.000 C 
BRANCH  12  13
ATOM     13  C   UNL     1      88.897  68.858  86.876  0.00  0.00    +0.000 A 
ATOM     14  C   UNL     1      90.008  68.249  86.270  0.00  0.00    +0.000 A 
ATOM     15  C   UNL     1      90.111  66.858  86.204  0.00  0.00    +0.000 A 
ATOM     16  C   UNL     1      89.115  66.055  86.752  0.00  0.00    +0.000 A 
ATOM     17  C   UNL     1      88.016  66.641  87.375  0.00  0.00    +0.000 A 
ATOM     18  C   UNL     1      87.912  68.032  87.444  0.00  0.00    +0.000 A 
ENDBRANCH  12  13
BRANCH  12  19
ATOM     19  O   UNL     1      89.818  70.988  86.256  0.00  0.00    +0.000 OA
ATOM     20  H   UNL     1      90.554  71.208  86.848  0.00  0.00    +0.000 HD
ENDBRANCH  12  19
ENDBRANCH   3  12
TORSDOF 3
ENDMDL
