MODEL 1
REMARK VINA RESULT:      -5.1      0.000      0.000
REMARK  Name = *****
REMARK  4 active torsions:
REMARK  status: ('A' for Active; 'I' for Inactive)
REMARK    1  A    between atoms: C_3  and  C_20
REMARK    2  A    between atoms: C_5  and  O_7
REMARK    3  A    between atoms: O_7  and  C_8
REMARK    4  A    between atoms: C_8  and  C_9
REMARK                            x       y       z     vdW  Elec       q    Type
REMARK                         _______ _______ _______ _____ _____    ______ ____
ROOT
ATOM      1  C   UNL     1      88.508  69.744  86.542  0.00  0.00    +0.000 A 
ATOM      2  N   UNL     1      87.576  70.369  85.772  0.00  0.00    +0.000 NA
ATOM      3  C   UNL     1      86.579  71.045  86.370  0.00  0.00    +0.000 A 
ATOM      4  C   UNL     1      86.463  71.131  87.773  0.00  0.00    +0.000 A 
ATOM      5  C   UNL     1      85.405  71.849  88.357  0.00  0.00    +0.000 A 
ATOM      6  C   UNL     1      84.462  72.481  87.550  0.00  0.00    +0.000 A 
ATOM      7  C   UNL     1      84.579  72.393  86.168  0.00  0.00    +0.000 A 
ATOM      8  C   UNL     1      85.628  71.682  85.588  0.00  0.00    +0.000 A 
ATOM      9 CL   UNL     1      83.417  73.172  85.165  0.00  0.00    +0.000 Cl
ATOM     10  C   UNL     1      87.429  70.485  88.550  0.00  0.00    +0.000 A 
ATOM     11  C   UNL     1      88.461  69.786  87.931  0.00  0.00    +0.000 A 
ENDROOT
BRANCH   1  12
ATOM     12  C   UNL     1      89.602  69.012  85.790  0.00  0.00    +0.000 C 
BRANCH  12  13
ATOM     13  O   UNL     1      90.291  68.073  86.622  0.00  0.00    +0.000 OA
BRANCH  13  18
ATOM     14  C   UNL     1      88.843  64.748  86.507  0.00  0.00    +0.000 A 
ATOM     15  C   UNL     1      89.756  64.034  85.734  0.00  0.00    +0.000 A 
ATOM     16  C   UNL     1      90.887  64.684  85.235  0.00  0.00    +0.000 A 
ATOM     17  C   UNL     1      91.114  66.040  85.504  0.00  0.00    +0.000 A 
ATOM     18  C   UNL     1      90.201  66.753  86.279  0.00  0.00    +0.000 A 
ATOM     19  C   UNL     1      89.068  66.100  86.776  0.00  0.00    +0.000 A 
BRANCH  16  20
ATOM     20  C   UNL     1      91.851  63.921  84.416  0.00  0.00    +0.000 C 
ATOM     21  O   UNL     1      92.053  64.185  83.237  0.00  0.00    +0.000 OA
ENDBRANCH  16  20
ENDBRANCH  13  18
ENDBRANCH  12  13
ENDBRANCH   1  12
TORSDOF 4
ENDMDL
