MODEL 1
REMARK VINA RESULT:      -4.8      0.000      0.000
REMARK  Name = *****
REMARK  2 active torsions:
REMARK  status: ('A' for Active; 'I' for Inactive)
REMARK    1  A    between atoms: C_2  and  S_10
REMARK    2  A    between atoms: S_10  and  C_11
REMARK                            x       y       z     vdW  Elec       q    Type
REMARK                         _______ _______ _______ _____ _____    ______ ____
ROOT
ATOM      1  C   UNL     1     102.709 127.602  83.340  0.00  0.00    +0.000 C 
ATOM      2  C   UNL     1     102.739 126.384  82.397  0.00  0.00    +0.000 C 
ATOM      3  O   UNL     1     101.384 125.880  82.260  0.00  0.00    +0.000 OA
ATOM      4  C   UNL     1     100.589 126.935  82.620  0.00  0.00    +0.000 A 
ATOM      5  C   UNL     1      99.224 126.980  82.429  0.00  0.00    +0.000 A 
ATOM      6  C   UNL     1      98.544 128.126  82.846  0.00  0.00    +0.000 A 
ATOM      7  C   UNL     1      99.240 129.188  83.448  0.00  0.00    +0.000 A 
ATOM      8  C   UNL     1     100.622 129.115  83.647  0.00  0.00    +0.000 A 
ATOM      9  C   UNL     1     101.281 127.977  83.216  0.00  0.00    +0.000 A 
ENDROOT
BRANCH   2  10
ATOM     10  S   UNL     1     103.472 126.831  80.766  0.00  0.00    +0.000 S 
BRANCH  10  11
ATOM     11  C   UNL     1     104.389 125.345  80.414  0.00  0.00    +0.000 A 
ATOM     12  C   UNL     1     105.417 125.329  79.465  0.00  0.00    +0.000 A 
ATOM     13  C   UNL     1     106.137 124.158  79.222  0.00  0.00    +0.000 A 
ATOM     14  C   UNL     1     105.844 122.998  79.935  0.00  0.00    +0.000 A 
ATOM     15  C   UNL     1     104.832 123.009  80.895  0.00  0.00    +0.000 A 
ATOM     16  C   UNL     1     104.111 124.181  81.137  0.00  0.00    +0.000 A 
ENDBRANCH  10  11
ENDBRANCH   2  10
TORSDOF 2
ENDMDL
