MODEL 1
REMARK VINA RESULT:      -5.2      0.000      0.000
REMARK  Name = *****
REMARK  1 active torsions:
REMARK  status: ('A' for Active; 'I' for Inactive)
REMARK    1  A    between atoms: C_10  and  C_11
REMARK                            x       y       z     vdW  Elec       q    Type
REMARK                         _______ _______ _______ _____ _____    ______ ____
ROOT
ATOM      1  C   UNL     1     103.580 128.281  82.106  0.00  0.00    +0.000 C 
ATOM      2  C   UNL     1     103.505 127.441  80.842  0.00  0.00    +0.000 C 
ATOM      3  C   UNL     1     103.848 126.018  81.162  0.00  0.00    +0.000 A 
ATOM      4  C   UNL     1     104.273 125.150  80.145  0.00  0.00    +0.000 A 
ATOM      5  C   UNL     1     104.588 123.823  80.436  0.00  0.00    +0.000 A 
ATOM      6  C   UNL     1     104.476 123.349  81.741  0.00  0.00    +0.000 A 
ATOM      7  C   UNL     1     104.039 124.203  82.753  0.00  0.00    +0.000 A 
ATOM      8  C   UNL     1     103.717 125.530  82.465  0.00  0.00    +0.000 A 
ATOM      9  O   UNL     1     103.276 126.278  83.523  0.00  0.00    +0.000 OA
ATOM     10  C   UNL     1     102.803 127.607  83.242  0.00  0.00    +0.000 C 
ENDROOT
BRANCH  10  11
ATOM     11  C   UNL     1     101.289 127.686  83.078  0.00  0.00    +0.000 A 
ATOM     12  C   UNL     1     100.534 126.640  82.526  0.00  0.00    +0.000 A 
ATOM     13  C   UNL     1      99.149 126.751  82.386  0.00  0.00    +0.000 A 
ATOM     14  C   UNL     1      98.495 127.909  82.799  0.00  0.00    +0.000 A 
ATOM     15  C   UNL     1      99.223 128.956  83.355  0.00  0.00    +0.000 A 
ATOM     16  C   UNL     1     100.609 128.845  83.496  0.00  0.00    +0.000 A 
ENDBRANCH  10  11
TORSDOF 1
ENDMDL
