MODEL 1
REMARK VINA RESULT:      -5.4      0.000      0.000
REMARK  Name = *****
REMARK  1 active torsions:
REMARK  status: ('A' for Active; 'I' for Inactive)
REMARK    1  A    between atoms: C_4  and  C_7
REMARK                            x       y       z     vdW  Elec       q    Type
REMARK                         _______ _______ _______ _____ _____    ______ ____
ROOT
ATOM      1  C   UNL     1     102.863 125.886  82.701  0.00  0.00    +0.000 C 
ATOM      2  C   UNL     1     103.571 127.239  82.561  0.00  0.00    +0.000 C 
ATOM      3  C   UNL     1     102.714 128.273  83.243  0.00  0.00    +0.000 C 
ATOM      4  O   UNL     1     103.179 129.247  83.831  0.00  0.00    +0.000 OA
ATOM      5  C   UNL     1     101.252 128.082  83.148  0.00  0.00    +0.000 A 
ATOM      6  C   UNL     1     100.375 129.071  83.603  0.00  0.00    +0.000 A 
ATOM      7  C   UNL     1      98.999 128.892  83.462  0.00  0.00    +0.000 A 
ATOM      8  C   UNL     1      98.504 127.733  82.864  0.00  0.00    +0.000 A 
ATOM      9  C   UNL     1      99.381 126.744  82.414  0.00  0.00    +0.000 A 
ATOM     10  C   UNL     1     100.757 126.911  82.570  0.00  0.00    +0.000 A 
ATOM     11  O   UNL     1     101.550 125.893  82.111  0.00  0.00    +0.000 OA
ATOM     12 CL   UNL     1     103.813 127.770  80.871  0.00  0.00    +0.000 Cl
ENDROOT
BRANCH   1  16
ATOM     13  C   UNL     1     105.234 122.602  81.165  0.00  0.00    +0.000 A 
ATOM     14  C   UNL     1     104.916 122.667  82.519  0.00  0.00    +0.000 A 
ATOM     15  C   UNL     1     104.146 123.726  83.007  0.00  0.00    +0.000 A 
ATOM     16  C   UNL     1     103.682 124.732  82.144  0.00  0.00    +0.000 A 
ATOM     17  C   UNL     1     104.013 124.652  80.782  0.00  0.00    +0.000 A 
ATOM     18  C   UNL     1     104.783 123.594  80.296  0.00  0.00    +0.000 A 
ENDBRANCH   1  16
TORSDOF 1
ENDMDL
