REMARK  Name = *****
REMARK  3 active torsions:
REMARK  status: ('A' for Active; 'I' for Inactive)
REMARK    1  A    between atoms: C_4  and  C_7
REMARK    2  A    between atoms: C_7  and  C_10
REMARK    3  A    between atoms: C_10  and  C_12
REMARK                            x       y       z     vdW  Elec       q    Type
REMARK                         _______ _______ _______ _____ _____    ______ ____
ROOT
ATOM      1  C   UNL     1      -2.897   0.458  -0.171  0.00  0.00    +0.000 C 
ATOM      2  C   UNL     1      -3.391   1.664  -0.131  0.00  0.00    +0.000 C 
ATOM      3  O   UNL     1      -3.820   2.759  -0.089  0.00  0.00    +0.000 OA
ENDROOT
BRANCH   1   7
ATOM      4  C   UNL     1       1.334  -0.246   0.178  0.00  0.00    +0.000 A 
ATOM      5  C   UNL     1       0.425  -1.238   0.533  0.00  0.00    +0.000 A 
ATOM      6  C   UNL     1      -0.949  -1.004   0.417  0.00  0.00    +0.000 A 
ATOM      7  C   UNL     1      -1.436   0.225  -0.059  0.00  0.00    +0.000 A 
ATOM      8  C   UNL     1      -0.501   1.216  -0.407  0.00  0.00    +0.000 A 
ATOM      9  C   UNL     1       0.872   0.980  -0.290  0.00  0.00    +0.000 A 
ENDBRANCH   1   7
BRANCH   1  10
ATOM     10  C   UNL     1      -3.846  -0.662  -0.478  0.00  0.00    +0.000 C 
ATOM     11  N   UNL     1      -3.579  -1.588  -1.349  0.00  0.00    +0.000 NA
ATOM     12  H   UNL     1      -2.724  -1.574  -1.836  0.00  0.00    +0.000 HD
BRANCH  10  13
ATOM     13  C   UNL     1      -5.152  -0.707   0.248  0.00  0.00    +0.000 A 
ATOM     14  C   UNL     1      -6.264  -1.248  -0.409  0.00  0.00    +0.000 A 
ATOM     15  C   UNL     1      -7.499  -1.317   0.237  0.00  0.00    +0.000 A 
ATOM     16  C   UNL     1      -7.626  -0.856   1.546  0.00  0.00    +0.000 A 
ATOM     17  C   UNL     1      -6.518  -0.335   2.214  0.00  0.00    +0.000 A 
ATOM     18  C   UNL     1      -5.280  -0.265   1.571  0.00  0.00    +0.000 A 
ENDBRANCH  10  13
ENDBRANCH   1  10
TORSDOF 3
