MODEL 1
REMARK VINA RESULT:      -5.2      0.000      0.000
REMARK  Name = *****
REMARK  5 active torsions:
REMARK  status: ('A' for Active; 'I' for Inactive)
REMARK    1  A    between atoms: C_1  and  C_2
REMARK    2  A    between atoms: C_5  and  C_8
REMARK    3  A    between atoms: C_8  and  C_19
REMARK    4  A    between atoms: C_11  and  C_12
REMARK    5  A    between atoms: C_11  and  O_18
REMARK                            x       y       z     vdW  Elec       q    Type
REMARK                         _______ _______ _______ _____ _____    ______ ____
ROOT
ATOM      1  C   UNL     1      88.593  68.537  86.091  0.00  0.00    +0.000 C 
ATOM      2  C   UNL     1      89.898  68.877  85.301  0.00  0.00    +0.000 C 
ATOM      3  C   UNL     1      89.521  70.369  85.375  0.00  0.00    +0.000 C 
ATOM      4  C   UNL     1      88.693  70.054  86.681  0.00  0.00    +0.000 C 
ATOM      5  C   UNL     1      87.399  68.370  85.108  0.00  0.00    +0.000 C 
ENDROOT
BRANCH   1  10
ATOM      6  C   UNL     1      88.000  63.419  89.026  0.00  0.00    +0.000 C 
ATOM      7  C   UNL     1      88.159  64.679  88.227  0.00  0.00    +0.000 C 
ATOM      8  C   UNL     1      89.011  64.769  87.192  0.00  0.00    +0.000 C 
ATOM      9  C   UNL     1      89.233  66.023  86.394  0.00  0.00    +0.000 C 
ATOM     10  C   UNL     1      88.648  67.295  87.036  0.00  0.00    +0.000 C 
ATOM     11  C   UNL     1      87.253  66.970  87.611  0.00  0.00    +0.000 C 
ATOM     12  C   UNL     1      87.310  65.846  88.652  0.00  0.00    +0.000 C 
ENDBRANCH   1  10
BRANCH   4  13
ATOM     13  C   UNL     1      87.295  70.828  86.888  0.00  0.00    +0.000 A 
ATOM     14  C   UNL     1      86.716  70.947  88.170  0.00  0.00    +0.000 A 
ATOM     15  C   UNL     1      85.507  71.615  88.384  0.00  0.00    +0.000 A 
ATOM     16  C   UNL     1      84.840  72.199  87.315  0.00  0.00    +0.000 A 
ATOM     17  C   UNL     1      85.387  72.122  86.039  0.00  0.00    +0.000 A 
ATOM     18  C   UNL     1      86.597  71.453  85.834  0.00  0.00    +0.000 A 
ENDBRANCH   4  13
BRANCH   4  19
ATOM     19  O   UNL     1      89.497  70.232  87.878  0.00  0.00    +0.000 OA
ATOM     20  H   UNL     1      89.993  71.063  87.814  0.00  0.00    +0.000 HD
ENDBRANCH   4  19
TORSDOF 3
ENDMDL
