MODEL 1
REMARK VINA RESULT:      -4.6      0.000      0.000
REMARK  Name = *****
REMARK  3 active torsions:
REMARK  status: ('A' for Active; 'I' for Inactive)
REMARK    1  A    between atoms: C_1  and  C_2
REMARK    2  A    between atoms: N_9  and  N_12
REMARK    3  A    between atoms: C_13  and  C_14
REMARK                            x       y       z     vdW  Elec       q    Type
REMARK                         _______ _______ _______ _____ _____    ______ ____
ROOT
ATOM      1  C   UNL     1      88.413  71.716  91.988  0.00  0.00    +0.000 C 
ATOM      2  C   UNL     1      87.743  71.536  90.657  0.00  0.00    +0.000 A 
ATOM      3  C   UNL     1      88.456  70.984  89.582  0.00  0.00    +0.000 A 
ATOM      4  C   UNL     1      87.816  70.861  88.355  0.00  0.00    +0.000 A 
ATOM      5  C   UNL     1      86.500  71.268  88.170  0.00  0.00    +0.000 A 
ATOM      6  C   UNL     1      85.786  71.826  89.218  0.00  0.00    +0.000 A 
ATOM      7  C   UNL     1      86.415  71.965  90.461  0.00  0.00    +0.000 A 
ATOM      8  S   UNL     1      85.946  70.982  86.519  0.00  0.00    +0.000 S 
ATOM      9  N   UNL     1      87.518  70.439  86.056  0.00  0.00    +0.000 N 
ATOM     10  C   UNL     1      88.410  70.298  87.129  0.00  0.00    +0.000 A 
ATOM     11  O   UNL     1      89.535  69.817  87.126  0.00  0.00    +0.000 OA
ENDROOT
BRANCH   9  12
ATOM     12  N   UNL     1      87.643  69.600  84.988  0.00  0.00    +0.000 NA
ATOM     13  C   UNL     1      87.888  70.115  83.819  0.00  0.00    +0.000 C 
BRANCH  13  14
ATOM     14  C   UNL     1      88.239  71.510  83.486  0.00  0.00    +0.000 A 
ATOM     15  C   UNL     1      87.235  72.382  83.045  0.00  0.00    +0.000 A 
ATOM     16  C   UNL     1      87.543  73.711  82.753  0.00  0.00    +0.000 A 
ATOM     17  C   UNL     1      88.849  74.175  82.913  0.00  0.00    +0.000 A 
ATOM     18  C   UNL     1      89.846  73.313  83.371  0.00  0.00    +0.000 A 
ATOM     19  C   UNL     1      89.544  71.979  83.666  0.00  0.00    +0.000 A 
ATOM     20 CL   UNL     1      90.826  70.962  84.216  0.00  0.00    +0.000 Cl
ENDBRANCH  13  14
ENDBRANCH   9  12
TORSDOF 2
ENDMDL
