MODEL 1
REMARK VINA RESULT:      -5.3      0.000      0.000
REMARK  Name = *****
REMARK  3 active torsions:
REMARK  status: ('A' for Active; 'I' for Inactive)
REMARK    1  A    between atoms: C_7  and  C_11
REMARK    2  A    between atoms: C_11  and  C_12
REMARK    3  A    between atoms: C_11  and  O_20
REMARK                            x       y       z     vdW  Elec       q    Type
REMARK                         _______ _______ _______ _____ _____    ______ ____
ROOT
ATOM      1  C   UNL     1      88.514  64.015  88.984  0.00  0.00    +0.000 C 
ENDROOT
BRANCH   1   8
ATOM      2  C   UNL     1      87.876  68.287  87.492  0.00  0.00    +0.000 A 
ATOM      3  C   UNL     1      88.945  68.587  86.630  0.00  0.00    +0.000 A 
ATOM      4  C   UNL     1      89.742  67.566  86.114  0.00  0.00    +0.000 A 
ATOM      5  C   UNL     1      89.437  66.268  86.484  0.00  0.00    +0.000 A 
ATOM      6  C   UNL     1      88.396  65.960  87.336  0.00  0.00    +0.000 A 
ATOM      7  C   UNL     1      87.592  66.965  87.849  0.00  0.00    +0.000 A 
ATOM      8  C   UNL     1      88.330  64.488  87.520  0.00  0.00    +0.000 C 
ATOM      9  O   UNL     1      89.448  64.016  86.717  0.00  0.00    +0.000 OA
ATOM     10  C   UNL     1      90.109  65.038  86.093  0.00  0.00    +0.000 C 
ATOM     11  O   UNL     1      91.085  64.932  85.379  0.00  0.00    +0.000 OA
ENDBRANCH   1   8
BRANCH   1  12
ATOM     12  C   UNL     1      87.326  63.194  89.471  0.00  0.00    +0.000 A 
ATOM     13  C   UNL     1      86.745  63.413  90.741  0.00  0.00    +0.000 A 
ATOM     14  C   UNL     1      85.638  62.650  91.155  0.00  0.00    +0.000 A 
ATOM     15  C   UNL     1      85.101  61.674  90.312  0.00  0.00    +0.000 A 
ATOM     16  C   UNL     1      85.659  61.456  89.057  0.00  0.00    +0.000 A 
ATOM     17  C   UNL     1      86.757  62.208  88.640  0.00  0.00    +0.000 A 
ATOM     18 CL   UNL     1      84.880  62.866  92.695  0.00  0.00    +0.000 Cl
ATOM     19 CL   UNL     1      87.391  64.642  91.790  0.00  0.00    +0.000 Cl
ENDBRANCH   1  12
BRANCH   1  20
ATOM     20  O   UNL     1      89.732  63.268  89.142  0.00  0.00    +0.000 OA
ATOM     21  H   UNL     1      89.523  62.326  89.237  0.00  0.00    +0.000 HD
ENDBRANCH   1  20
TORSDOF 3
ENDMDL
