MODEL 1
REMARK VINA RESULT:      -5.0      0.000      0.000
REMARK  Name = *****
REMARK  2 active torsions:
REMARK  status: ('A' for Active; 'I' for Inactive)
REMARK    1  A    between atoms: C_1  and  C_2
REMARK    2  A    between atoms: C_2  and  C_11
REMARK                            x       y       z     vdW  Elec       q    Type
REMARK                         _______ _______ _______ _____ _____    ______ ____
ROOT
ATOM      1  C   UNL     1     103.717 127.863  83.221  0.00  0.00    +0.000 C 
ATOM      2  C   UNL     1     102.695 126.878  82.622  0.00  0.00    +0.000 C 
ATOM      3  C   UNL     1     102.975 126.611  81.118  0.00  0.00    +0.000 C 
ATOM      4  C   UNL     1     103.701 125.324  81.205  0.00  0.00    +0.000 A 
ATOM      5  C   UNL     1     104.371 124.620  80.219  0.00  0.00    +0.000 A 
ATOM      6  C   UNL     1     104.928 123.383  80.554  0.00  0.00    +0.000 A 
ATOM      7  C   UNL     1     104.798 122.868  81.855  0.00  0.00    +0.000 A 
ATOM      8  C   UNL     1     104.110 123.587  82.835  0.00  0.00    +0.000 A 
ATOM      9  C   UNL     1     103.577 124.810  82.483  0.00  0.00    +0.000 A 
ATOM     10  O   UNL     1     102.878 125.617  83.342  0.00  0.00    +0.000 OA
ENDROOT
BRANCH   2  11
ATOM     11  C   UNL     1     101.276 127.417  82.829  0.00  0.00    +0.000 A 
ATOM     12  C   UNL     1     101.070 128.664  83.450  0.00  0.00    +0.000 A 
ATOM     13  C   UNL     1      99.781 129.170  83.639  0.00  0.00    +0.000 A 
ATOM     14  C   UNL     1      98.677 128.439  83.210  0.00  0.00    +0.000 A 
ATOM     15  C   UNL     1      98.859 127.205  82.593  0.00  0.00    +0.000 A 
ATOM     16  C   UNL     1     100.147 126.698  82.405  0.00  0.00    +0.000 A 
ENDBRANCH   2  11
TORSDOF 1
ENDMDL
