MODEL 1
REMARK VINA RESULT:      -4.5      0.000      0.000
REMARK  Name = *****
REMARK  2 active torsions:
REMARK  status: ('A' for Active; 'I' for Inactive)
REMARK    1  A    between atoms: C_2  and  C_12
REMARK    2  A    between atoms: C_8  and  O_11
REMARK                            x       y       z     vdW  Elec       q    Type
REMARK                         _______ _______ _______ _____ _____    ______ ____
ROOT
ATOM      1  C   UNL     1      86.619  70.145  89.788  0.00  0.00    +0.000 C 
ATOM      2  C   UNL     1      87.129  71.137  88.737  0.00  0.00    +0.000 C 
ATOM      3  O   UNL     1      88.419  70.726  88.239  0.00  0.00    +0.000 OA
ATOM      4  C   UNL     1      88.500  69.468  87.699  0.00  0.00    +0.000 A 
ATOM      5  C   UNL     1      87.612  68.411  87.944  0.00  0.00    +0.000 A 
ATOM      6  S   UNL     1      86.228  68.528  89.062  0.00  0.00    +0.000 S 
ATOM      7  C   UNL     1      87.820  67.179  87.304  0.00  0.00    +0.000 A 
ATOM      8  C   UNL     1      88.909  67.010  86.454  0.00  0.00    +0.000 A 
ATOM      9  C   UNL     1      89.803  68.047  86.229  0.00  0.00    +0.000 A 
ATOM     10  C   UNL     1      89.599  69.275  86.855  0.00  0.00    +0.000 A 
ENDROOT
BRANCH   2  11
ATOM     11  C   UNL     1      86.189  71.592  87.620  0.00  0.00    +0.000 A 
ATOM     12  C   UNL     1      86.515  71.458  86.260  0.00  0.00    +0.000 A 
ATOM     13  C   UNL     1      85.615  71.848  85.264  0.00  0.00    +0.000 A 
ATOM     14  C   UNL     1      84.368  72.361  85.606  0.00  0.00    +0.000 A 
ATOM     15  C   UNL     1      84.015  72.481  86.946  0.00  0.00    +0.000 A 
ATOM     16  C   UNL     1      84.914  72.093  87.942  0.00  0.00    +0.000 A 
ENDBRANCH   2  11
BRANCH   8  17
ATOM     17  O   UNL     1      89.139  65.826  85.820  0.00  0.00    +0.000 OA
ATOM     18  H   UNL     1      89.736  65.206  86.188  0.00  0.00    +0.000 HD
ENDBRANCH   8  17
TORSDOF 2
ENDMDL
