REMARK  Name = *****
REMARK  4 active torsions:
REMARK  status: ('A' for Active; 'I' for Inactive)
REMARK    1  A    between atoms: C_1  and  C_2
REMARK    2  A    between atoms: C_3  and  O_12
REMARK    3  A    between atoms: O_12  and  C_13
REMARK    4  A    between atoms: C_13  and  C_14
REMARK                            x       y       z     vdW  Elec       q    Type
REMARK                         _______ _______ _______ _____ _____    ______ ____
ROOT
ATOM      1  C   UNL     1       1.713  -2.231  -0.330  0.00  0.00    +0.000 C 
ATOM      2  C   UNL     1       1.276  -0.791  -0.186  0.00  0.00    +0.000 A 
ATOM      3  C   UNL     1       2.234   0.245  -0.226  0.00  0.00    +0.000 A 
ATOM      4  C   UNL     1       1.832   1.569  -0.052  0.00  0.00    +0.000 A 
ATOM      5  C   UNL     1       0.482   1.882   0.108  0.00  0.00    +0.000 A 
ATOM      6  C   UNL     1      -0.494   0.880   0.103  0.00  0.00    +0.000 A 
ATOM      7  C   UNL     1      -1.850   1.221   0.239  0.00  0.00    +0.000 A 
ATOM      8  C   UNL     1      -2.841   0.241   0.233  0.00  0.00    +0.000 A 
ATOM      9  C   UNL     1      -2.485  -1.093   0.092  0.00  0.00    +0.000 A 
ATOM     10  C   UNL     1      -1.140  -1.445  -0.042  0.00  0.00    +0.000 A 
ATOM     11  C   UNL     1      -0.109  -0.475  -0.042  0.00  0.00    +0.000 A 
ENDROOT
BRANCH   3  12
ATOM     12  O   UNL     1       3.539  -0.131  -0.420  0.00  0.00    +0.000 OA
BRANCH  12  13
ATOM     13  C   UNL     1       4.443   0.874  -0.885  0.00  0.00    +0.000 C 
BRANCH  13  14
ATOM     14  C   UNL     1       5.714   0.268  -1.445  0.00  0.00    +0.000 A 
ATOM     15  C   UNL     1       6.039  -1.086  -1.289  0.00  0.00    +0.000 A 
ATOM     16  C   UNL     1       7.222  -1.600  -1.823  0.00  0.00    +0.000 A 
ATOM     17  C   UNL     1       8.100  -0.766  -2.512  0.00  0.00    +0.000 A 
ATOM     18  C   UNL     1       7.797   0.585  -2.665  0.00  0.00    +0.000 A 
ATOM     19  C   UNL     1       6.614   1.099  -2.133  0.00  0.00    +0.000 A 
ENDBRANCH  13  14
ENDBRANCH  12  13
ENDBRANCH   3  12
TORSDOF 3
