MODEL 1
REMARK VINA RESULT:      -4.5      0.000      0.000
REMARK  Name = *****
REMARK  5 active torsions:
REMARK  status: ('A' for Active; 'I' for Inactive)
REMARK    1  A    between atoms: C_1  and  N_2
REMARK    2  A    between atoms: N_2  and  C_3
REMARK    3  A    between atoms: N_2  and  S_11
REMARK    4  A    between atoms: C_3  and  C_4
REMARK    5  A    between atoms: S_11  and  C_14
REMARK                            x       y       z     vdW  Elec       q    Type
REMARK                         _______ _______ _______ _____ _____    ______ ____
ROOT
ATOM      1  C   UNL     1      90.985  65.766  85.477  0.00  0.00    +0.000 C 
ATOM      2  N   UNL     1      89.576  65.778  85.943  0.00  0.00    +0.000 NA
ENDROOT
BRANCH   2   3
ATOM      3  S   UNL     1      88.721  64.324  85.651  0.00  0.00    +0.000 S 
ATOM      4  O   UNL     1      87.556  64.635  84.851  0.00  0.00    +0.000 OA
ATOM      5  O   UNL     1      89.691  63.342  85.212  0.00  0.00    +0.000 OA
BRANCH   3   6
ATOM      6  C   UNL     1      88.139  63.870  87.264  0.00  0.00    +0.000 A 
ATOM      7  C   UNL     1      88.573  64.605  88.371  0.00  0.00    +0.000 A 
ATOM      8  C   UNL     1      88.121  64.259  89.644  0.00  0.00    +0.000 A 
ATOM      9  C   UNL     1      87.238  63.188  89.803  0.00  0.00    +0.000 A 
ATOM     10  C   UNL     1      86.802  62.462  88.692  0.00  0.00    +0.000 A 
ATOM     11  C   UNL     1      87.249  62.803  87.416  0.00  0.00    +0.000 A 
ENDBRANCH   3   6
ENDBRANCH   2   3
BRANCH   2  12
ATOM     12  C   UNL     1      88.834  66.967  85.433  0.00  0.00    +0.000 C 
BRANCH  12  13
ATOM     13  C   UNL     1      88.681  68.058  86.473  0.00  0.00    +0.000 A 
ATOM     14  C   UNL     1      89.570  69.143  86.511  0.00  0.00    +0.000 A 
ATOM     15  C   UNL     1      89.417  70.148  87.469  0.00  0.00    +0.000 A 
ATOM     16  C   UNL     1      88.374  70.077  88.390  0.00  0.00    +0.000 A 
ATOM     17  C   UNL     1      87.479  69.009  88.361  0.00  0.00    +0.000 A 
ATOM     18  C   UNL     1      87.631  68.004  87.404  0.00  0.00    +0.000 A 
ATOM     19 CL   UNL     1      88.189  71.314  89.571  0.00  0.00    +0.000 Cl
ENDBRANCH  12  13
ENDBRANCH   2  12
TORSDOF 4
ENDMDL
