MODEL 1
REMARK VINA RESULT:      -4.7      0.000      0.000
REMARK  Name = *****
REMARK  3 active torsions:
REMARK  status: ('A' for Active; 'I' for Inactive)
REMARK    1  A    between atoms: C_1  and  O_2
REMARK    2  A    between atoms: O_2  and  C_3
REMARK    3  A    between atoms: C_11  and  C_12
REMARK                            x       y       z     vdW  Elec       q    Type
REMARK                         _______ _______ _______ _____ _____    ______ ____
ROOT
ATOM      1  C   UNL     1     104.094 127.558  80.902  0.00  0.00    +0.000 C 
ATOM      2  C   UNL     1     104.068 128.285  82.265  0.00  0.00    +0.000 C 
ATOM      3  C   UNL     1     102.659 128.041  82.706  0.00  0.00    +0.000 A 
ATOM      4  C   UNL     1     101.945 128.708  83.687  0.00  0.00    +0.000 A 
ATOM      5  C   UNL     1     100.643 128.286  83.960  0.00  0.00    +0.000 A 
ATOM      6  C   UNL     1     100.078 127.206  83.264  0.00  0.00    +0.000 A 
ATOM      7  C   UNL     1     100.809 126.528  82.286  0.00  0.00    +0.000 A 
ATOM      8  C   UNL     1     102.099 126.957  82.015  0.00  0.00    +0.000 A 
ATOM      9  C   UNL     1     103.089 126.366  81.035  0.00  0.00    +0.000 C 
ENDROOT
BRANCH   9  10
ATOM     10  C   UNL     1     103.698 125.040  81.462  0.00  0.00    +0.000 A 
ATOM     11  C   UNL     1     104.255 124.202  80.480  0.00  0.00    +0.000 A 
ATOM     12  C   UNL     1     104.831 122.977  80.821  0.00  0.00    +0.000 A 
ATOM     13  C   UNL     1     104.865 122.570  82.151  0.00  0.00    +0.000 A 
ATOM     14  C   UNL     1     104.328 123.390  83.140  0.00  0.00    +0.000 A 
ATOM     15  C   UNL     1     103.752 124.617  82.800  0.00  0.00    +0.000 A 
ENDBRANCH   9  10
BRANCH   1  17
ATOM     16  C   UNL     1     106.421 127.550  81.393  0.00  0.00    +0.000 C 
ATOM     17  O   UNL     1     105.398 127.143  80.497  0.00  0.00    +0.000 OA
ENDBRANCH   1  17
TORSDOF 2
ENDMDL
