MODEL 1
REMARK VINA RESULT:      -4.9      0.000      0.000
REMARK  Name = *****
REMARK  5 active torsions:
REMARK  status: ('A' for Active; 'I' for Inactive)
REMARK    1  A    between atoms: C_1  and  C_2
REMARK    2  A    between atoms: C_2  and  O_3
REMARK    3  A    between atoms: O_3  and  C_4
REMARK    4  A    between atoms: C_4  and  C_15
REMARK    5  A    between atoms: C_5  and  C_14
REMARK                            x       y       z     vdW  Elec       q    Type
REMARK                         _______ _______ _______ _____ _____    ______ ____
ROOT
ATOM      1  C   UNL     1      86.997  70.946  88.775  0.00  0.00    +0.000 C 
ATOM      2  C   UNL     1      86.600  69.643  89.537  0.00  0.00    +0.000 C 
ATOM      3  O   UNL     1      86.583  68.479  88.696  0.00  0.00    +0.000 OA
ATOM      4  C   UNL     1      87.682  68.435  87.881  0.00  0.00    +0.000 A 
ATOM      5  C   UNL     1      87.947  67.214  87.263  0.00  0.00    +0.000 A 
ATOM      6  C   UNL     1      89.054  67.082  86.424  0.00  0.00    +0.000 A 
ATOM      7  C   UNL     1      89.894  68.175  86.201  0.00  0.00    +0.000 A 
ATOM      8  C   UNL     1      89.621  69.400  86.810  0.00  0.00    +0.000 A 
ATOM      9  C   UNL     1      88.508  69.536  87.640  0.00  0.00    +0.000 A 
ATOM     10  O   UNL     1      88.300  70.779  88.173  0.00  0.00    +0.000 OA
ATOM     11  C   UNL     1      85.270  69.727  90.286  0.00  0.00    +0.000 C 
ENDROOT
BRANCH   1  12
ATOM     12  C   UNL     1      86.070  71.457  87.655  0.00  0.00    +0.000 A 
ATOM     13  C   UNL     1      84.845  72.064  88.007  0.00  0.00    +0.000 A 
ATOM     14  C   UNL     1      83.974  72.573  87.041  0.00  0.00    +0.000 A 
ATOM     15  C   UNL     1      84.312  72.497  85.694  0.00  0.00    +0.000 A 
ATOM     16  C   UNL     1      85.520  71.921  85.319  0.00  0.00    +0.000 A 
ATOM     17  C   UNL     1      86.393  71.411  86.288  0.00  0.00    +0.000 A 
ENDBRANCH   1  12
BRANCH   1  18
ATOM     18  O   UNL     1      87.020  72.030  89.744  0.00  0.00    +0.000 OA
BRANCH  18  20
ATOM     19  C   UNL     1      88.067  73.303  91.460  0.00  0.00    +0.000 C 
ATOM     20  C   UNL     1      88.231  72.153  90.484  0.00  0.00    +0.000 C 
ENDBRANCH  18  20
ENDBRANCH   1  18
TORSDOF 3
ENDMDL
