REMARK  Name = *****
REMARK  4 active torsions:
REMARK  status: ('A' for Active; 'I' for Inactive)
REMARK    1  A    between atoms: C_1  and  C_2
REMARK    2  A    between atoms: C_2  and  C_3
REMARK    3  A    between atoms: C_2  and  C_9
REMARK    4  A    between atoms: C_2  and  O_19
REMARK                            x       y       z     vdW  Elec       q    Type
REMARK                         _______ _______ _______ _____ _____    ______ ____
ROOT
ATOM      1  C   UNL     1       0.869   0.034   0.585  0.00  0.00    +0.000 C 
ATOM      2  C   UNL     1       2.340   0.042   0.155  0.00  0.00    +0.000 C 
ENDROOT
BRANCH   2   3
ATOM      3  C   UNL     1       2.993   1.355   0.624  0.00  0.00    +0.000 A 
ATOM      4  C   UNL     1       4.044   1.362   1.561  0.00  0.00    +0.000 A 
ATOM      5  C   UNL     1       4.650   2.557   1.993  0.00  0.00    +0.000 A 
ATOM      6  C   UNL     1       5.697   2.552   2.929  0.00  0.00    +0.000 A 
ATOM      7  C   UNL     1       6.289   3.745   3.347  0.00  0.00    +0.000 A 
ATOM      8  C   UNL     1       5.841   4.959   2.836  0.00  0.00    +0.000 A 
ATOM      9  C   UNL     1       4.801   4.981   1.905  0.00  0.00    +0.000 A 
ATOM     10  C   UNL     1       4.196   3.788   1.476  0.00  0.00    +0.000 A 
ATOM     11  C   UNL     1       3.152   3.791   0.543  0.00  0.00    +0.000 A 
ATOM     12  C   UNL     1       2.561   2.594   0.126  0.00  0.00    +0.000 A 
ENDBRANCH   2   3
BRANCH   2  13
ATOM     13  C   UNL     1       2.606  -0.194  -1.391  0.00  0.00    +0.000 C 
ATOM     14  O   UNL     1       2.008   0.730  -2.304  0.00  0.00    +0.000 OA
ATOM     15  C   UNL     1       0.669   0.507  -2.707  0.00  0.00    +0.000 C 
ATOM     16  C   UNL     1       0.502  -0.802  -3.451  0.00  0.00    +0.000 C 
ATOM     17  C   UNL     1       0.768  -1.981  -2.539  0.00  0.00    +0.000 C 
ATOM     18  S   UNL     1       2.459  -1.959  -1.905  0.00  0.00    +0.000 S 
ENDBRANCH   2  13
BRANCH   2  19
ATOM     19  O   UNL     1       2.945  -1.047   0.897  0.00  0.00    +0.000 OA
ATOM     20  H   UNL     1       2.548  -1.887   0.618  0.00  0.00    +0.000 HD
ENDBRANCH   2  19
TORSDOF 3
