MODEL 1
REMARK VINA RESULT:      -5.2      0.000      0.000
REMARK  Name = *****
REMARK  5 active torsions:
REMARK  status: ('A' for Active; 'I' for Inactive)
REMARK    1  A    between atoms: C_1  and  C_2
REMARK    2  A    between atoms: C_4  and  C_12
REMARK    3  A    between atoms: C_12  and  C_13
REMARK    4  A    between atoms: C_12  and  O_14
REMARK    5  A    between atoms: O_14  and  C_15
REMARK                            x       y       z     vdW  Elec       q    Type
REMARK                         _______ _______ _______ _____ _____    ______ ____
ROOT
ATOM      1  C   UNL     1      86.897  65.485  87.802  0.00  0.00    +0.000 C 
ATOM      2  C   UNL     1      88.042  66.311  87.284  0.00  0.00    +0.000 A 
ATOM      3  C   UNL     1      88.023  67.696  87.486  0.00  0.00    +0.000 A 
ATOM      4  C   UNL     1      89.074  68.473  87.010  0.00  0.00    +0.000 A 
ATOM      5  N   UNL     1      90.122  67.934  86.340  0.00  0.00    +0.000 NA
ATOM      6  C   UNL     1      90.159  66.604  86.154  0.00  0.00    +0.000 A 
ATOM      7  C   UNL     1      91.252  66.068  85.488  0.00  0.00    +0.000 A 
ATOM      8  C   UNL     1      91.375  64.697  85.250  0.00  0.00    +0.000 A 
ATOM      9  C   UNL     1      90.380  63.834  85.687  0.00  0.00    +0.000 A 
ATOM     10  C   UNL     1      89.271  64.347  86.358  0.00  0.00    +0.000 A 
ATOM     11  C   UNL     1      89.141  65.735  86.604  0.00  0.00    +0.000 A 
ENDROOT
BRANCH   4  12
ATOM     12  C   UNL     1      89.081  69.986  87.190  0.00  0.00    +0.000 C 
ATOM     13  C   UNL     1      89.693  70.656  85.960  0.00  0.00    +0.000 C 
BRANCH  12  14
ATOM     14  O   UNL     1      87.729  70.444  87.355  0.00  0.00    +0.000 OA
BRANCH  14  15
ATOM     15  C   UNL     1      87.419  71.068  88.532  0.00  0.00    +0.000 A 
ATOM     16  C   UNL     1      86.156  71.543  88.884  0.00  0.00    +0.000 A 
ATOM     17  C   UNL     1      85.957  72.145  90.131  0.00  0.00    +0.000 A 
ATOM     18  C   UNL     1      87.016  72.263  91.031  0.00  0.00    +0.000 A 
ATOM     19  C   UNL     1      88.273  71.771  90.689  0.00  0.00    +0.000 A 
ATOM     20  C   UNL     1      88.470  71.169  89.446  0.00  0.00    +0.000 A 
ENDBRANCH  14  15
ENDBRANCH  12  14
ENDBRANCH   4  12
TORSDOF 3
ENDMDL
