MODEL 1
REMARK VINA RESULT:      -4.6      0.000      0.000
REMARK  Name = *****
REMARK  5 active torsions:
REMARK  status: ('A' for Active; 'I' for Inactive)
REMARK    1  A    between atoms: C_1  and  C_2
REMARK    2  A    between atoms: C_7  and  S_8
REMARK    3  A    between atoms: S_8  and  C_11
REMARK    4  A    between atoms: C_11  and  C_12
REMARK    5  A    between atoms: C_12  and  C_13
REMARK                            x       y       z     vdW  Elec       q    Type
REMARK                         _______ _______ _______ _____ _____    ______ ____
ROOT
ATOM      1  S   UNL     1      89.426  67.614  86.166  0.00  0.00    +0.000 S 
ATOM      2  O   UNL     1      90.760  67.133  86.477  0.00  0.00    +0.000 OA
ATOM      3  O   UNL     1      88.887  67.536  84.823  0.00  0.00    +0.000 OA
ENDROOT
BRANCH   1  10
ATOM      4  C   UNL     1      89.284  64.474  86.366  0.00  0.00    +0.000 C 
ATOM      5  C   UNL     1      88.333  65.279  87.210  0.00  0.00    +0.000 A 
ATOM      6  C   UNL     1      87.459  64.590  88.068  0.00  0.00    +0.000 A 
ATOM      7  C   UNL     1      86.546  65.279  88.867  0.00  0.00    +0.000 A 
ATOM      8  C   UNL     1      86.490  66.668  88.823  0.00  0.00    +0.000 A 
ATOM      9  C   UNL     1      87.358  67.375  87.990  0.00  0.00    +0.000 A 
ATOM     10  C   UNL     1      88.290  66.688  87.197  0.00  0.00    +0.000 A 
ENDBRANCH   1  10
BRANCH   1  11
ATOM     11  C   UNL     1      89.363  69.302  86.710  0.00  0.00    +0.000 C 
BRANCH  11  12
ATOM     12  C   UNL     1      88.552  70.154  85.742  0.00  0.00    +0.000 C 
ATOM     13 CL   UNL     1      89.637  71.414  85.039  0.00  0.00    +0.000 Cl
BRANCH  12  14
ATOM     14  C   UNL     1      87.346  70.835  86.354  0.00  0.00    +0.000 A 
ATOM     15  C   UNL     1      87.157  70.910  87.744  0.00  0.00    +0.000 A 
ATOM     16  C   UNL     1      86.026  71.532  88.278  0.00  0.00    +0.000 A 
ATOM     17  C   UNL     1      85.068  72.083  87.433  0.00  0.00    +0.000 A 
ATOM     18  C   UNL     1      85.237  72.016  86.052  0.00  0.00    +0.000 A 
ATOM     19  C   UNL     1      86.368  71.396  85.515  0.00  0.00    +0.000 A 
ENDBRANCH  12  14
ENDBRANCH  11  12
ENDBRANCH   1  11
TORSDOF 4
ENDMDL
