MODEL 1
REMARK VINA RESULT:      -4.8      0.000      0.000
REMARK  Name = *****
REMARK  2 active torsions:
REMARK  status: ('A' for Active; 'I' for Inactive)
REMARK    1  A    between atoms: C_1  and  C_2
REMARK    2  A    between atoms: C_11  and  C_13
REMARK                            x       y       z     vdW  Elec       q    Type
REMARK                         _______ _______ _______ _____ _____    ______ ____
ROOT
ATOM      1  C   UNL     1      87.004  64.431  92.529  0.00  0.00    +0.000 C 
ATOM      2  C   UNL     1      87.396  64.458  91.082  0.00  0.00    +0.000 A 
ATOM      3  C   UNL     1      86.637  65.190  90.157  0.00  0.00    +0.000 A 
ATOM      4  C   UNL     1      87.025  65.253  88.818  0.00  0.00    +0.000 A 
ATOM      5  C   UNL     1      88.161  64.567  88.394  0.00  0.00    +0.000 A 
ATOM      6  C   UNL     1      88.937  63.848  89.307  0.00  0.00    +0.000 A 
ATOM      7  C   UNL     1      88.557  63.803  90.650  0.00  0.00    +0.000 A 
ATOM      8  C   UNL     1      88.505  64.582  86.961  0.00  0.00    +0.000 C 
ATOM      9  O   UNL     1      89.499  64.001  86.537  0.00  0.00    +0.000 OA
ATOM     10  C   UNL     1      87.528  65.272  86.053  0.00  0.00    +0.000 C 
ATOM     11  C   UNL     1      86.891  66.448  86.785  0.00  0.00    +0.000 C 
ATOM     12  O   UNL     1      86.228  65.992  87.984  0.00  0.00    +0.000 OA
ENDROOT
BRANCH  11  13
ATOM     13  C   UNL     1      87.749  67.677  87.075  0.00  0.00    +0.000 A 
ATOM     14  C   UNL     1      88.969  67.936  86.431  0.00  0.00    +0.000 A 
ATOM     15  C   UNL     1      89.703  69.089  86.724  0.00  0.00    +0.000 A 
ATOM     16  C   UNL     1      89.228  70.006  87.658  0.00  0.00    +0.000 A 
ATOM     17  C   UNL     1      88.015  69.774  88.299  0.00  0.00    +0.000 A 
ATOM     18  C   UNL     1      87.282  68.623  88.007  0.00  0.00    +0.000 A 
ENDBRANCH  11  13
TORSDOF 1
ENDMDL
