MODEL 1
REMARK VINA RESULT:      -4.9      0.000      0.000
REMARK  Name = *****
REMARK  3 active torsions:
REMARK  status: ('A' for Active; 'I' for Inactive)
REMARK    1  A    between atoms: C_1  and  O_2
REMARK    2  A    between atoms: O_2  and  C_3
REMARK    3  A    between atoms: C_5  and  C_13
REMARK                            x       y       z     vdW  Elec       q    Type
REMARK                         _______ _______ _______ _____ _____    ______ ____
ROOT
ATOM      1  C   UNL     1     103.667 128.233  81.478  0.00  0.00    +0.000 C 
ATOM      2  C   UNL     1     103.592 128.624  82.949  0.00  0.00    +0.000 C 
ATOM      3  C   UNL     1     102.643 127.682  83.691  0.00  0.00    +0.000 C 
ATOM      4  O   UNL     1     103.142 126.331  83.644  0.00  0.00    +0.000 OA
ATOM      5  C   UNL     1     103.616 125.899  82.433  0.00  0.00    +0.000 A 
ATOM      6  C   UNL     1     103.826 124.524  82.323  0.00  0.00    +0.000 A 
ATOM      7  C   UNL     1     104.292 123.977  81.128  0.00  0.00    +0.000 A 
ATOM      8  C   UNL     1     104.551 124.808  80.042  0.00  0.00    +0.000 A 
ATOM      9  C   UNL     1     104.353 126.185  80.155  0.00  0.00    +0.000 A 
ATOM     10  C   UNL     1     103.897 126.748  81.358  0.00  0.00    +0.000 A 
ENDROOT
BRANCH   3  11
ATOM     11  C   UNL     1     101.164 127.767  83.311  0.00  0.00    +0.000 A 
ATOM     12  C   UNL     1     100.511 126.675  82.712  0.00  0.00    +0.000 A 
ATOM     13  C   UNL     1      99.153 126.734  82.387  0.00  0.00    +0.000 A 
ATOM     14  C   UNL     1      98.418 127.882  82.667  0.00  0.00    +0.000 A 
ATOM     15  C   UNL     1      99.037 128.964  83.284  0.00  0.00    +0.000 A 
ATOM     16  C   UNL     1     100.395 128.905  83.613  0.00  0.00    +0.000 A 
ENDBRANCH   3  11
BRANCH   1  18
ATOM     17  C   UNL     1     105.569 129.635  81.777  0.00  0.00    +0.000 C 
ATOM     18  O   UNL     1     104.750 128.934  80.851  0.00  0.00    +0.000 OA
ENDBRANCH   1  18
TORSDOF 2
ENDMDL
