MODEL 1
REMARK VINA RESULT:      -5.5      0.000      0.000
REMARK  Name = *****
REMARK  2 active torsions:
REMARK  status: ('A' for Active; 'I' for Inactive)
REMARK    1  A    between atoms: C_2  and  C_12
REMARK    2  A    between atoms: C_12  and  C_13
REMARK                            x       y       z     vdW  Elec       q    Type
REMARK                         _______ _______ _______ _____ _____    ______ ____
ROOT
ATOM      1  C   UNL     1     100.036 126.438  83.622  0.00  0.00    +0.000 C 
ATOM      2  C   UNL     1     101.338 127.230  83.479  0.00  0.00    +0.000 C 
ATOM      3  C   UNL     1     101.093 128.688  83.835  0.00  0.00    +0.000 A 
ATOM      4  C   UNL     1     102.130 129.446  84.401  0.00  0.00    +0.000 A 
ATOM      5  C   UNL     1     101.935 130.790  84.719  0.00  0.00    +0.000 A 
ATOM      6  C   UNL     1     100.705 131.392  84.470  0.00  0.00    +0.000 A 
ATOM      7  C   UNL     1      99.668 130.651  83.904  0.00  0.00    +0.000 A 
ATOM      8  C   UNL     1      99.848 129.297  83.584  0.00  0.00    +0.000 A 
ATOM      9  C   UNL     1      98.698 128.538  82.967  0.00  0.00    +0.000 C 
ATOM     10  C   UNL     1      98.964 127.063  82.767  0.00  0.00    +0.000 C 
ATOM     11  O   UNL     1      98.273 126.384  82.005  0.00  0.00    +0.000 OA
ENDROOT
BRANCH   2  12
ATOM     12  C   UNL     1     101.967 127.136  82.070  0.00  0.00    +0.000 C 
BRANCH  12  13
ATOM     13  C   UNL     1     102.873 125.941  81.894  0.00  0.00    +0.000 A 
ATOM     14  C   UNL     1     103.360 125.596  80.626  0.00  0.00    +0.000 A 
ATOM     15  C   UNL     1     104.184 124.481  80.465  0.00  0.00    +0.000 A 
ATOM     16  C   UNL     1     104.531 123.704  81.567  0.00  0.00    +0.000 A 
ATOM     17  C   UNL     1     104.054 124.038  82.832  0.00  0.00    +0.000 A 
ATOM     18  C   UNL     1     103.228 125.150  82.997  0.00  0.00    +0.000 A 
ENDBRANCH  12  13
ENDBRANCH   2  12
TORSDOF 2
ENDMDL
