MODEL 1
REMARK VINA RESULT:      -5.4      0.000      0.000
REMARK  Name = *****
REMARK  3 active torsions:
REMARK  status: ('A' for Active; 'I' for Inactive)
REMARK    1  A    between atoms: C_1  and  C_2
REMARK    2  A    between atoms: C_4  and  C_20
REMARK    3  A    between atoms: C_9  and  C_13
REMARK                            x       y       z     vdW  Elec       q    Type
REMARK                         _______ _______ _______ _____ _____    ______ ____
ROOT
ATOM      1  C   UNL     1      91.992  64.209  84.425  0.00  0.00    +0.000 C 
ATOM      2  C   UNL     1      90.932  64.853  85.269  0.00  0.00    +0.000 A 
ATOM      3  C   UNL     1      90.828  66.249  85.338  0.00  0.00    +0.000 A 
ATOM      4  C   UNL     1      89.856  66.875  86.141  0.00  0.00    +0.000 A 
ATOM      5  C   UNL     1      88.985  66.070  86.901  0.00  0.00    +0.000 A 
ATOM      6  C   UNL     1      87.884  66.625  87.737  0.00  0.00    +0.000 C 
ATOM      7  O   UNL     1      87.705  67.829  87.879  0.00  0.00    +0.000 OA
ATOM      8  C   UNL     1      86.944  65.630  88.357  0.00  0.00    +0.000 C 
ATOM      9  C   UNL     1      87.752  64.406  88.745  0.00  0.00    +0.000 C 
ATOM     10  O   UNL     1      88.334  63.806  87.580  0.00  0.00    +0.000 OA
ATOM     11  C   UNL     1      89.117  64.674  86.863  0.00  0.00    +0.000 A 
ATOM     12  C   UNL     1      90.075  64.072  86.044  0.00  0.00    +0.000 A 
ATOM     13  C   UNL     1      89.789  68.378  86.137  0.00  0.00    +0.000 C 
ENDROOT
BRANCH   9  14
ATOM     14  C   UNL     1      86.872  63.379  89.438  0.00  0.00    +0.000 A 
ATOM     15  C   UNL     1      86.312  63.631  90.701  0.00  0.00    +0.000 A 
ATOM     16  C   UNL     1      85.524  62.668  91.335  0.00  0.00    +0.000 A 
ATOM     17  C   UNL     1      85.294  61.444  90.714  0.00  0.00    +0.000 A 
ATOM     18  C   UNL     1      85.845  61.173  89.464  0.00  0.00    +0.000 A 
ATOM     19  C   UNL     1      86.634  62.136  88.829  0.00  0.00    +0.000 A 
ATOM     20 CL   UNL     1      84.323  60.257  91.495  0.00  0.00    +0.000 Cl
ENDBRANCH   9  14
TORSDOF 1
ENDMDL
