MODEL 1
REMARK VINA RESULT:      -5.2      0.000      0.000
REMARK  Name = *****
REMARK  2 active torsions:
REMARK  status: ('A' for Active; 'I' for Inactive)
REMARK    1  A    between atoms: C_1  and  C_2
REMARK    2  A    between atoms: C_10  and  C_12
REMARK                            x       y       z     vdW  Elec       q    Type
REMARK                         _______ _______ _______ _____ _____    ______ ____
ROOT
ATOM      1  C   UNL     1     106.139 124.540  78.446  0.00  0.00    +0.000 C 
ATOM      2  C   UNL     1     105.379 124.499  79.739  0.00  0.00    +0.000 A 
ATOM      3  C   UNL     1     104.340 125.406  79.992  0.00  0.00    +0.000 A 
ATOM      4  C   UNL     1     103.636 125.350  81.195  0.00  0.00    +0.000 A 
ATOM      5  C   UNL     1     103.982 124.409  82.168  0.00  0.00    +0.000 A 
ATOM      6  C   UNL     1     105.002 123.492  81.918  0.00  0.00    +0.000 A 
ATOM      7  C   UNL     1     105.698 123.538  80.707  0.00  0.00    +0.000 A 
ATOM      8  O   UNL     1     103.360 124.320  83.387  0.00  0.00    +0.000 OA
ATOM      9  C   UNL     1     102.604 125.504  83.670  0.00  0.00    +0.000 C 
ATOM     10  C   UNL     1     101.765 125.914  82.457  0.00  0.00    +0.000 C 
ATOM     11  O   UNL     1     102.623 126.260  81.355  0.00  0.00    +0.000 OA
ENDROOT
BRANCH  10  12
ATOM     12  C   UNL     1     100.865 127.088  82.792  0.00  0.00    +0.000 A 
ATOM     13  C   UNL     1     101.363 128.236  83.429  0.00  0.00    +0.000 A 
ATOM     14  C   UNL     1     100.513 129.294  83.758  0.00  0.00    +0.000 A 
ATOM     15  C   UNL     1      99.154 129.214  83.462  0.00  0.00    +0.000 A 
ATOM     16  C   UNL     1      98.643 128.078  82.836  0.00  0.00    +0.000 A 
ATOM     17  C   UNL     1      99.492 127.021  82.505  0.00  0.00    +0.000 A 
ENDBRANCH  10  12
TORSDOF 1
ENDMDL
