MODEL 1
REMARK VINA RESULT:      -5.3      0.000      0.000
REMARK  Name = *****
REMARK  1 active torsions:
REMARK  status: ('A' for Active; 'I' for Inactive)
REMARK    1  A    between atoms: C_2  and  C_12
REMARK                            x       y       z     vdW  Elec       q    Type
REMARK                         _______ _______ _______ _____ _____    ______ ____
ROOT
ATOM      1  C   UNL     1     103.697 128.495  82.418  0.00  0.00    +0.000 C 
ATOM      2  C   UNL     1     102.859 127.725  83.436  0.00  0.00    +0.000 C 
ATOM      3  O   UNL     1     103.390 126.408  83.686  0.00  0.00    +0.000 OA
ATOM      4  C   UNL     1     103.778 125.698  82.580  0.00  0.00    +0.000 A 
ATOM      5  C   UNL     1     103.986 124.332  82.770  0.00  0.00    +0.000 A 
ATOM      6  C   UNL     1     104.336 123.519  81.689  0.00  0.00    +0.000 A 
ATOM      7  C   UNL     1     104.483 124.072  80.417  0.00  0.00    +0.000 A 
ATOM      8  C   UNL     1     104.293 125.440  80.226  0.00  0.00    +0.000 A 
ATOM      9  C   UNL     1     103.948 126.249  81.313  0.00  0.00    +0.000 A 
ATOM     10  C   UNL     1     103.809 127.704  81.150  0.00  0.00    +0.000 C 
ATOM     11  O   UNL     1     103.885 128.229  80.043  0.00  0.00    +0.000 OA
ENDROOT
BRANCH   2  12
ATOM     12  C   UNL     1     101.359 127.736  83.165  0.00  0.00    +0.000 A 
ATOM     13  C   UNL     1     100.671 126.666  82.573  0.00  0.00    +0.000 A 
ATOM     14  C   UNL     1      99.291 126.735  82.350  0.00  0.00    +0.000 A 
ATOM     15  C   UNL     1      98.573 127.869  82.725  0.00  0.00    +0.000 A 
ATOM     16  C   UNL     1      99.234 128.933  83.331  0.00  0.00    +0.000 A 
ATOM     17  C   UNL     1     100.608 128.856  83.550  0.00  0.00    +0.000 A 
ATOM     18  F   UNL     1     101.213 129.884  84.161  0.00  0.00    +0.000 F 
ENDBRANCH   2  12
TORSDOF 1
ENDMDL
