MODEL 1
REMARK VINA RESULT:      -5.3      0.000      0.000
REMARK  Name = *****
REMARK  4 active torsions:
REMARK  status: ('A' for Active; 'I' for Inactive)
REMARK    1  A    between atoms: C_1  and  C_2
REMARK    2  A    between atoms: C_11  and  C_13
REMARK    3  A    between atoms: C_13  and  C_14
REMARK    4  A    between atoms: C_14  and  C_16
REMARK                            x       y       z     vdW  Elec       q    Type
REMARK                         _______ _______ _______ _____ _____    ______ ____
ROOT
ATOM      1  C   UNL     1     102.775 129.789  84.571  0.00  0.00    +0.000 C 
ATOM      2  C   UNL     1     102.779 128.477  83.826  0.00  0.00    +0.000 C 
ATOM      3  C   UNL     1     103.522 128.331  82.716  0.00  0.00    +0.000 C 
ATOM      4  C   UNL     1     103.725 127.139  81.869  0.00  0.00    +0.000 A 
ATOM      5  C   UNL     1     104.591 127.322  80.769  0.00  0.00    +0.000 A 
ATOM      6  C   UNL     1     104.932 126.273  79.911  0.00  0.00    +0.000 A 
ATOM      7  C   UNL     1     104.419 125.005  80.138  0.00  0.00    +0.000 A 
ATOM      8  C   UNL     1     103.557 124.802  81.213  0.00  0.00    +0.000 A 
ATOM      9  C   UNL     1     103.190 125.858  82.064  0.00  0.00    +0.000 A 
ATOM     10  O   UNL     1     102.333 125.455  83.047  0.00  0.00    +0.000 OA
ATOM     11  C   UNL     1     101.328 126.368  83.502  0.00  0.00    +0.000 C 
ATOM     12  C   UNL     1     101.921 127.411  84.452  0.00  0.00    +0.000 C 
ENDROOT
BRANCH  11  13
ATOM     13  C   UNL     1     100.435 126.902  82.368  0.00  0.00    +0.000 C 
BRANCH  13  14
ATOM     14  C   UNL     1      99.057 127.309  82.853  0.00  0.00    +0.000 C 
ATOM     15  O   UNL     1      98.042 126.688  82.546  0.00  0.00    +0.000 OA
BRANCH  14  16
ATOM     16  C   UNL     1      98.934 128.517  83.724  0.00  0.00    +0.000 A 
ATOM     17  C   UNL     1      98.396 128.458  85.015  0.00  0.00    +0.000 A 
ATOM     18  C   UNL     1      98.298 129.620  85.788  0.00  0.00    +0.000 A 
ATOM     19  C   UNL     1      98.738 130.841  85.277  0.00  0.00    +0.000 A 
ATOM     20  C   UNL     1      99.281 130.905  83.996  0.00  0.00    +0.000 A 
ATOM     21  C   UNL     1      99.381 129.747  83.222  0.00  0.00    +0.000 A 
ENDBRANCH  14  16
ENDBRANCH  13  14
ENDBRANCH  11  13
TORSDOF 3
ENDMDL
