MODEL 1
REMARK VINA RESULT:      -5.1      0.000      0.000
REMARK  Name = *****
REMARK  1 active torsions:
REMARK  status: ('A' for Active; 'I' for Inactive)
REMARK    1  A    between atoms: C_3  and  C_11
REMARK                            x       y       z     vdW  Elec       q    Type
REMARK                         _______ _______ _______ _____ _____    ______ ____
ROOT
ATOM      1  C   UNL     1     102.813 128.296  83.255  0.00  0.00    +0.000 C 
ATOM      2  C   UNL     1     103.601 126.985  83.175  0.00  0.00    +0.000 C 
ATOM      3  C   UNL     1     103.075 126.166  81.980  0.00  0.00    +0.000 C 
ATOM      4  O   UNL     1     101.678 125.845  82.128  0.00  0.00    +0.000 OA
ATOM      5  C   UNL     1     100.868 126.864  82.540  0.00  0.00    +0.000 A 
ATOM      6  C   UNL     1      99.498 126.645  82.407  0.00  0.00    +0.000 A 
ATOM      7  C   UNL     1      98.588 127.624  82.805  0.00  0.00    +0.000 A 
ATOM      8  C   UNL     1      99.051 128.823  83.342  0.00  0.00    +0.000 A 
ATOM      9  C   UNL     1     100.422 129.038  83.488  0.00  0.00    +0.000 A 
ATOM     10  C   UNL     1     101.341 128.051  83.100  0.00  0.00    +0.000 A 
ATOM     11  I   UNL     1     105.715 127.478  82.995  0.00  0.00    +0.000 I 
ENDROOT
BRANCH   3  12
ATOM     12  C   UNL     1     103.779 124.829  81.797  0.00  0.00    +0.000 A 
ATOM     13  C   UNL     1     104.287 124.440  80.547  0.00  0.00    +0.000 A 
ATOM     14  C   UNL     1     104.922 123.207  80.389  0.00  0.00    +0.000 A 
ATOM     15  C   UNL     1     105.064 122.350  81.480  0.00  0.00    +0.000 A 
ATOM     16  C   UNL     1     104.574 122.727  82.727  0.00  0.00    +0.000 A 
ATOM     17  C   UNL     1     103.939 123.960  82.888  0.00  0.00    +0.000 A 
ENDBRANCH   3  12
TORSDOF 1
ENDMDL
