MODEL 1
REMARK VINA RESULT:      -4.5      0.000      0.000
REMARK  Name = *****
REMARK  2 active torsions:
REMARK  status: ('A' for Active; 'I' for Inactive)
REMARK    1  A    between atoms: C_1  and  C_2
REMARK    2  A    between atoms: C_11  and  C_13
REMARK                            x       y       z     vdW  Elec       q    Type
REMARK                         _______ _______ _______ _____ _____    ______ ____
ROOT
ATOM      1  C   UNL     1      91.918  64.372  84.381  0.00  0.00    +0.000 C 
ATOM      2  C   UNL     1      90.875  64.923  85.308  0.00  0.00    +0.000 A 
ATOM      3  C   UNL     1      90.032  64.059  86.023  0.00  0.00    +0.000 A 
ATOM      4  C   UNL     1      89.049  64.574  86.867  0.00  0.00    +0.000 A 
ATOM      5  C   UNL     1      88.875  65.954  86.969  0.00  0.00    +0.000 A 
ATOM      6  C   UNL     1      89.698  66.826  86.254  0.00  0.00    +0.000 A 
ATOM      7  C   UNL     1      90.696  66.309  85.425  0.00  0.00    +0.000 A 
ATOM      8  C   UNL     1      87.774  66.471  87.807  0.00  0.00    +0.000 C 
ATOM      9  O   UNL     1      87.586  67.677  87.929  0.00  0.00    +0.000 OA
ATOM     10  C   UNL     1      86.866  65.445  88.422  0.00  0.00    +0.000 C 
ATOM     11  C   UNL     1      87.695  64.209  88.736  0.00  0.00    +0.000 C 
ATOM     12  O   UNL     1      88.277  63.664  87.539  0.00  0.00    +0.000 OA
ENDROOT
BRANCH  11  13
ATOM     13  C   UNL     1      86.836  63.120  89.326  0.00  0.00    +0.000 A 
ATOM     14  C   UNL     1      86.482  61.898  88.781  0.00  0.00    +0.000 A 
ATOM     15  C   UNL     1      85.638  61.140  89.642  0.00  0.00    +0.000 A 
ATOM     16  C   UNL     1      85.370  61.807  90.817  0.00  0.00    +0.000 A 
ATOM     17  S   UNL     1      86.133  63.334  90.877  0.00  0.00    +0.000 S 
ENDBRANCH  11  13
TORSDOF 1
ENDMDL
