MODEL 1
REMARK VINA RESULT:      -5.2      0.000      0.000
REMARK  Name = *****
REMARK  2 active torsions:
REMARK  status: ('A' for Active; 'I' for Inactive)
REMARK    1  A    between atoms: C_8  and  C_11
REMARK    2  A    between atoms: C_8  and  C_17
REMARK                            x       y       z     vdW  Elec       q    Type
REMARK                         _______ _______ _______ _____ _____    ______ ____
ROOT
ATOM      1  C   UNL     1      90.460  66.523  86.008  0.00  0.00    +0.000 C 
ATOM      2  C   UNL     1      89.197  66.546  86.459  0.00  0.00    +0.000 C 
ATOM      3  C   UNL     1      88.628  65.510  87.392  0.00  0.00    +0.000 C 
ATOM      4  C   UNL     1      87.198  65.980  87.646  0.00  0.00    +0.000 C 
ATOM      5  C   UNL     1      86.835  66.763  86.390  0.00  0.00    +0.000 C 
ATOM      6  C   UNL     1      88.118  67.523  86.068  0.00  0.00    +0.000 C 
ATOM      7  O   UNL     1      88.226  68.674  86.888  0.00  0.00    +0.000 OA
ATOM      8  C   UNL     1      88.072  69.787  85.985  0.00  0.00    +0.000 C 
ATOM      9  O   UNL     1      87.677  69.263  84.703  0.00  0.00    +0.000 OA
ATOM     10  O   UNL     1      88.176  67.893  84.706  0.00  0.00    +0.000 OA
ENDROOT
BRANCH   8  11
ATOM     11  C   UNL     1      86.952  70.681  86.523  0.00  0.00    +0.000 A 
ATOM     12  C   UNL     1      86.065  71.327  85.643  0.00  0.00    +0.000 A 
ATOM     13  C   UNL     1      85.029  72.128  86.128  0.00  0.00    +0.000 A 
ATOM     14  C   UNL     1      84.857  72.292  87.500  0.00  0.00    +0.000 A 
ATOM     15  C   UNL     1      85.718  71.653  88.388  0.00  0.00    +0.000 A 
ATOM     16  C   UNL     1      86.755  70.852  87.905  0.00  0.00    +0.000 A 
ENDBRANCH   8  11
BRANCH   8  17
ATOM     17  C   UNL     1      89.399  70.585  85.832  0.00  0.00    +0.000 C 
ATOM     18  F   UNL     1      90.367  69.857  85.219  0.00  0.00    +0.000 F 
ATOM     19  F   UNL     1      89.229  71.709  85.088  0.00  0.00    +0.000 F 
ATOM     20  F   UNL     1      89.898  70.983  87.029  0.00  0.00    +0.000 F 
ENDBRANCH   8  17
TORSDOF 2
ENDMDL
