MODEL 1
REMARK VINA RESULT:      -5.1      0.000      0.000
REMARK  Name = *****
REMARK  1 active torsions:
REMARK  status: ('A' for Active; 'I' for Inactive)
REMARK    1  A    between atoms: C_2  and  C_12
REMARK                            x       y       z     vdW  Elec       q    Type
REMARK                         _______ _______ _______ _____ _____    ______ ____
ROOT
ATOM      1  C   UNL     1     103.941 128.391  81.997  0.00  0.00    +0.000 C 
ATOM      2  C   UNL     1     103.270 127.813  83.241  0.00  0.00    +0.000 C 
ATOM      3  O   UNL     1     103.735 126.488  83.572  0.00  0.00    +0.000 OA
ATOM      4  C   UNL     1     103.997 125.640  82.535  0.00  0.00    +0.000 A 
ATOM      5  C   UNL     1     104.228 124.307  82.878  0.00  0.00    +0.000 A 
ATOM      6  C   UNL     1     104.451 123.353  81.882  0.00  0.00    +0.000 A 
ATOM      7  C   UNL     1     104.443 123.729  80.538  0.00  0.00    +0.000 A 
ATOM      8  C   UNL     1     104.224 125.061  80.190  0.00  0.00    +0.000 A 
ATOM      9  C   UNL     1     104.010 126.012  81.194  0.00  0.00    +0.000 A 
ATOM     10  C   UNL     1     103.833 127.430  80.853  0.00  0.00    +0.000 C 
ATOM     11  O   UNL     1     103.701 127.793  79.689  0.00  0.00    +0.000 OA
ENDROOT
BRANCH   2  12
ATOM     12  C   UNL     1     101.744 127.940  83.242  0.00  0.00    +0.000 A 
ATOM     13  C   UNL     1     101.095 129.065  83.811  0.00  0.00    +0.000 A 
ATOM     14  C   UNL     1      99.692 129.167  83.781  0.00  0.00    +0.000 A 
ATOM     15  C   UNL     1      98.924 128.162  83.191  0.00  0.00    +0.000 A 
ATOM     16  C   UNL     1      99.545 127.051  82.635  0.00  0.00    +0.000 A 
ATOM     17  C   UNL     1     100.937 126.942  82.661  0.00  0.00    +0.000 A 
ATOM     18 CL   UNL     1      98.837 130.513  84.457  0.00  0.00    +0.000 Cl
ATOM     19 CL   UNL     1     102.027 130.324  84.567  0.00  0.00    +0.000 Cl
ENDBRANCH   2  12
TORSDOF 1
ENDMDL
