MODEL 1
REMARK VINA RESULT:      -4.6      0.000      0.000
REMARK  Name = *****
REMARK  3 active torsions:
REMARK  status: ('A' for Active; 'I' for Inactive)
REMARK    1  A    between atoms: C_2  and  S_11
REMARK    2  A    between atoms: S_11  and  C_12
REMARK    3  A    between atoms: C_12  and  C_13
REMARK                            x       y       z     vdW  Elec       q    Type
REMARK                         _______ _______ _______ _____ _____    ______ ____
ROOT
ATOM      1  C   UNL     1      87.886  67.642  87.456  0.00  0.00    +0.000 C 
ATOM      2  C   UNL     1      89.040  68.412  86.858  0.00  0.00    +0.000 C 
ATOM      3  N   UNL     1      90.035  67.905  86.200  0.00  0.00    +0.000 NA
ATOM      4  C   UNL     1      90.059  66.528  85.910  0.00  0.00    +0.000 A 
ATOM      5  C   UNL     1      91.296  65.972  85.560  0.00  0.00    +0.000 A 
ATOM      6  C   UNL     1      91.405  64.625  85.210  0.00  0.00    +0.000 A 
ATOM      7  C   UNL     1      90.272  63.816  85.195  0.00  0.00    +0.000 A 
ATOM      8  C   UNL     1      89.030  64.355  85.532  0.00  0.00    +0.000 A 
ATOM      9  C   UNL     1      88.920  65.702  85.895  0.00  0.00    +0.000 A 
ATOM     10  S   UNL     1      87.315  66.348  86.326  0.00  0.00    +0.000 S 
ENDROOT
BRANCH   2  11
ATOM     11  S   UNL     1      89.035  70.136  87.213  0.00  0.00    +0.000 S 
BRANCH  11  12
ATOM     12  C   UNL     1      87.851  70.720  85.965  0.00  0.00    +0.000 C 
BRANCH  12  13
ATOM     13  C   UNL     1      86.622  71.310  86.612  0.00  0.00    +0.000 A 
ATOM     14  C   UNL     1      86.494  71.328  88.009  0.00  0.00    +0.000 A 
ATOM     15  C   UNL     1      85.353  71.864  88.609  0.00  0.00    +0.000 A 
ATOM     16  C   UNL     1      84.327  72.381  87.820  0.00  0.00    +0.000 A 
ATOM     17  C   UNL     1      84.439  72.360  86.432  0.00  0.00    +0.000 A 
ATOM     18  C   UNL     1      85.579  71.825  85.829  0.00  0.00    +0.000 A 
ENDBRANCH  12  13
ENDBRANCH  11  12
ENDBRANCH   2  11
TORSDOF 3
ENDMDL
