MODEL 1
REMARK VINA RESULT:      -5.1      0.000      0.000
REMARK  Name = *****
REMARK  4 active torsions:
REMARK  status: ('A' for Active; 'I' for Inactive)
REMARK    1  A    between atoms: C_1  and  C_2
REMARK    2  A    between atoms: C_5  and  O_8
REMARK    3  A    between atoms: O_8  and  C_9
REMARK    4  A    between atoms: C_9  and  C_11
REMARK                            x       y       z     vdW  Elec       q    Type
REMARK                         _______ _______ _______ _____ _____    ______ ____
ROOT
ATOM      1  C   UNL     1      89.177  69.974  87.109  0.00  0.00    +0.000 C 
ATOM      2  O   UNL     1      89.839  70.844  86.552  0.00  0.00    +0.000 OA
ENDROOT
BRANCH   1   3
ATOM      3  C   UNL     1      89.280  68.561  86.826  0.00  0.00    +0.000 A 
ATOM      4  C   UNL     1      88.385  67.531  87.064  0.00  0.00    +0.000 A 
ATOM      5  C   UNL     1      88.986  66.338  86.587  0.00  0.00    +0.000 A 
ATOM      6  C   UNL     1      88.622  64.982  86.526  0.00  0.00    +0.000 A 
ATOM      7  C   UNL     1      89.521  64.069  85.956  0.00  0.00    +0.000 A 
ATOM      8  C   UNL     1      90.757  64.491  85.458  0.00  0.00    +0.000 A 
ATOM      9  C   UNL     1      91.137  65.836  85.510  0.00  0.00    +0.000 A 
ATOM     10  C   UNL     1      90.223  66.717  86.081  0.00  0.00    +0.000 A 
ATOM     11  O   UNL     1      90.404  68.058  86.224  0.00  0.00    +0.000 OA
ENDBRANCH   1   3
BRANCH   1  12
ATOM     12  O   UNL     1      88.225  70.184  88.103  0.00  0.00    +0.000 OA
BRANCH  12  17
ATOM     13  C   UNL     1      83.459  72.952  86.705  0.00  0.00    +0.000 C 
ATOM     14  C   UNL     1      84.738  72.255  87.061  0.00  0.00    +0.000 A 
ATOM     15  C   UNL     1      85.566  71.738  86.054  0.00  0.00    +0.000 A 
ATOM     16  C   UNL     1      86.741  71.058  86.383  0.00  0.00    +0.000 A 
ATOM     17  C   UNL     1      87.087  70.907  87.723  0.00  0.00    +0.000 A 
ATOM     18  C   UNL     1      86.261  71.381  88.738  0.00  0.00    +0.000 A 
ATOM     19  C   UNL     1      85.086  72.057  88.405  0.00  0.00    +0.000 A 
ENDBRANCH  12  17
ENDBRANCH   1  12
TORSDOF 3
ENDMDL
