REMARK  Name = *****
REMARK  3 active torsions:
REMARK  status: ('A' for Active; 'I' for Inactive)
REMARK    1  A    between atoms: C_1  and  C_2
REMARK    2  A    between atoms: C_3  and  C_11
REMARK    3  A    between atoms: C_11  and  C_13
REMARK                            x       y       z     vdW  Elec       q    Type
REMARK                         _______ _______ _______ _____ _____    ______ ____
ROOT
ATOM      1  C   UNL     1       0.516  -0.545   0.010  0.00  0.00    +0.000 C 
ATOM      2  C   UNL     1       1.996  -0.202  -0.150  0.00  0.00    +0.000 C 
ATOM      3  C   UNL     1       2.530   0.891   0.805  0.00  0.00    +0.000 C 
ATOM      4  O   UNL     1       3.000   0.236   2.012  0.00  0.00    +0.000 OA
ATOM      5  C   UNL     1       3.358  -1.013   1.577  0.00  0.00    +0.000 A 
ATOM      6  C   UNL     1       4.127  -1.900   2.299  0.00  0.00    +0.000 A 
ATOM      7  C   UNL     1       4.404  -3.141   1.722  0.00  0.00    +0.000 A 
ATOM      8  C   UNL     1       3.899  -3.466   0.451  0.00  0.00    +0.000 A 
ATOM      9  C   UNL     1       3.107  -2.557  -0.256  0.00  0.00    +0.000 A 
ATOM     10  C   UNL     1       2.847  -1.329   0.327  0.00  0.00    +0.000 A 
ENDROOT
BRANCH   3  11
ATOM     11  C   UNL     1       1.513   1.991   1.126  0.00  0.00    +0.000 C 
ATOM     12  O   UNL     1       0.988   2.103   2.234  0.00  0.00    +0.000 OA
BRANCH  11  13
ATOM     13  C   UNL     1       1.130   2.965   0.054  0.00  0.00    +0.000 A 
ATOM     14  C   UNL     1       1.833   3.087  -1.151  0.00  0.00    +0.000 A 
ATOM     15  C   UNL     1       1.419   4.011  -2.116  0.00  0.00    +0.000 A 
ATOM     16  C   UNL     1       0.307   4.819  -1.883  0.00  0.00    +0.000 A 
ATOM     17  C   UNL     1      -0.394   4.709  -0.685  0.00  0.00    +0.000 A 
ATOM     18  C   UNL     1       0.017   3.788   0.280  0.00  0.00    +0.000 A 
ENDBRANCH  11  13
ENDBRANCH   3  11
TORSDOF 2
