MODEL 1
REMARK VINA RESULT:      -4.9      0.000      0.000
REMARK  Name = *****
REMARK  4 active torsions:
REMARK  status: ('A' for Active; 'I' for Inactive)
REMARK    1  A    between atoms: C_1  and  C_2
REMARK    2  A    between atoms: C_2  and  C_14
REMARK    3  A    between atoms: C_9  and  O_12
REMARK    4  A    between atoms: O_12  and  C_13
REMARK                            x       y       z     vdW  Elec       q    Type
REMARK                         _______ _______ _______ _____ _____    ______ ____
ROOT
ATOM      1  C   UNL     1      86.050  62.974  87.820  0.00  0.00    +0.000 C 
ATOM      2  C   UNL     1      87.106  64.092  87.908  0.00  0.00    +0.000 C 
ATOM      3  C   UNL     1      86.473  65.402  87.392  0.00  0.00    +0.000 C 
ATOM      4  C   UNL     1      87.516  66.511  87.329  0.00  0.00    +0.000 C 
ATOM      5  C   UNL     1      88.753  66.011  86.647  0.00  0.00    +0.000 A 
ATOM      6  C   UNL     1      88.999  64.643  86.529  0.00  0.00    +0.000 A 
ATOM      7  O   UNL     1      88.161  63.672  87.010  0.00  0.00    +0.000 OA
ATOM      8  C   UNL     1      90.147  64.189  85.879  0.00  0.00    +0.000 A 
ATOM      9  C   UNL     1      91.081  65.091  85.365  0.00  0.00    +0.000 A 
ATOM     10  C   UNL     1      90.851  66.460  85.502  0.00  0.00    +0.000 A 
ATOM     11  C   UNL     1      89.693  66.917  86.142  0.00  0.00    +0.000 A 
ENDROOT
BRANCH   2  12
ATOM     12  C   UNL     1      87.591  64.154  89.368  0.00  0.00    +0.000 A 
ATOM     13  C   UNL     1      88.900  63.780  89.717  0.00  0.00    +0.000 A 
ATOM     14  C   UNL     1      89.336  63.824  91.044  0.00  0.00    +0.000 A 
ATOM     15  C   UNL     1      88.468  64.232  92.051  0.00  0.00    +0.000 A 
ATOM     16  C   UNL     1      87.162  64.589  91.733  0.00  0.00    +0.000 A 
ATOM     17  C   UNL     1      86.726  64.546  90.407  0.00  0.00    +0.000 A 
ENDBRANCH   2  12
BRANCH   9  18
ATOM     18  O   UNL     1      92.163  64.515  84.761  0.00  0.00    +0.000 OA
ATOM     19  C   UNL     1      91.938  63.872  83.513  0.00  0.00    +0.000 C 
ENDBRANCH   9  18
TORSDOF 2
ENDMDL
