MODEL 1
REMARK VINA RESULT:      -4.8      0.000      0.000
REMARK  Name = *****
REMARK  6 active torsions:
REMARK  status: ('A' for Active; 'I' for Inactive)
REMARK    1  A    between atoms: C_1  and  C_2
REMARK    2  A    between atoms: C_2  and  C_22
REMARK    3  A    between atoms: C_12  and  C_13
REMARK    4  A    between atoms: C_12  and  O_21
REMARK    5  A    between atoms: C_16  and  S_19
REMARK    6  A    between atoms: S_19  and  C_20
REMARK                            x       y       z     vdW  Elec       q    Type
REMARK                         _______ _______ _______ _____ _____    ______ ____
ROOT
ATOM      1  C   UNL     1      85.052  63.473  86.837  0.00  0.00    +0.000 C 
ATOM      2  C   UNL     1      86.341  64.159  86.343  0.00  0.00    +0.000 C 
ATOM      3  C   UNL     1      86.207  65.672  86.362  0.00  0.00    +0.000 C 
ATOM      4  O   UNL     1      85.126  66.252  86.315  0.00  0.00    +0.000 OA
ATOM      5  C   UNL     1      87.463  66.449  86.381  0.00  0.00    +0.000 A 
ATOM      6  C   UNL     1      87.441  67.839  86.238  0.00  0.00    +0.000 A 
ATOM      7  C   UNL     1      88.641  68.551  86.219  0.00  0.00    +0.000 A 
ATOM      8  C   UNL     1      89.856  67.874  86.335  0.00  0.00    +0.000 A 
ATOM      9  C   UNL     1      89.873  66.485  86.481  0.00  0.00    +0.000 A 
ATOM     10  C   UNL     1      88.675  65.774  86.520  0.00  0.00    +0.000 A 
ATOM     11  O   UNL     1      88.776  64.416  86.672  0.00  0.00    +0.000 OA
ATOM     12  C   UNL     1      87.590  63.780  87.191  0.00  0.00    +0.000 C 
ATOM     13  C   UNL     1      86.512  63.761  84.854  0.00  0.00    +0.000 C 
ENDROOT
BRANCH  12  14
ATOM     14  C   UNL     1      87.597  63.978  88.718  0.00  0.00    +0.000 A 
ATOM     15  C   UNL     1      86.527  64.510  89.455  0.00  0.00    +0.000 A 
ATOM     16  C   UNL     1      86.623  64.703  90.841  0.00  0.00    +0.000 A 
ATOM     17  C   UNL     1      87.789  64.372  91.532  0.00  0.00    +0.000 A 
ATOM     18  C   UNL     1      88.873  63.871  90.816  0.00  0.00    +0.000 A 
ATOM     19  C   UNL     1      88.777  63.678  89.434  0.00  0.00    +0.000 A 
BRANCH  17  20
ATOM     20  S   UNL     1      87.865  64.655  93.290  0.00  0.00    +0.000 S 
ATOM     21  C   UNL     1      86.820  66.130  93.421  0.00  0.00    +0.000 C 
ENDBRANCH  17  20
ENDBRANCH  12  14
BRANCH  12  22
ATOM     22  O   UNL     1      87.808  62.371  87.001  0.00  0.00    +0.000 OA
ATOM     23  H   UNL     1      87.770  61.919  87.859  0.00  0.00    +0.000 HD
ENDBRANCH  12  22
TORSDOF 3
ENDMDL
