MODEL 1
REMARK VINA RESULT:      -4.4      0.000      0.000
REMARK  Name = *****
REMARK  5 active torsions:
REMARK  status: ('A' for Active; 'I' for Inactive)
REMARK    1  A    between atoms: C_3  and  C_8
REMARK    2  A    between atoms: C_8  and  C_9
REMARK    3  A    between atoms: C_9  and  C_10
REMARK    4  A    between atoms: C_10  and  C_11
REMARK    5  A    between atoms: C_10  and  O_16
REMARK                            x       y       z     vdW  Elec       q    Type
REMARK                         _______ _______ _______ _____ _____    ______ ____
ROOT
ATOM      1  C   UNL     1     102.827 125.502  82.468  0.00  0.00    +0.000 C 
ENDROOT
BRANCH   1   2
ATOM      2  C   UNL     1     102.719 126.913  83.055  0.00  0.00    +0.000 C 
BRANCH   2   5
ATOM      3  C   UNL     1      98.963 127.102  82.433  0.00  0.00    +0.000 A 
ATOM      4  C   UNL     1     100.279 126.637  82.463  0.00  0.00    +0.000 A 
ATOM      5  C   UNL     1     101.302 127.427  83.006  0.00  0.00    +0.000 A 
ATOM      6  C   UNL     1     100.983 128.689  83.529  0.00  0.00    +0.000 A 
ATOM      7  C   UNL     1      99.667 129.149  83.495  0.00  0.00    +0.000 A 
ATOM      8  C   UNL     1      98.655 128.362  82.948  0.00  0.00    +0.000 A 
ATOM      9 CL   UNL     1      99.288 130.701  84.135  0.00  0.00    +0.000 Cl
ENDBRANCH   2   5
ENDBRANCH   1   2
BRANCH   1  10
ATOM     10  C   UNL     1     103.639 125.500  81.170  0.00  0.00    +0.000 C 
BRANCH  10  11
ATOM     11  C   UNL     1     104.510 124.281  81.017  0.00  0.00    +0.000 A 
ATOM     12  C   UNL     1     104.478 123.122  81.772  0.00  0.00    +0.000 A 
ATOM     13  C   UNL     1     105.451 122.169  81.352  0.00  0.00    +0.000 A 
ATOM     14  C   UNL     1     106.199 122.629  80.293  0.00  0.00    +0.000 A 
ATOM     15  S   UNL     1     105.731 124.200  79.811  0.00  0.00    +0.000 S 
ENDBRANCH  10  11
BRANCH  10  16
ATOM     16  O   UNL     1     102.770 125.557  80.042  0.00  0.00    +0.000 OA
ATOM     17  H   UNL     1     101.850 125.462  80.335  0.00  0.00    +0.000 HD
ENDBRANCH  10  16
ENDBRANCH   1  10
TORSDOF 5
ENDMDL
