MODEL 1
REMARK VINA RESULT:      -4.7      0.000      0.000
REMARK  Name = *****
REMARK  5 active torsions:
REMARK  status: ('A' for Active; 'I' for Inactive)
REMARK    1  A    between atoms: C_1  and  C_2
REMARK    2  A    between atoms: C_2  and  O_3
REMARK    3  A    between atoms: O_3  and  C_4
REMARK    4  A    between atoms: C_4  and  C_6
REMARK    5  A    between atoms: C_6  and  C_16
REMARK                            x       y       z     vdW  Elec       q    Type
REMARK                         _______ _______ _______ _____ _____    ______ ____
ROOT
ATOM      1  C   UNL     1     103.111 126.845  82.704  0.00  0.00    +0.000 C 
ATOM      2  C   UNL     1     103.514 126.564  81.253  0.00  0.00    +0.000 C 
ATOM      3  C   UNL     1     103.435 127.357  80.175  0.00  0.00    +0.000 C 
ATOM      4  C   UNL     1     103.991 125.197  81.257  0.00  0.00    +0.000 A 
ATOM      5  C   UNL     1     104.540 124.401  80.264  0.00  0.00    +0.000 A 
ATOM      6  C   UNL     1     104.908 123.089  80.586  0.00  0.00    +0.000 A 
ATOM      7  C   UNL     1     104.722 122.595  81.885  0.00  0.00    +0.000 A 
ATOM      8  C   UNL     1     104.168 123.407  82.877  0.00  0.00    +0.000 A 
ATOM      9  C   UNL     1     103.816 124.699  82.537  0.00  0.00    +0.000 A 
ATOM     10  O   UNL     1     103.254 125.576  83.427  0.00  0.00    +0.000 OA
ENDROOT
BRANCH   1  11
ATOM     11  C   UNL     1     101.658 127.336  82.826  0.00  0.00    +0.000 A 
ATOM     12  C   UNL     1     100.582 126.567  82.343  0.00  0.00    +0.000 A 
ATOM     13  C   UNL     1      99.263 127.008  82.481  0.00  0.00    +0.000 A 
ATOM     14  C   UNL     1      98.993 128.219  83.111  0.00  0.00    +0.000 A 
ATOM     15  C   UNL     1     100.040 128.988  83.612  0.00  0.00    +0.000 A 
ATOM     16  C   UNL     1     101.359 128.548  83.475  0.00  0.00    +0.000 A 
ENDBRANCH   1  11
BRANCH   1  17
ATOM     17  C   UNL     1     104.117 127.835  83.372  0.00  0.00    +0.000 C 
ATOM     18  O   UNL     1     104.489 128.903  82.891  0.00  0.00    +0.000 OA
BRANCH  17  19
ATOM     19  O   UNL     1     104.484 127.400  84.619  0.00  0.00    +0.000 OA
BRANCH  19  21
ATOM     20  C   UNL     1     106.637 126.409  84.126  0.00  0.00    +0.000 C 
ATOM     21  C   UNL     1     105.884 127.458  84.924  0.00  0.00    +0.000 C 
ENDBRANCH  19  21
ENDBRANCH  17  19
ENDBRANCH   1  17
TORSDOF 4
ENDMDL
