MODEL 1
REMARK VINA RESULT:      -4.7      0.000      0.000
REMARK  Name = *****
REMARK  4 active torsions:
REMARK  status: ('A' for Active; 'I' for Inactive)
REMARK    1  A    between atoms: C_1  and  C_2
REMARK    2  A    between atoms: C_2  and  C_19
REMARK    3  A    between atoms: C_12  and  C_13
REMARK    4  A    between atoms: C_12  and  O_18
REMARK                            x       y       z     vdW  Elec       q    Type
REMARK                         _______ _______ _______ _____ _____    ______ ____
ROOT
ATOM      1  C   UNL     1      87.233  65.186  88.176  0.00  0.00    +0.000 C 
ATOM      2  C   UNL     1      87.160  63.817  88.881  0.00  0.00    +0.000 C 
ATOM      3  C   UNL     1      86.227  63.895  90.073  0.00  0.00    +0.000 C 
ATOM      4  O   UNL     1      85.936  64.946  90.640  0.00  0.00    +0.000 OA
ATOM      5  C   UNL     1      85.748  62.612  90.617  0.00  0.00    +0.000 A 
ATOM      6  C   UNL     1      85.145  62.555  91.878  0.00  0.00    +0.000 A 
ATOM      7  C   UNL     1      84.738  61.325  92.394  0.00  0.00    +0.000 A 
ATOM      8  C   UNL     1      84.935  60.161  91.653  0.00  0.00    +0.000 A 
ATOM      9  C   UNL     1      85.529  60.225  90.390  0.00  0.00    +0.000 A 
ATOM     10  C   UNL     1      85.928  61.455  89.866  0.00  0.00    +0.000 A 
ATOM     11  O   UNL     1      86.464  61.426  88.609  0.00  0.00    +0.000 OA
ATOM     12  C   UNL     1      86.658  62.686  87.948  0.00  0.00    +0.000 C 
ATOM     13  C   UNL     1      88.573  63.511  89.435  0.00  0.00    +0.000 C 
ENDROOT
BRANCH  12  14
ATOM     14  C   UNL     1      85.425  63.025  87.101  0.00  0.00    +0.000 A 
ATOM     15  C   UNL     1      84.106  63.123  87.530  0.00  0.00    +0.000 A 
ATOM     16  C   UNL     1      83.195  63.446  86.486  0.00  0.00    +0.000 A 
ATOM     17  C   UNL     1      83.833  63.588  85.277  0.00  0.00    +0.000 A 
ATOM     18  S   UNL     1      85.513  63.328  85.408  0.00  0.00    +0.000 S 
ENDBRANCH  12  14
BRANCH  12  19
ATOM     19  O   UNL     1      87.699  62.425  86.993  0.00  0.00    +0.000 OA
ATOM     20  H   UNL     1      88.361  61.836  87.388  0.00  0.00    +0.000 HD
ENDBRANCH  12  19
TORSDOF 2
ENDMDL
