MODEL 1
REMARK VINA RESULT:      -5.4      0.000      0.000
REMARK  Name = *****
REMARK  7 active torsions:
REMARK  status: ('A' for Active; 'I' for Inactive)
REMARK    1  A    between atoms: C_1  and  C_2
REMARK    2  A    between atoms: C_6  and  C_7
REMARK    3  A    between atoms: C_6  and  C_8
REMARK    4  A    between atoms: C_12  and  C_14
REMARK    5  A    between atoms: C_14  and  C_15
REMARK    6  A    between atoms: C_14  and  C_16
REMARK    7  A    between atoms: C_14  and  O_22
REMARK                            x       y       z     vdW  Elec       q    Type
REMARK                         _______ _______ _______ _____ _____    ______ ____
ROOT
ATOM      1  C   UNL     1      91.440  65.589  85.383  0.00  0.00    +0.000 C 
ATOM      2  C   UNL     1      90.013  65.901  84.976  0.00  0.00    +0.000 C 
ATOM      3  C   UNL     1      89.715  65.601  83.476  0.00  0.00    +0.000 C 
ATOM      4  C   UNL     1      88.171  65.567  83.434  0.00  0.00    +0.000 C 
ATOM      5  C   UNL     1      87.783  65.860  84.910  0.00  0.00    +0.000 C 
ATOM      6  C   UNL     1      88.892  65.094  85.697  0.00  0.00    +0.000 C 
ATOM      7  C   UNL     1      88.844  65.203  87.228  0.00  0.00    +0.000 C 
ATOM      8  C   UNL     1      88.895  63.566  85.427  0.00  0.00    +0.000 C 
ATOM      9  C   UNL     1      88.084  67.371  85.101  0.00  0.00    +0.000 C 
ATOM     10  C   UNL     1      89.610  67.398  85.171  0.00  0.00    +0.000 C 
ATOM     11  O   UNL     1      89.985  67.980  86.413  0.00  0.00    +0.000 OA
ATOM     12  C   UNL     1      88.851  68.687  86.978  0.00  0.00    +0.000 C 
ATOM     13  C   UNL     1      87.605  68.041  86.367  0.00  0.00    +0.000 C 
ENDROOT
BRANCH  12  14
ATOM     14  C   UNL     1      88.968  70.244  86.812  0.00  0.00    +0.000 C 
ATOM     15  C   UNL     1      89.893  70.643  85.653  0.00  0.00    +0.000 C 
BRANCH  14  16
ATOM     16  C   UNL     1      87.579  70.897  86.764  0.00  0.00    +0.000 A 
ATOM     17  C   UNL     1      86.964  71.299  85.568  0.00  0.00    +0.000 A 
ATOM     18  C   UNL     1      85.693  71.881  85.572  0.00  0.00    +0.000 A 
ATOM     19  C   UNL     1      85.011  72.072  86.771  0.00  0.00    +0.000 A 
ATOM     20  C   UNL     1      85.600  71.682  87.969  0.00  0.00    +0.000 A 
ATOM     21  C   UNL     1      86.870  71.102  87.966  0.00  0.00    +0.000 A 
ENDBRANCH  14  16
BRANCH  14  22
ATOM     22  O   UNL     1      89.619  70.767  87.993  0.00  0.00    +0.000 OA
ATOM     23  H   UNL     1      90.494  71.112  87.754  0.00  0.00    +0.000 HD
ENDBRANCH  14  22
ENDBRANCH  12  14
TORSDOF 3
ENDMDL
