MODEL 1
REMARK VINA RESULT:      -5.2      0.000      0.000
REMARK  Name = *****
REMARK  3 active torsions:
REMARK  status: ('A' for Active; 'I' for Inactive)
REMARK    1  A    between atoms: C_1  and  O_2
REMARK    2  A    between atoms: O_2  and  N_3
REMARK    3  A    between atoms: C_6  and  C_14
REMARK                            x       y       z     vdW  Elec       q    Type
REMARK                         _______ _______ _______ _____ _____    ______ ____
ROOT
ATOM      1  N   UNL     1     103.864 123.489  84.336  0.00  0.00    +0.000 NA
ATOM      2  C   UNL     1     103.517 124.408  83.483  0.00  0.00    +0.000 C 
ATOM      3  C   UNL     1     102.589 125.561  83.798  0.00  0.00    +0.000 C 
ATOM      4  C   UNL     1     101.837 125.933  82.526  0.00  0.00    +0.000 C 
ATOM      5  O   UNL     1     102.744 126.334  81.487  0.00  0.00    +0.000 OA
ATOM      6  C   UNL     1     103.681 125.376  81.205  0.00  0.00    +0.000 A 
ATOM      7  C   UNL     1     104.261 125.433  79.938  0.00  0.00    +0.000 A 
ATOM      8  C   UNL     1     105.221 124.491  79.566  0.00  0.00    +0.000 A 
ATOM      9  C   UNL     1     105.611 123.497  80.465  0.00  0.00    +0.000 A 
ATOM     10  C   UNL     1     105.048 123.451  81.742  0.00  0.00    +0.000 A 
ATOM     11  C   UNL     1     104.086 124.397  82.115  0.00  0.00    +0.000 A 
ENDROOT
BRANCH   4  12
ATOM     12  C   UNL     1     100.864 127.069  82.795  0.00  0.00    +0.000 A 
ATOM     13  C   UNL     1     101.281 128.260  83.409  0.00  0.00    +0.000 A 
ATOM     14  C   UNL     1     100.369 129.283  83.673  0.00  0.00    +0.000 A 
ATOM     15  C   UNL     1      99.027 129.126  83.334  0.00  0.00    +0.000 A 
ATOM     16  C   UNL     1      98.596 127.946  82.731  0.00  0.00    +0.000 A 
ATOM     17  C   UNL     1      99.507 126.922  82.465  0.00  0.00    +0.000 A 
ENDBRANCH   4  12
BRANCH   1  19
ATOM     18  C   UNL     1     104.016 122.978  86.563  0.00  0.00    +0.000 C 
ATOM     19  O   UNL     1     103.266 123.690  85.586  0.00  0.00    +0.000 OA
ENDBRANCH   1  19
TORSDOF 2
ENDMDL
