REMARK  Name = *****
REMARK  5 active torsions:
REMARK  status: ('A' for Active; 'I' for Inactive)
REMARK    1  A    between atoms: C_4  and  C_7
REMARK    2  A    between atoms: C_7  and  C_8
REMARK    3  A    between atoms: C_7  and  O_18
REMARK    4  A    between atoms: C_8  and  S_9
REMARK    5  A    between atoms: S_9  and  C_11
REMARK                            x       y       z     vdW  Elec       q    Type
REMARK                         _______ _______ _______ _____ _____    ______ ____
ROOT
ATOM      1  C   UNL     1       1.674  -3.177   1.356  0.00  0.00    +0.000 C 
ATOM      2 CL   UNL     1       3.174  -2.192   1.336  0.00  0.00    +0.000 Cl
ENDROOT
BRANCH   1   3
ATOM      3  S   UNL     1       2.029  -4.987   1.276  0.00  0.00    +0.000 S 
ATOM      4  O   UNL     1       3.050  -5.230   0.202  0.00  0.00    +0.000 OA
BRANCH   3   5
ATOM      5  C   UNL     1       2.888  -5.155   2.855  0.00  0.00    +0.000 A 
ATOM      6  C   UNL     1       2.152  -5.163   4.046  0.00  0.00    +0.000 A 
ATOM      7  C   UNL     1       2.803  -5.298   5.274  0.00  0.00    +0.000 A 
ATOM      8  C   UNL     1       4.190  -5.435   5.317  0.00  0.00    +0.000 A 
ATOM      9  C   UNL     1       4.927  -5.441   4.134  0.00  0.00    +0.000 A 
ATOM     10  C   UNL     1       4.278  -5.306   2.905  0.00  0.00    +0.000 A 
ENDBRANCH   3   5
ENDBRANCH   1   3
BRANCH   1  11
ATOM     11  C   UNL     1       0.731  -2.814   0.181  0.00  0.00    +0.000 C 
BRANCH  11  15
ATOM     12  C   UNL     1       0.104   1.537   0.031  0.00  0.00    +0.000 C 
ATOM     13  C   UNL     1      -0.849   0.716   0.891  0.00  0.00    +0.000 C 
ATOM     14  C   UNL     1      -0.249  -0.652   1.227  0.00  0.00    +0.000 C 
ATOM     15  C   UNL     1       0.405  -1.334   0.043  0.00  0.00    +0.000 C 
ATOM     16  C   UNL     1       0.686  -0.657  -1.087  0.00  0.00    +0.000 C 
ATOM     17  C   UNL     1       0.427   0.811  -1.274  0.00  0.00    +0.000 C 
ENDBRANCH  11  15
BRANCH  11  18
ATOM     18  O   UNL     1      -0.532  -3.480   0.351  0.00  0.00    +0.000 OA
ATOM     19  H   UNL     1      -0.963  -3.156   1.157  0.00  0.00    +0.000 HD
ENDBRANCH  11  18
ENDBRANCH   1  11
TORSDOF 5
