REMARK  Name = *****
REMARK  7 active torsions:
REMARK  status: ('A' for Active; 'I' for Inactive)
REMARK    1  A    between atoms: C_1  and  C_2
REMARK    2  A    between atoms: N_4  and  C_21
REMARK    3  A    between atoms: C_6  and  C_7
REMARK    4  A    between atoms: C_7  and  N_8
REMARK    5  A    between atoms: N_8  and  C_9
REMARK    6  A    between atoms: N_8  and  S_10
REMARK    7  A    between atoms: S_10  and  C_13
REMARK                            x       y       z     vdW  Elec       q    Type
REMARK                         _______ _______ _______ _____ _____    ______ ____
ROOT
ATOM      1  N   UNL     1       2.030   3.109   0.442  0.00  0.00    +0.000 NA
ATOM      2  C   UNL     1       1.622   2.774   1.829  0.00  0.00    +0.000 C 
ENDROOT
BRANCH   1   3
ATOM      3  S   UNL     1       1.668   4.733   0.036  0.00  0.00    +0.000 S 
ATOM      4  O   UNL     1       0.293   5.004   0.393  0.00  0.00    +0.000 OA
ATOM      5  O   UNL     1       2.751   5.549   0.545  0.00  0.00    +0.000 OA
BRANCH   3   6
ATOM      6  C   UNL     1       1.749   4.733  -1.739  0.00  0.00    +0.000 A 
ATOM      7  C   UNL     1       0.783   4.019  -2.459  0.00  0.00    +0.000 A 
ATOM      8  C   UNL     1       0.828   4.020  -3.853  0.00  0.00    +0.000 A 
ATOM      9  C   UNL     1       1.827   4.737  -4.507  0.00  0.00    +0.000 A 
ATOM     10  C   UNL     1       2.781   5.459  -3.795  0.00  0.00    +0.000 A 
ATOM     11  C   UNL     1       2.744   5.464  -2.400  0.00  0.00    +0.000 A 
ATOM     12  F   UNL     1       1.868   4.735  -5.846  0.00  0.00    +0.000 F 
ENDBRANCH   3   6
ENDBRANCH   1   3
BRANCH   1  13
ATOM     13  C   UNL     1       3.442   2.733   0.156  0.00  0.00    +0.000 C 
BRANCH  13  19
ATOM     14  C   UNL     1       5.001   0.763   2.226  0.00  0.00    +0.000 C 
ATOM     15  C   UNL     1       4.268   0.391   0.988  0.00  0.00    +0.000 A 
ATOM     16  N   UNL     1       4.204  -0.894   0.614  0.00  0.00    +0.000 NA
ATOM     17  N   UNL     1       3.486  -0.870  -0.528  0.00  0.00    +0.000 N 
ATOM     18  C   UNL     1       3.112   0.390  -0.880  0.00  0.00    +0.000 A 
ATOM     19  C   UNL     1       3.580   1.252   0.082  0.00  0.00    +0.000 A 
ATOM     20 CL   UNL     1       2.225   0.671  -2.305  0.00  0.00    +0.000 Cl
ATOM     21  C   UNL     1       3.216  -2.108  -1.219  0.00  0.00    +0.000 C 
ENDBRANCH  13  19
ENDBRANCH   1  13
TORSDOF 4
