MODEL 1
REMARK VINA RESULT:      -5.0      0.000      0.000
REMARK  Name = *****
REMARK  5 active torsions:
REMARK  status: ('A' for Active; 'I' for Inactive)
REMARK    1  A    between atoms: C_1  and  C_2
REMARK    2  A    between atoms: C_3  and  C_19
REMARK    3  A    between atoms: C_4  and  O_8
REMARK    4  A    between atoms: O_8  and  C_9
REMARK    5  A    between atoms: C_9  and  C_10
REMARK                            x       y       z     vdW  Elec       q    Type
REMARK                         _______ _______ _______ _____ _____    ______ ____
ROOT
ATOM      1  C   UNL     1     103.300 126.922  81.829  0.00  0.00    +0.000 C 
ENDROOT
BRANCH   1   2
ATOM      2  C   UNL     1     103.768 125.496  81.803  0.00  0.00    +0.000 A 
ATOM      3  N   UNL     1     103.814 124.710  82.860  0.00  0.00    +0.000 NA
ATOM      4  C   UNL     1     104.279 123.457  82.499  0.00  0.00    +0.000 A 
ATOM      5  C   UNL     1     104.473 122.365  83.369  0.00  0.00    +0.000 A 
ATOM      6  C   UNL     1     104.947 121.148  82.867  0.00  0.00    +0.000 A 
ATOM      7  C   UNL     1     105.228 121.008  81.511  0.00  0.00    +0.000 A 
ATOM      8  C   UNL     1     105.043 122.075  80.627  0.00  0.00    +0.000 A 
ATOM      9  C   UNL     1     104.567 123.292  81.142  0.00  0.00    +0.000 A 
ATOM     10  S   UNL     1     104.239 124.767  80.318  0.00  0.00    +0.000 S 
ENDBRANCH   1   2
BRANCH   1  11
ATOM     11  O   UNL     1     102.633 127.130  83.074  0.00  0.00    +0.000 OA
BRANCH  11  15
ATOM     12  C   UNL     1      99.322 130.583  84.179  0.00  0.00    +0.000 C 
ATOM     13  C   UNL     1      99.693 129.248  83.592  0.00  0.00    +0.000 A 
ATOM     14  C   UNL     1     101.018 128.756  83.631  0.00  0.00    +0.000 A 
ATOM     15  C   UNL     1     101.316 127.511  83.035  0.00  0.00    +0.000 A 
ATOM     16  C   UNL     1     100.293 126.750  82.461  0.00  0.00    +0.000 A 
ATOM     17  C   UNL     1      98.983 127.224  82.453  0.00  0.00    +0.000 A 
ATOM     18  C   UNL     1      98.685 128.464  83.011  0.00  0.00    +0.000 A 
ATOM     19  C   UNL     1     102.127 129.578  84.241  0.00  0.00    +0.000 C 
ENDBRANCH  11  15
ENDBRANCH   1  11
TORSDOF 3
ENDMDL
