REMARK  Name = *****
REMARK  2 active torsions:
REMARK  status: ('A' for Active; 'I' for Inactive)
REMARK    1  A    between atoms: C_2  and  C_12
REMARK    2  A    between atoms: C_15  and  C_18
REMARK                            x       y       z     vdW  Elec       q    Type
REMARK                         _______ _______ _______ _____ _____    ______ ____
ROOT
ATOM      1  C   UNL     1      -2.288   0.254  -0.409  0.00  0.00    +0.000 C 
ATOM      2  C   UNL     1      -1.768   1.410   0.439  0.00  0.00    +0.000 C 
ATOM      3  O   UNL     1      -0.465   1.826  -0.019  0.00  0.00    +0.000 OA
ATOM      4  C   UNL     1       0.451   0.811  -0.106  0.00  0.00    +0.000 A 
ATOM      5  C   UNL     1       1.796   1.180  -0.074  0.00  0.00    +0.000 A 
ATOM      6  C   UNL     1       2.789   0.201  -0.144  0.00  0.00    +0.000 A 
ATOM      7  C   UNL     1       2.441  -1.146  -0.255  0.00  0.00    +0.000 A 
ATOM      8  C   UNL     1       1.097  -1.517  -0.307  0.00  0.00    +0.000 A 
ATOM      9  C   UNL     1       0.107  -0.533  -0.240  0.00  0.00    +0.000 A 
ATOM     10  C   UNL     1      -1.318  -0.892  -0.350  0.00  0.00    +0.000 C 
ATOM     11  O   UNL     1      -1.676  -2.060  -0.448  0.00  0.00    +0.000 OA
ENDROOT
BRANCH   2  12
ATOM     12  C   UNL     1      -1.778   1.264   1.960  0.00  0.00    +0.000 A 
ATOM     13  C   UNL     1      -2.327   0.160   2.626  0.00  0.00    +0.000 A 
ATOM     14  C   UNL     1      -2.315   0.089   4.025  0.00  0.00    +0.000 A 
ATOM     15  C   UNL     1      -1.762   1.123   4.793  0.00  0.00    +0.000 A 
ATOM     16  C   UNL     1      -1.223   2.234   4.138  0.00  0.00    +0.000 A 
ATOM     17  C   UNL     1      -1.236   2.302   2.740  0.00  0.00    +0.000 A 
BRANCH  15  18
ATOM     18  C   UNL     1      -1.770   1.003   6.288  0.00  0.00    +0.000 C 
ATOM     19  O   UNL     1      -2.295   0.000   6.772  0.00  0.00    +0.000 OA
ATOM     20 CL   UNL     1      -1.052   2.265   7.269  0.00  0.00    +0.000 Cl
ENDBRANCH  15  18
ENDBRANCH   2  12
TORSDOF 2
