MODEL 1
REMARK VINA RESULT:      -5.4      0.000      0.000
REMARK  Name = *****
REMARK  1 active torsions:
REMARK  status: ('A' for Active; 'I' for Inactive)
REMARK    1  A    between atoms: C_2  and  C_13
REMARK                            x       y       z     vdW  Elec       q    Type
REMARK                         _______ _______ _______ _____ _____    ______ ____
ROOT
ATOM      1  C   UNL     1     102.573 125.573  83.802  0.00  0.00    +0.000 C 
ATOM      2  C   UNL     1     101.825 125.917  82.521  0.00  0.00    +0.000 C 
ATOM      3  O   UNL     1     102.733 126.337  81.488  0.00  0.00    +0.000 OA
ATOM      4  C   UNL     1     103.718 125.421  81.232  0.00  0.00    +0.000 A 
ATOM      5  C   UNL     1     104.139 124.462  82.155  0.00  0.00    +0.000 A 
ATOM      6  C   UNL     1     103.529 124.455  83.498  0.00  0.00    +0.000 C 
ATOM      7  O   UNL     1     103.844 123.611  84.329  0.00  0.00    +0.000 OA
ATOM      8  C   UNL     1     105.149 123.553  81.829  0.00  0.00    +0.000 A 
ATOM      9  C   UNL     1     105.744 123.624  80.571  0.00  0.00    +0.000 A 
ATOM     10  C   UNL     1     105.345 124.595  79.650  0.00  0.00    +0.000 A 
ATOM     11  C   UNL     1     104.334 125.498  79.984  0.00  0.00    +0.000 A 
ATOM     12 CL   UNL     1     106.993 122.517  80.153  0.00  0.00    +0.000 Cl
ENDROOT
BRANCH   2  13
ATOM     13  C   UNL     1     100.824 127.030  82.775  0.00  0.00    +0.000 A 
ATOM     14  C   UNL     1     101.203 128.227  83.403  0.00  0.00    +0.000 A 
ATOM     15  C   UNL     1     100.260 129.226  83.648  0.00  0.00    +0.000 A 
ATOM     16  C   UNL     1      98.930 129.046  83.280  0.00  0.00    +0.000 A 
ATOM     17  C   UNL     1      98.537 127.860  82.662  0.00  0.00    +0.000 A 
ATOM     18  C   UNL     1      99.478 126.857  82.413  0.00  0.00    +0.000 A 
ATOM     19 CL   UNL     1     100.745 130.688  84.414  0.00  0.00    +0.000 Cl
ENDBRANCH   2  13
TORSDOF 1
ENDMDL
