REMARK  Name = *****
REMARK  3 active torsions:
REMARK  status: ('A' for Active; 'I' for Inactive)
REMARK    1  A    between atoms: C_10  and  C_11
REMARK    2  A    between atoms: C_11  and  C_12
REMARK    3  A    between atoms: C_11  and  O_17
REMARK                            x       y       z     vdW  Elec       q    Type
REMARK                         _______ _______ _______ _____ _____    ______ ____
ROOT
ATOM      1  C   UNL     1       2.440  -0.631  -0.244  0.00  0.00    +0.000 A 
ATOM      2  C   UNL     1       2.394   0.755  -0.266  0.00  0.00    +0.000 A 
ATOM      3  C   UNL     1       1.164   1.414  -0.178  0.00  0.00    +0.000 A 
ATOM      4  C   UNL     1      -0.059   0.709  -0.066  0.00  0.00    +0.000 A 
ATOM      5  C   UNL     1       0.013  -0.709  -0.048  0.00  0.00    +0.000 A 
ATOM      6  C   UNL     1       1.257  -1.357  -0.136  0.00  0.00    +0.000 A 
ATOM      7  C   UNL     1      -1.158  -1.471   0.056  0.00  0.00    +0.000 A 
ATOM      8  C   UNL     1      -2.403  -0.859   0.141  0.00  0.00    +0.000 A 
ATOM      9  C   UNL     1      -2.493   0.528   0.126  0.00  0.00    +0.000 A 
ATOM     10  C   UNL     1      -1.340   1.335   0.028  0.00  0.00    +0.000 A 
ENDROOT
BRANCH  10  11
ATOM     11  C   UNL     1      -1.492   2.853   0.000  0.00  0.00    +0.000 C 
BRANCH  11  12
ATOM     12  C   UNL     1      -1.381   3.447  -1.381  0.00  0.00    +0.000 A 
ATOM     13  C   UNL     1      -1.908   2.990  -2.576  0.00  0.00    +0.000 A 
ATOM     14  C   UNL     1      -1.595   3.842  -3.674  0.00  0.00    +0.000 A 
ATOM     15  C   UNL     1      -0.848   4.931  -3.285  0.00  0.00    +0.000 A 
ATOM     16  S   UNL     1      -0.532   4.925  -1.606  0.00  0.00    +0.000 S 
ENDBRANCH  11  12
BRANCH  11  17
ATOM     17  O   UNL     1      -2.773   3.256   0.497  0.00  0.00    +0.000 OA
ATOM     18  H   UNL     1      -3.469   2.915  -0.086  0.00  0.00    +0.000 HD
ENDBRANCH  11  17
ENDBRANCH  10  11
TORSDOF 3
