MODEL 1
REMARK VINA RESULT:      -5.1      0.000      0.000
REMARK  Name = *****
REMARK  4 active torsions:
REMARK  status: ('A' for Active; 'I' for Inactive)
REMARK    1  A    between atoms: C_1  and  C_2
REMARK    2  A    between atoms: C_2  and  C_21
REMARK    3  A    between atoms: C_12  and  C_13
REMARK    4  A    between atoms: C_12  and  O_20
REMARK                            x       y       z     vdW  Elec       q    Type
REMARK                         _______ _______ _______ _____ _____    ______ ____
ROOT
ATOM      1  C   UNL     1      84.783  63.573  87.748  0.00  0.00    +0.000 C 
ATOM      2  C   UNL     1      86.021  64.150  87.036  0.00  0.00    +0.000 C 
ATOM      3  C   UNL     1      86.012  65.669  87.047  0.00  0.00    +0.000 C 
ATOM      4  O   UNL     1      84.989  66.335  87.174  0.00  0.00    +0.000 OA
ATOM      5  C   UNL     1      87.311  66.341  86.837  0.00  0.00    +0.000 A 
ATOM      6  C   UNL     1      87.374  67.728  86.665  0.00  0.00    +0.000 A 
ATOM      7  C   UNL     1      88.605  68.338  86.429  0.00  0.00    +0.000 A 
ATOM      8  C   UNL     1      89.766  67.567  86.360  0.00  0.00    +0.000 A 
ATOM      9  C   UNL     1      89.699  66.183  86.536  0.00  0.00    +0.000 A 
ATOM     10  C   UNL     1      88.472  65.571  86.791  0.00  0.00    +0.000 A 
ATOM     11  O   UNL     1      88.491  64.213  86.959  0.00  0.00    +0.000 OA
ATOM     12  C   UNL     1      87.361  63.679  87.678  0.00  0.00    +0.000 C 
ATOM     13  C   UNL     1      85.915  63.728  85.547  0.00  0.00    +0.000 C 
ENDROOT
BRANCH  12  14
ATOM     14  C   UNL     1      87.635  63.891  89.179  0.00  0.00    +0.000 A 
ATOM     15  C   UNL     1      86.681  64.360  90.102  0.00  0.00    +0.000 A 
ATOM     16  C   UNL     1      87.015  64.569  91.445  0.00  0.00    +0.000 A 
ATOM     17  C   UNL     1      88.308  64.324  91.885  0.00  0.00    +0.000 A 
ATOM     18  C   UNL     1      89.279  63.876  91.004  0.00  0.00    +0.000 A 
ATOM     19  C   UNL     1      88.945  63.667  89.664  0.00  0.00    +0.000 A 
ATOM     20  F   UNL     1      88.622  64.528  93.170  0.00  0.00    +0.000 F 
ENDBRANCH  12  14
BRANCH  12  21
ATOM     21  O   UNL     1      87.433  62.256  87.488  0.00  0.00    +0.000 OA
ATOM     22  H   UNL     1      87.131  62.033  86.594  0.00  0.00    +0.000 HD
ENDBRANCH  12  21
TORSDOF 2
ENDMDL
