REMARK  Name = *****
REMARK  2 active torsions:
REMARK  status: ('A' for Active; 'I' for Inactive)
REMARK    1  A    between atoms: C_1  and  C_2
REMARK    2  A    between atoms: C_3  and  C_11
REMARK                            x       y       z     vdW  Elec       q    Type
REMARK                         _______ _______ _______ _____ _____    ______ ____
ROOT
ATOM      1  C   UNL     1       3.041  -0.418  -1.932  0.00  0.00    +0.000 C 
ATOM      2  C   UNL     1       2.479  -0.162  -0.535  0.00  0.00    +0.000 C 
ATOM      3  C   UNL     1       3.239   0.890   0.316  0.00  0.00    +0.000 C 
ATOM      4  O   UNL     1       4.264   0.196   1.084  0.00  0.00    +0.000 OA
ATOM      5  C   UNL     1       3.755  -1.071   1.216  0.00  0.00    +0.000 A 
ATOM      6  C   UNL     1       4.233  -2.012   2.103  0.00  0.00    +0.000 A 
ATOM      7  C   UNL     1       3.615  -3.264   2.120  0.00  0.00    +0.000 A 
ATOM      8  C   UNL     1       2.550  -3.547   1.248  0.00  0.00    +0.000 A 
ATOM      9  C   UNL     1       2.092  -2.583   0.345  0.00  0.00    +0.000 A 
ATOM     10  C   UNL     1       2.709  -1.344   0.344  0.00  0.00    +0.000 A 
ENDROOT
BRANCH   3  11
ATOM     11  C   UNL     1       3.802   2.069  -0.450  0.00  0.00    +0.000 A 
ATOM     12  C   UNL     1       2.945   3.104  -0.859  0.00  0.00    +0.000 A 
ATOM     13  C   UNL     1       3.437   4.191  -1.583  0.00  0.00    +0.000 A 
ATOM     14  C   UNL     1       4.789   4.257  -1.911  0.00  0.00    +0.000 A 
ATOM     15  C   UNL     1       5.650   3.236  -1.515  0.00  0.00    +0.000 A 
ATOM     16  C   UNL     1       5.160   2.148  -0.790  0.00  0.00    +0.000 A 
ENDBRANCH   3  11
TORSDOF 1
