MODEL 1
REMARK VINA RESULT:      -5.6      0.000      0.000
REMARK  Name = *****
REMARK  3 active torsions:
REMARK  status: ('A' for Active; 'I' for Inactive)
REMARK    1  A    between atoms: C_1  and  C_2
REMARK    2  A    between atoms: C_5  and  C_8
REMARK    3  A    between atoms: C_16  and  C_19
REMARK                            x       y       z     vdW  Elec       q    Type
REMARK                         _______ _______ _______ _____ _____    ______ ____
ROOT
ATOM      1  C   UNL     1     101.859 126.953  82.113  0.00  0.00    +0.000 C 
ATOM      2  C   UNL     1     100.470 126.340  82.224  0.00  0.00    +0.000 C 
ATOM      3  C   UNL     1      99.499 127.439  82.550  0.00  0.00    +0.000 C 
ATOM      4  O   UNL     1      98.328 127.412  82.188  0.00  0.00    +0.000 OA
ATOM      5  C   UNL     1     100.008 128.531  83.402  0.00  0.00    +0.000 A 
ATOM      6  C   UNL     1     101.353 128.524  83.770  0.00  0.00    +0.000 A 
ATOM      7  O   UNL     1     102.249 127.578  83.348  0.00  0.00    +0.000 OA
ATOM      8  C   UNL     1     101.841 129.507  84.633  0.00  0.00    +0.000 A 
ATOM      9  C   UNL     1     100.991 130.512  85.114  0.00  0.00    +0.000 A 
ATOM     10  C   UNL     1      99.649 130.528  84.709  0.00  0.00    +0.000 A 
ATOM     11  C   UNL     1      99.154 129.536  83.860  0.00  0.00    +0.000 A 
ATOM     12  C   UNL     1     101.524 131.594  86.007  0.00  0.00    +0.000 C 
ENDROOT
BRANCH   1  17
ATOM     13  C   UNL     1     105.724 122.816  80.681  0.00  0.00    +0.000 C 
ATOM     14  C   UNL     1     104.758 123.897  81.064  0.00  0.00    +0.000 A 
ATOM     15  C   UNL     1     104.330 124.833  80.115  0.00  0.00    +0.000 A 
ATOM     16  C   UNL     1     103.406 125.822  80.461  0.00  0.00    +0.000 A 
ATOM     17  C   UNL     1     102.884 125.890  81.760  0.00  0.00    +0.000 A 
ATOM     18  C   UNL     1     103.300 124.937  82.701  0.00  0.00    +0.000 A 
ATOM     19  C   UNL     1     104.225 123.949  82.355  0.00  0.00    +0.000 A 
ENDBRANCH   1  17
TORSDOF 1
ENDMDL
