MODEL 1
REMARK VINA RESULT:      -5.7      0.000      0.000
REMARK  Name = *****
REMARK  3 active torsions:
REMARK  status: ('A' for Active; 'I' for Inactive)
REMARK    1  A    between atoms: C_1  and  C_2
REMARK    2  A    between atoms: C_5  and  C_8
REMARK    3  A    between atoms: C_17  and  C_19
REMARK                            x       y       z     vdW  Elec       q    Type
REMARK                         _______ _______ _______ _____ _____    ______ ____
ROOT
ATOM      1  C   UNL     1     101.926 126.964  82.123  0.00  0.00    +0.000 C 
ATOM      2  C   UNL     1     100.539 126.353  82.267  0.00  0.00    +0.000 C 
ATOM      3  C   UNL     1      99.577 127.454  82.613  0.00  0.00    +0.000 C 
ATOM      4  O   UNL     1      98.398 127.427  82.278  0.00  0.00    +0.000 OA
ATOM      5  C   UNL     1     100.107 128.546  83.452  0.00  0.00    +0.000 A 
ATOM      6  C   UNL     1     101.460 128.537  83.791  0.00  0.00    +0.000 A 
ATOM      7  O   UNL     1     102.344 127.590  83.348  0.00  0.00    +0.000 OA
ATOM      8  C   UNL     1     101.963 129.513  84.648  0.00  0.00    +0.000 A 
ATOM      9  C   UNL     1     101.121 130.516  85.136  0.00  0.00    +0.000 A 
ATOM     10  C   UNL     1      99.768 130.552  84.771  0.00  0.00    +0.000 A 
ATOM     11  C   UNL     1      99.260 129.549  83.936  0.00  0.00    +0.000 A 
ATOM     12  C   UNL     1      98.859 131.609  85.324  0.00  0.00    +0.000 C 
ENDROOT
BRANCH   1  17
ATOM     13  C   UNL     1     105.737 122.816  80.581  0.00  0.00    +0.000 C 
ATOM     14  C   UNL     1     104.785 123.901  80.990  0.00  0.00    +0.000 A 
ATOM     15  C   UNL     1     104.359 124.859  80.065  0.00  0.00    +0.000 A 
ATOM     16  C   UNL     1     103.448 125.850  80.437  0.00  0.00    +0.000 A 
ATOM     17  C   UNL     1     102.939 125.900  81.744  0.00  0.00    +0.000 A 
ATOM     18  C   UNL     1     103.353 124.924  82.661  0.00  0.00    +0.000 A 
ATOM     19  C   UNL     1     104.264 123.934  82.288  0.00  0.00    +0.000 A 
ENDBRANCH   1  17
TORSDOF 1
ENDMDL
