MODEL 1
REMARK VINA RESULT:      -4.8      0.000      0.000
REMARK  Name = *****
REMARK  3 active torsions:
REMARK  status: ('A' for Active; 'I' for Inactive)
REMARK    1  A    between atoms: C_1  and  C_2
REMARK    2  A    between atoms: C_9  and  C_13
REMARK    3  A    between atoms: C_9  and  C_18
REMARK                            x       y       z     vdW  Elec       q    Type
REMARK                         _______ _______ _______ _____ _____    ______ ____
ROOT
ATOM      1  C   UNL     1      89.394  70.306  86.807  0.00  0.00    +0.000 C 
ATOM      2  C   UNL     1      89.110  68.834  86.864  0.00  0.00    +0.000 A 
ATOM      3  C   UNL     1      87.852  68.368  87.265  0.00  0.00    +0.000 A 
ATOM      4  C   UNL     1      87.583  66.993  87.286  0.00  0.00    +0.000 A 
ATOM      5  C   UNL     1      88.557  66.086  86.903  0.00  0.00    +0.000 A 
ATOM      6  C   UNL     1      89.801  66.541  86.473  0.00  0.00    +0.000 A 
ATOM      7  C   UNL     1      90.077  67.909  86.453  0.00  0.00    +0.000 A 
ATOM      8  O   UNL     1      88.358  64.740  86.907  0.00  0.00    +0.000 OA
ATOM      9  C   UNL     1      87.262  64.304  87.735  0.00  0.00    +0.000 C 
ATOM     10  O   UNL     1      86.102  65.170  87.699  0.00  0.00    +0.000 OA
ATOM     11  C   UNL     1      86.250  66.507  87.658  0.00  0.00    +0.000 C 
ATOM     12  O   UNL     1      85.323  67.270  87.886  0.00  0.00    +0.000 OA
ENDROOT
BRANCH   9  13
ATOM     13  C   UNL     1      87.729  64.222  89.194  0.00  0.00    +0.000 A 
ATOM     14  C   UNL     1      88.999  63.936  89.677  0.00  0.00    +0.000 A 
ATOM     15  C   UNL     1      89.066  63.955  91.100  0.00  0.00    +0.000 A 
ATOM     16  C   UNL     1      87.853  64.265  91.669  0.00  0.00    +0.000 A 
ATOM     17  S   UNL     1      86.644  64.535  90.494  0.00  0.00    +0.000 S 
ENDBRANCH   9  13
BRANCH   9  18
ATOM     18  C   UNL     1      86.808  62.901  87.235  0.00  0.00    +0.000 C 
ATOM     19  F   UNL     1      87.085  61.915  88.122  0.00  0.00    +0.000 F 
ATOM     20  F   UNL     1      85.475  62.851  86.985  0.00  0.00    +0.000 F 
ATOM     21  F   UNL     1      87.436  62.569  86.076  0.00  0.00    +0.000 F 
ENDBRANCH   9  18
TORSDOF 2
ENDMDL
