MODEL 1
REMARK VINA RESULT:      -4.8      0.000      0.000
REMARK  Name = *****
REMARK  1 active torsions:
REMARK  status: ('A' for Active; 'I' for Inactive)
REMARK    1  A    between atoms: C_2  and  C_13
REMARK                            x       y       z     vdW  Elec       q    Type
REMARK                         _______ _______ _______ _____ _____    ______ ____
ROOT
ATOM      1  C   UNL     1      88.618  68.616  84.891  0.00  0.00    +0.000 C 
ATOM      2  C   UNL     1      87.942  69.876  84.364  0.00  0.00    +0.000 C 
ATOM      3  O   UNL     1      86.874  70.260  85.254  0.00  0.00    +0.000 OA
ATOM      4  C   UNL     1      87.264  70.451  86.557  0.00  0.00    +0.000 A 
ATOM      5  C   UNL     1      88.380  69.817  87.107  0.00  0.00    +0.000 A 
ATOM      6  C   UNL     1      89.148  68.873  86.272  0.00  0.00    +0.000 C 
ATOM      7  O   UNL     1      90.129  68.286  86.717  0.00  0.00    +0.000 OA
ATOM      8  C   UNL     1      88.751  70.041  88.437  0.00  0.00    +0.000 A 
ATOM      9  C   UNL     1      87.991  70.898  89.232  0.00  0.00    +0.000 A 
ATOM     10  C   UNL     1      86.862  71.522  88.698  0.00  0.00    +0.000 A 
ATOM     11  C   UNL     1      86.498  71.296  87.367  0.00  0.00    +0.000 A 
ATOM     12 CL   UNL     1      85.098  72.099  86.752  0.00  0.00    +0.000 Cl
ENDROOT
BRANCH   2  13
ATOM     13  C   UNL     1      88.814  71.078  84.010  0.00  0.00    +0.000 A 
ATOM     14  C   UNL     1      90.205  70.995  83.838  0.00  0.00    +0.000 A 
ATOM     15  C   UNL     1      90.952  72.127  83.498  0.00  0.00    +0.000 A 
ATOM     16  C   UNL     1      90.323  73.356  83.315  0.00  0.00    +0.000 A 
ATOM     17  C   UNL     1      88.944  73.456  83.468  0.00  0.00    +0.000 A 
ATOM     18  C   UNL     1      88.196  72.327  83.806  0.00  0.00    +0.000 A 
ENDBRANCH   2  13
TORSDOF 1
ENDMDL
