REMARK  Name = *****
REMARK  8 active torsions:
REMARK  status: ('A' for Active; 'I' for Inactive)
REMARK    1  A    between atoms: C_1  and  C_2
REMARK    2  A    between atoms: C_2  and  O_3
REMARK    3  A    between atoms: O_3  and  C_4
REMARK    4  A    between atoms: C_7  and  S_14
REMARK    5  A    between atoms: S_14  and  N_17
REMARK    6  A    between atoms: N_17  and  C_18
REMARK    7  A    between atoms: C_18  and  C_19
REMARK    8  A    between atoms: C_18  and  C_20
REMARK                            x       y       z     vdW  Elec       q    Type
REMARK                         _______ _______ _______ _____ _____    ______ ____
ROOT
ATOM      1  C   UNL     1       4.435  -1.231  -1.077  0.00  0.00    +0.000 A 
ATOM      2  C   UNL     1       5.308  -1.139   0.007  0.00  0.00    +0.000 A 
ATOM      3  C   UNL     1       6.681  -1.216  -0.195  0.00  0.00    +0.000 A 
ATOM      4  C   UNL     1       7.199  -1.391  -1.486  0.00  0.00    +0.000 A 
ATOM      5  C   UNL     1       6.345  -1.466  -2.620  0.00  0.00    +0.000 A 
ATOM      6  C   UNL     1       6.786  -1.606  -3.964  0.00  0.00    +0.000 A 
ATOM      7  C   UNL     1       5.897  -1.685  -5.038  0.00  0.00    +0.000 A 
ATOM      8  C   UNL     1       4.535  -1.623  -4.807  0.00  0.00    +0.000 A 
ATOM      9  C   UNL     1       4.067  -1.477  -3.504  0.00  0.00    +0.000 A 
ATOM     10  C   UNL     1       4.941  -1.392  -2.395  0.00  0.00    +0.000 A 
ENDROOT
BRANCH   4  11
ATOM     11  S   UNL     1       8.974  -1.511  -1.621  0.00  0.00    +0.000 S 
ATOM     12  O   UNL     1       9.410  -0.515  -2.575  0.00  0.00    +0.000 OA
ATOM     13  O   UNL     1       9.547  -1.572  -0.293  0.00  0.00    +0.000 OA
BRANCH  11  14
ATOM     14  N   UNL     1       9.229  -3.008  -2.350  0.00  0.00    +0.000 NA
ATOM     15  H   UNL     1      10.071  -2.916  -2.918  0.00  0.00    +0.000 HD
BRANCH  14  16
ATOM     16  C   UNL     1       9.401  -4.223  -1.532  0.00  0.00    +0.000 C 
ATOM     17  C   UNL     1       8.120  -4.594  -0.798  0.00  0.00    +0.000 C 
ATOM     18  C   UNL     1       9.808  -5.361  -2.469  0.00  0.00    +0.000 C 
ENDBRANCH  14  16
ENDBRANCH  11  14
ENDBRANCH   4  11
BRANCH   1  19
ATOM     19  O   UNL     1       3.066  -1.172  -0.956  0.00  0.00    +0.000 OA
BRANCH  19  21
ATOM     20  C   UNL     1       0.999  -0.956   0.206  0.00  0.00    +0.000 C 
ATOM     21  C   UNL     1       2.510  -0.995   0.345  0.00  0.00    +0.000 C 
ENDBRANCH  19  21
ENDBRANCH   1  19
TORSDOF 5
