MODEL 1
REMARK VINA RESULT:      -4.6      0.000      0.000
REMARK  Name = *****
REMARK  3 active torsions:
REMARK  status: ('A' for Active; 'I' for Inactive)
REMARK    1  A    between atoms: C_4  and  S_6
REMARK    2  A    between atoms: S_6  and  C_9
REMARK    3  A    between atoms: C_16  and  O_20
REMARK                            x       y       z     vdW  Elec       q    Type
REMARK                         _______ _______ _______ _____ _____    ______ ____
ROOT
ATOM      1  C   UNL     1      87.672  65.239  86.817  0.00  0.00    +0.000 A 
ATOM      2  C   UNL     1      88.987  65.098  86.276  0.00  0.00    +0.000 A 
ATOM      3  C   UNL     1      89.575  63.914  85.767  0.00  0.00    +0.000 A 
ATOM      4  C   UNL     1      90.873  63.910  85.264  0.00  0.00    +0.000 A 
ATOM      5  C   UNL     1      91.573  65.095  85.269  0.00  0.00    +0.000 A 
ATOM      6  N   UNL     1      91.066  66.253  85.738  0.00  0.00    +0.000 NA
ATOM      7  C   UNL     1      89.812  66.248  86.235  0.00  0.00    +0.000 A 
ATOM      8  C   UNL     1      89.327  67.454  86.724  0.00  0.00    +0.000 A 
ATOM      9  C   UNL     1      88.054  67.570  87.264  0.00  0.00    +0.000 A 
ATOM     10  C   UNL     1      87.221  66.467  87.319  0.00  0.00    +0.000 A 
ATOM     11  F   UNL     1      87.612  68.745  87.729  0.00  0.00    +0.000 F 
ENDROOT
BRANCH   1  12
ATOM     12  S   UNL     1      86.529  63.865  86.912  0.00  0.00    +0.000 S 
ATOM     13  O   UNL     1      86.528  63.216  85.615  0.00  0.00    +0.000 OA
ATOM     14  O   UNL     1      85.290  64.382  87.459  0.00  0.00    +0.000 OA
BRANCH  12  18
ATOM     15  C   UNL     1      86.817  63.600  90.315  0.00  0.00    +0.000 C 
ATOM     16  C   UNL     1      86.144  62.241  90.230  0.00  0.00    +0.000 C 
ATOM     17  C   UNL     1      86.254  61.813  88.767  0.00  0.00    +0.000 C 
ATOM     18  C   UNL     1      87.275  62.748  88.110  0.00  0.00    +0.000 C 
ATOM     19  C   UNL     1      87.914  63.519  89.266  0.00  0.00    +0.000 C 
ENDBRANCH  12  18
ENDBRANCH   1  12
BRANCH   8  20
ATOM     20  O   UNL     1      90.138  68.566  86.672  0.00  0.00    +0.000 OA
ATOM     21  H   UNL     1      90.110  69.132  85.926  0.00  0.00    +0.000 HD
ENDBRANCH   8  20
TORSDOF 3
ENDMDL
