MODEL 1
REMARK VINA RESULT:      -4.4      0.000      0.000
REMARK  Name = *****
REMARK  4 active torsions:
REMARK  status: ('A' for Active; 'I' for Inactive)
REMARK    1  A    between atoms: C_3  and  C_4
REMARK    2  A    between atoms: C_4  and  O_6
REMARK    3  A    between atoms: O_6  and  C_7
REMARK    4  A    between atoms: C_10  and  O_17
REMARK                            x       y       z     vdW  Elec       q    Type
REMARK                         _______ _______ _______ _____ _____    ______ ____
ROOT
ATOM      1  C   UNL     1      88.336  70.950  85.394  0.00  0.00    +0.000 A 
ATOM      2  C   UNL     1      89.455  70.436  86.055  0.00  0.00    +0.000 A 
ATOM      3  C   UNL     1      89.399  70.223  87.427  0.00  0.00    +0.000 A 
ATOM      4  C   UNL     1      88.232  70.543  88.126  0.00  0.00    +0.000 A 
ATOM      5  C   UNL     1      87.102  71.088  87.477  0.00  0.00    +0.000 A 
ATOM      6  C   UNL     1      85.924  71.430  88.175  0.00  0.00    +0.000 A 
ATOM      7  C   UNL     1      84.821  71.974  87.516  0.00  0.00    +0.000 A 
ATOM      8  C   UNL     1      84.872  72.188  86.145  0.00  0.00    +0.000 A 
ATOM      9  C   UNL     1      86.026  71.856  85.433  0.00  0.00    +0.000 A 
ATOM     10  C   UNL     1      87.153  71.303  86.080  0.00  0.00    +0.000 A 
ENDROOT
BRANCH   4  11
ATOM     11  O   UNL     1      88.186  70.330  89.481  0.00  0.00    +0.000 OA
ATOM     12  H   UNL     1      88.754  70.811  90.051  0.00  0.00    +0.000 HD
ENDBRANCH   4  11
BRANCH   1  13
ATOM     13  O   UNL     1      88.429  71.199  84.015  0.00  0.00    +0.000 OA
BRANCH  13  14
ATOM     14  C   UNL     1      89.326  72.200  83.679  0.00  0.00    +0.000 C 
ATOM     15  O   UNL     1      89.366  73.339  84.126  0.00  0.00    +0.000 OA
BRANCH  14  18
ATOM     16  C   UNL     1      90.591  70.244  82.516  0.00  0.00    +0.000 C 
ATOM     17  C   UNL     1      91.636  71.180  83.053  0.00  0.00    +0.000 C 
ATOM     18  C   UNL     1      90.283  71.718  82.647  0.00  0.00    +0.000 C 
ENDBRANCH  14  18
ENDBRANCH  13  14
ENDBRANCH   1  13
TORSDOF 4
ENDMDL
