MODEL 1
REMARK VINA RESULT:      -4.1      0.000      0.000
REMARK  Name = *****
REMARK  5 active torsions:
REMARK  status: ('A' for Active; 'I' for Inactive)
REMARK    1  A    between atoms: C_1  and  N_2
REMARK    2  A    between atoms: N_2  and  C_3
REMARK    3  A    between atoms: N_2  and  C_4
REMARK    4  A    between atoms: C_13  and  S_14
REMARK    5  A    between atoms: S_14  and  N_17
REMARK                            x       y       z     vdW  Elec       q    Type
REMARK                         _______ _______ _______ _____ _____    ______ ____
ROOT
ATOM      1  C   UNL     1      85.723  71.357  88.118  0.00  0.00    +0.000 A 
ATOM      2  C   UNL     1      84.718  71.921  87.320  0.00  0.00    +0.000 A 
ATOM      3  C   UNL     1      84.930  72.138  85.968  0.00  0.00    +0.000 A 
ATOM      4  C   UNL     1      86.153  71.797  85.391  0.00  0.00    +0.000 A 
ATOM      5  C   UNL     1      87.212  71.226  86.143  0.00  0.00    +0.000 A 
ATOM      6  C   UNL     1      86.976  71.009  87.531  0.00  0.00    +0.000 A 
ATOM      7  C   UNL     1      88.005  70.438  88.314  0.00  0.00    +0.000 A 
ATOM      8  C   UNL     1      89.242  70.088  87.782  0.00  0.00    +0.000 A 
ATOM      9  C   UNL     1      89.488  70.296  86.436  0.00  0.00    +0.000 A 
ATOM     10  C   UNL     1      88.488  70.849  85.617  0.00  0.00    +0.000 A 
ENDROOT
BRANCH   1  12
ATOM     11  C   UNL     1      84.604  70.058  89.826  0.00  0.00    +0.000 C 
ATOM     12  N   UNL     1      85.520  71.156  89.512  0.00  0.00    +0.000 N 
ATOM     13  C   UNL     1      85.204  72.419  90.185  0.00  0.00    +0.000 C 
ENDBRANCH   1  12
BRANCH  10  14
ATOM     14  S   UNL     1      88.916  71.083  83.899  0.00  0.00    +0.000 S 
ATOM     15  O   UNL     1      88.123  70.186  83.082  0.00  0.00    +0.000 OA
ATOM     16  O   UNL     1      88.984  72.505  83.621  0.00  0.00    +0.000 OA
BRANCH  14  17
ATOM     17  N   UNL     1      90.495  70.502  83.882  0.00  0.00    +0.000 NA
ATOM     18  O   UNL     1      90.692  69.614  83.042  0.00  0.00    +0.000 OA
ENDBRANCH  14  17
ENDBRANCH  10  14
TORSDOF 3
ENDMDL
