REMARK  Name = *****
REMARK  8 active torsions:
REMARK  status: ('A' for Active; 'I' for Inactive)
REMARK    1  A    between atoms: C_1  and  C_2
REMARK    2  A    between atoms: C_2  and  N_3
REMARK    3  A    between atoms: N_3  and  C_4
REMARK    4  A    between atoms: N_3  and  S_6
REMARK    5  A    between atoms: C_4  and  C_5
REMARK    6  A    between atoms: S_6  and  C_9
REMARK    7  A    between atoms: C_16  and  O_19
REMARK    8  A    between atoms: O_19  and  C_20
REMARK                            x       y       z     vdW  Elec       q    Type
REMARK                         _______ _______ _______ _____ _____    ______ ____
ROOT
ATOM      1  C   UNL     1       5.195  -0.095   2.777  0.00  0.00    +0.000 A 
ATOM      2  C   UNL     1       5.260  -1.374   3.364  0.00  0.00    +0.000 A 
ATOM      3  C   UNL     1       5.577  -1.518   4.706  0.00  0.00    +0.000 A 
ATOM      4  C   UNL     1       5.831  -0.386   5.470  0.00  0.00    +0.000 A 
ATOM      5  C   UNL     1       5.788   0.900   4.907  0.00  0.00    +0.000 A 
ATOM      6  C   UNL     1       5.479   1.082   3.531  0.00  0.00    +0.000 A 
ATOM      7  C   UNL     1       5.498   2.423   3.050  0.00  0.00    +0.000 A 
ATOM      8  C   UNL     1       5.765   3.518   3.879  0.00  0.00    +0.000 A 
ATOM      9  C   UNL     1       6.047   3.298   5.219  0.00  0.00    +0.000 A 
ATOM     10  C   UNL     1       6.063   2.003   5.728  0.00  0.00    +0.000 A 
ENDROOT
BRANCH   1  11
ATOM     11  S   UNL     1       4.721  -0.103   1.051  0.00  0.00    +0.000 S 
ATOM     12  O   UNL     1       5.708  -0.903   0.356  0.00  0.00    +0.000 OA
ATOM     13  O   UNL     1       4.379   1.227   0.593  0.00  0.00    +0.000 OA
BRANCH  11  14
ATOM     14  N   UNL     1       3.250  -0.982   1.086  0.00  0.00    +0.000 NA
BRANCH  14  16
ATOM     15  C   UNL     1       1.376  -1.304   2.649  0.00  0.00    +0.000 C 
ATOM     16  C   UNL     1       2.110  -0.309   1.766  0.00  0.00    +0.000 C 
ENDBRANCH  14  16
BRANCH  14  17
ATOM     17  C   UNL     1       2.887  -1.683  -0.176  0.00  0.00    +0.000 C 
ATOM     18  C   UNL     1       2.732  -0.757  -1.371  0.00  0.00    +0.000 C 
ENDBRANCH  14  17
ENDBRANCH  11  14
ENDBRANCH   1  11
BRANCH   8  19
ATOM     19  O   UNL     1       5.787   4.831   3.498  0.00  0.00    +0.000 OA
ATOM     20  C   UNL     1       5.427   5.122   2.152  0.00  0.00    +0.000 C 
ENDBRANCH   8  19
TORSDOF 5
