MODEL 1
REMARK VINA RESULT:      -4.2      0.000      0.000
REMARK  Name = *****
REMARK  7 active torsions:
REMARK  status: ('A' for Active; 'I' for Inactive)
REMARK    1  A    between atoms: C_1  and  N_2
REMARK    2  A    between atoms: N_2  and  C_3
REMARK    3  A    between atoms: N_2  and  C_4
REMARK    4  A    between atoms: C_13  and  S_14
REMARK    5  A    between atoms: S_14  and  N_17
REMARK    6  A    between atoms: N_17  and  C_18
REMARK    7  A    between atoms: N_17  and  C_19
REMARK                            x       y       z     vdW  Elec       q    Type
REMARK                         _______ _______ _______ _____ _____    ______ ____
ROOT
ATOM      1  C   UNL     1      86.368  71.487  89.517  0.00  0.00    +0.000 A 
ATOM      2  C   UNL     1      87.567  70.899  89.939  0.00  0.00    +0.000 A 
ATOM      3  C   UNL     1      88.482  70.424  89.014  0.00  0.00    +0.000 A 
ATOM      4  C   UNL     1      88.210  70.527  87.651  0.00  0.00    +0.000 A 
ATOM      5  C   UNL     1      87.017  71.111  87.149  0.00  0.00    +0.000 A 
ATOM      6  C   UNL     1      86.088  71.593  88.119  0.00  0.00    +0.000 A 
ATOM      7  C   UNL     1      84.885  72.186  87.675  0.00  0.00    +0.000 A 
ATOM      8  C   UNL     1      84.562  72.301  86.328  0.00  0.00    +0.000 A 
ATOM      9  C   UNL     1      85.452  71.834  85.377  0.00  0.00    +0.000 A 
ATOM     10  C   UNL     1      86.676  71.261  85.767  0.00  0.00    +0.000 A 
ENDROOT
BRANCH   1  12
ATOM     11  C   UNL     1      85.880  73.012  91.344  0.00  0.00    +0.000 C 
ATOM     12  N   UNL     1      85.407  71.943  90.465  0.00  0.00    +0.000 N 
ATOM     13  C   UNL     1      84.796  70.808  91.166  0.00  0.00    +0.000 C 
ENDBRANCH   1  12
BRANCH  10  14
ATOM     14  S   UNL     1      87.723  70.711  84.413  0.00  0.00    +0.000 S 
ATOM     15  O   UNL     1      88.089  69.326  84.616  0.00  0.00    +0.000 OA
ATOM     16  O   UNL     1      87.071  71.103  83.179  0.00  0.00    +0.000 OA
BRANCH  14  17
ATOM     17  N   UNL     1      89.120  71.675  84.574  0.00  0.00    +0.000 NA
ATOM     18  C   UNL     1      90.413  70.970  84.597  0.00  0.00    +0.000 C 
ATOM     19  C   UNL     1      89.164  72.937  83.821  0.00  0.00    +0.000 C 
ENDBRANCH  14  17
ENDBRANCH  10  14
TORSDOF 3
ENDMDL
