MODEL 1
REMARK VINA RESULT:      -4.3      0.000      0.000
REMARK  Name = *****
REMARK  4 active torsions:
REMARK  status: ('A' for Active; 'I' for Inactive)
REMARK    1  A    between atoms: C_1  and  C_2
REMARK    2  A    between atoms: C_2  and  N_3
REMARK    3  A    between atoms: N_3  and  S_4
REMARK    4  A    between atoms: S_4  and  C_7
REMARK                            x       y       z     vdW  Elec       q    Type
REMARK                         _______ _______ _______ _____ _____    ______ ____
ROOT
ATOM      1  C   UNL     1      88.777  64.949  86.645  0.00  0.00    +0.000 A 
ATOM      2  C   UNL     1      88.752  66.337  86.856  0.00  0.00    +0.000 A 
ATOM      3  C   UNL     1      89.796  67.136  86.376  0.00  0.00    +0.000 A 
ATOM      4  C   UNL     1      90.865  66.580  85.674  0.00  0.00    +0.000 A 
ATOM      5  C   UNL     1      90.855  65.212  85.454  0.00  0.00    +0.000 A 
ATOM      6  C   UNL     1      89.819  64.393  85.917  0.00  0.00    +0.000 A 
ATOM      7  N   UNL     1      90.089  63.023  85.673  0.00  0.00    +0.000 N 
ATOM      8  C   UNL     1      91.099  63.060  84.606  0.00  0.00    +0.000 C 
ATOM      9  C   UNL     1      91.884  64.373  84.770  0.00  0.00    +0.000 C 
ATOM     10 CL   UNL     1      89.763  68.834  86.661  0.00  0.00    +0.000 Cl
ATOM     11  H   UNL     1      89.693  62.235  86.113  0.00  0.00    +0.000 HD
ENDROOT
BRANCH   1  12
ATOM     12  S   UNL     1      87.420  63.971  87.217  0.00  0.00    +0.000 S 
ATOM     13  O   UNL     1      87.012  63.082  86.150  0.00  0.00    +0.000 OA
ATOM     14  O   UNL     1      86.471  64.865  87.848  0.00  0.00    +0.000 OA
BRANCH  12  15
ATOM     15  N   UNL     1      88.088  63.060  88.458  0.00  0.00    +0.000 NA
ATOM     16  H   UNL     1      87.739  62.108  88.347  0.00  0.00    +0.000 HD
BRANCH  15  18
ATOM     17  C   UNL     1      89.162  63.827  90.493  0.00  0.00    +0.000 C 
ATOM     18  C   UNL     1      87.842  63.444  89.848  0.00  0.00    +0.000 C 
ENDBRANCH  15  18
ENDBRANCH  12  15
ENDBRANCH   1  12
TORSDOF 3
ENDMDL
