MODEL 1
REMARK VINA RESULT:      -4.7      0.000      0.000
REMARK  Name = *****
REMARK  4 active torsions:
REMARK  status: ('A' for Active; 'I' for Inactive)
REMARK    1  A    between atoms: C_1  and  N_2
REMARK    2  A    between atoms: N_2  and  C_3
REMARK    3  A    between atoms: N_2  and  S_4
REMARK    4  A    between atoms: S_4  and  C_7
REMARK                            x       y       z     vdW  Elec       q    Type
REMARK                         _______ _______ _______ _____ _____    ______ ____
ROOT
ATOM      1  C   UNL     1     103.200 128.005  83.108  0.00  0.00    +0.000 A 
ATOM      2  C   UNL     1     101.911 128.509  83.461  0.00  0.00    +0.000 A 
ATOM      3  C   UNL     1     101.498 129.664  84.181  0.00  0.00    +0.000 A 
ATOM      4  C   UNL     1     100.132 129.954  84.390  0.00  0.00    +0.000 A 
ATOM      5  C   UNL     1      99.116 129.120  83.900  0.00  0.00    +0.000 A 
ATOM      6  C   UNL     1      99.522 127.989  83.201  0.00  0.00    +0.000 A 
ATOM      7  C   UNL     1     100.874 127.738  83.017  0.00  0.00    +0.000 A 
ATOM      8  C   UNL     1     100.997 126.563  82.308  0.00  0.00    +0.000 A 
ATOM      9  C   UNL     1     102.227 126.034  81.974  0.00  0.00    +0.000 A 
ATOM     10  C   UNL     1     103.340 126.781  82.394  0.00  0.00    +0.000 A 
ATOM     11  N   UNL     1      99.722 126.096  82.056  0.00  0.00    +0.000 N 
ATOM     12  C   UNL     1      98.737 126.938  82.585  0.00  0.00    +0.000 C 
ATOM     13  O   UNL     1      97.532 126.746  82.494  0.00  0.00    +0.000 OA
ATOM     14  H   UNL     1      99.529 125.267  81.560  0.00  0.00    +0.000 HD
ENDROOT
BRANCH   1  15
ATOM     15  S   UNL     1     104.707 128.839  83.585  0.00  0.00    +0.000 S 
ATOM     16  O   UNL     1     104.834 128.699  85.021  0.00  0.00    +0.000 OA
ATOM     17  O   UNL     1     104.726 130.151  82.977  0.00  0.00    +0.000 OA
BRANCH  15  19
ATOM     18  C   UNL     1     106.624 128.464  81.704  0.00  0.00    +0.000 C 
ATOM     19  N   UNL     1     105.925 127.891  82.866  0.00  0.00    +0.000 NA
ATOM     20  C   UNL     1     106.814 127.135  83.763  0.00  0.00    +0.000 C 
ENDBRANCH  15  19
ENDBRANCH   1  15
TORSDOF 2
ENDMDL
