MODEL 1
REMARK VINA RESULT:      -4.2      0.000      0.000
REMARK  Name = *****
REMARK  2 active torsions:
REMARK  status: ('A' for Active; 'I' for Inactive)
REMARK    1  A    between atoms: C_1  and  S_2
REMARK    2  A    between atoms: S_2  and  N_5
REMARK                            x       y       z     vdW  Elec       q    Type
REMARK                         _______ _______ _______ _____ _____    ______ ____
ROOT
ATOM      1  N   UNL     1      89.809  65.350  86.128  0.00  0.00    +0.000 N 
ATOM      2  C   UNL     1      88.995  64.152  86.466  0.00  0.00    +0.000 C 
ATOM      3  C   UNL     1      87.971  64.412  87.522  0.00  0.00    +0.000 C 
ATOM      4  C   UNL     1      87.599  65.629  87.926  0.00  0.00    +0.000 C 
ATOM      5  C   UNL     1      88.202  66.806  87.306  0.00  0.00    +0.000 A 
ATOM      6  C   UNL     1      87.693  68.068  87.651  0.00  0.00    +0.000 A 
ATOM      7  C   UNL     1      88.242  69.225  87.105  0.00  0.00    +0.000 A 
ATOM      8  C   UNL     1      89.314  69.121  86.220  0.00  0.00    +0.000 A 
ATOM      9  C   UNL     1      89.828  67.859  85.880  0.00  0.00    +0.000 A 
ATOM     10  C   UNL     1      89.269  66.679  86.389  0.00  0.00    +0.000 A 
ATOM     11 CL   UNL     1      90.057  70.510  85.506  0.00  0.00    +0.000 Cl
ATOM     12 CL   UNL     1      87.558  70.741  87.567  0.00  0.00    +0.000 Cl
ENDROOT
BRANCH   1  14
ATOM     13  C   UNL     1      90.985  63.263  84.869  0.00  0.00    +0.000 C 
ATOM     14  S   UNL     1      90.971  65.045  84.920  0.00  0.00    +0.000 S 
ATOM     15  O   UNL     1      92.265  65.461  85.424  0.00  0.00    +0.000 OA
ATOM     16  O   UNL     1      90.505  65.530  83.639  0.00  0.00    +0.000 OA
ENDBRANCH   1  14
TORSDOF 1
ENDMDL
