REMARK  Name = *****
REMARK  2 active torsions:
REMARK  status: ('A' for Active; 'I' for Inactive)
REMARK    1  A    between atoms: C_1  and  S_2
REMARK    2  A    between atoms: S_2  and  N_5
REMARK                            x       y       z     vdW  Elec       q    Type
REMARK                         _______ _______ _______ _____ _____    ______ ____
ROOT
ATOM      1  N   UNL     1       3.686   1.849  -0.342  0.00  0.00    +0.000 N 
ATOM      2  C   UNL     1       4.944   2.117   0.399  0.00  0.00    +0.000 C 
ATOM      3  C   UNL     1       4.661   2.899   1.675  0.00  0.00    +0.000 C 
ATOM      4  S   UNL     1       4.025   4.565   1.308  0.00  0.00    +0.000 S 
ATOM      5  C   UNL     1       2.989   4.231  -0.116  0.00  0.00    +0.000 A 
ATOM      6  C   UNL     1       2.935   2.997  -0.795  0.00  0.00    +0.000 A 
ATOM      7  C   UNL     1       2.140   2.874  -1.943  0.00  0.00    +0.000 A 
ATOM      8  C   UNL     1       1.393   3.957  -2.401  0.00  0.00    +0.000 A 
ATOM      9  C   UNL     1       1.431   5.175  -1.730  0.00  0.00    +0.000 A 
ATOM     10  C   UNL     1       2.230   5.311  -0.594  0.00  0.00    +0.000 A 
ATOM     11 CL   UNL     1       0.424   3.791  -3.813  0.00  0.00    +0.000 Cl
ENDROOT
BRANCH   1  13
ATOM     12  C   UNL     1       3.531  -0.723  -1.020  0.00  0.00    +0.000 C 
ATOM     13  S   UNL     1       2.820   0.448   0.115  0.00  0.00    +0.000 S 
ATOM     14  O   UNL     1       1.421   0.579  -0.230  0.00  0.00    +0.000 OA
ATOM     15  O   UNL     1       3.233   0.063   1.448  0.00  0.00    +0.000 OA
ENDBRANCH   1  13
TORSDOF 1
