MODEL 1
REMARK VINA RESULT:      -4.5      0.000      0.000
REMARK  Name = *****
REMARK  6 active torsions:
REMARK  status: ('A' for Active; 'I' for Inactive)
REMARK    1  A    between atoms: C_1  and  C_2
REMARK    2  A    between atoms: C_2  and  N_3
REMARK    3  A    between atoms: N_3  and  C_4
REMARK    4  A    between atoms: N_3  and  S_6
REMARK    5  A    between atoms: C_4  and  C_5
REMARK    6  A    between atoms: S_6  and  C_9
REMARK                            x       y       z     vdW  Elec       q    Type
REMARK                         _______ _______ _______ _____ _____    ______ ____
ROOT
ATOM      1  C   UNL     1      87.560  70.832  86.966  0.00  0.00    +0.000 A 
ATOM      2  C   UNL     1      88.598  70.456  87.834  0.00  0.00    +0.000 A 
ATOM      3  C   UNL     1      88.444  70.594  89.204  0.00  0.00    +0.000 A 
ATOM      4  C   UNL     1      87.257  71.115  89.718  0.00  0.00    +0.000 A 
ATOM      5  C   UNL     1      86.202  71.538  88.869  0.00  0.00    +0.000 A 
ATOM      6  C   UNL     1      85.002  72.092  89.379  0.00  0.00    +0.000 A 
ATOM      7  C   UNL     1      83.977  72.537  88.548  0.00  0.00    +0.000 A 
ATOM      8  C   UNL     1      84.130  72.451  87.177  0.00  0.00    +0.000 A 
ATOM      9  C   UNL     1      85.298  71.905  86.643  0.00  0.00    +0.000 A 
ATOM     10  C   UNL     1      86.354  71.413  87.456  0.00  0.00    +0.000 A 
ATOM     11 CL   UNL     1      87.161  71.228  91.448  0.00  0.00    +0.000 Cl
ENDROOT
BRANCH   1  12
ATOM     12  S   UNL     1      87.855  70.520  85.226  0.00  0.00    +0.000 S 
ATOM     13  O   UNL     1      87.833  71.811  84.573  0.00  0.00    +0.000 OA
ATOM     14  O   UNL     1      87.029  69.420  84.772  0.00  0.00    +0.000 OA
BRANCH  12  15
ATOM     15  N   UNL     1      89.467  69.928  85.196  0.00  0.00    +0.000 NA
BRANCH  15  17
ATOM     16  C   UNL     1      90.024  67.659  85.992  0.00  0.00    +0.000 C 
ATOM     17  C   UNL     1      89.619  68.501  84.794  0.00  0.00    +0.000 C 
ENDBRANCH  15  17
BRANCH  15  18
ATOM     18  C   UNL     1      90.470  70.848  84.586  0.00  0.00    +0.000 C 
ATOM     19  C   UNL     1      90.848  70.490  83.157  0.00  0.00    +0.000 C 
ENDBRANCH  15  18
ENDBRANCH  12  15
ENDBRANCH   1  12
TORSDOF 4
ENDMDL
