MODEL 1
REMARK VINA RESULT:      -4.7      0.000      0.000
REMARK  Name = *****
REMARK  3 active torsions:
REMARK  status: ('A' for Active; 'I' for Inactive)
REMARK    1  A    between atoms: C_4  and  S_6
REMARK    2  A    between atoms: S_6  and  C_9
REMARK    3  A    between atoms: C_16  and  O_19
REMARK                            x       y       z     vdW  Elec       q    Type
REMARK                         _______ _______ _______ _____ _____    ______ ____
ROOT
ATOM      1  C   UNL     1     102.953 125.579  82.715  0.00  0.00    +0.000 A 
ATOM      2  C   UNL     1     103.762 124.460  83.080  0.00  0.00    +0.000 A 
ATOM      3  C   UNL     1     103.976 123.951  84.386  0.00  0.00    +0.000 A 
ATOM      4  C   UNL     1     104.788 122.841  84.603  0.00  0.00    +0.000 A 
ATOM      5  C   UNL     1     105.378 122.247  83.511  0.00  0.00    +0.000 A 
ATOM      6  N   UNL     1     105.215 122.687  82.247  0.00  0.00    +0.000 NA
ATOM      7  C   UNL     1     104.434 123.770  82.046  0.00  0.00    +0.000 A 
ATOM      8  C   UNL     1     104.296 124.215  80.735  0.00  0.00    +0.000 A 
ATOM      9  C   UNL     1     103.527 125.315  80.384  0.00  0.00    +0.000 A 
ATOM     10  C   UNL     1     102.853 126.005  81.380  0.00  0.00    +0.000 A 
ENDROOT
BRANCH   1  11
ATOM     11  S   UNL     1     102.017 126.503  83.929  0.00  0.00    +0.000 S 
ATOM     12  O   UNL     1     102.960 127.291  84.703  0.00  0.00    +0.000 OA
ATOM     13  O   UNL     1     101.139 125.566  84.600  0.00  0.00    +0.000 OA
BRANCH  11  17
ATOM     14  C   UNL     1      98.655 127.874  83.450  0.00  0.00    +0.000 C 
ATOM     15  C   UNL     1      99.283 129.255  83.445  0.00  0.00    +0.000 C 
ATOM     16  C   UNL     1     100.761 128.966  83.672  0.00  0.00    +0.000 C 
ATOM     17  C   UNL     1     101.023 127.634  82.958  0.00  0.00    +0.000 C 
ATOM     18  C   UNL     1      99.641 127.041  82.644  0.00  0.00    +0.000 C 
ENDBRANCH  11  17
ENDBRANCH   1  11
BRANCH   8  19
ATOM     19  O   UNL     1     104.949 123.544  79.727  0.00  0.00    +0.000 OA
ATOM     20  H   UNL     1     105.660 123.953  79.276  0.00  0.00    +0.000 HD
ENDBRANCH   8  19
TORSDOF 3
ENDMDL
