MODEL 1
REMARK VINA RESULT:      -4.7      0.000      0.000
REMARK  Name = *****
REMARK  7 active torsions:
REMARK  status: ('A' for Active; 'I' for Inactive)
REMARK    1  A    between atoms: C_1  and  C_2
REMARK    2  A    between atoms: C_2  and  C_3
REMARK    3  A    between atoms: C_2  and  N_4
REMARK    4  A    between atoms: N_4  and  S_5
REMARK    5  A    between atoms: S_5  and  C_8
REMARK    6  A    between atoms: C_11  and  O_18
REMARK    7  A    between atoms: O_18  and  C_19
REMARK                            x       y       z     vdW  Elec       q    Type
REMARK                         _______ _______ _______ _____ _____    ______ ____
ROOT
ATOM      1  C   UNL     1      88.057  70.469  87.291  0.00  0.00    +0.000 A 
ATOM      2  C   UNL     1      88.408  70.332  88.641  0.00  0.00    +0.000 A 
ATOM      3  C   UNL     1      87.569  70.816  89.639  0.00  0.00    +0.000 A 
ATOM      4  C   UNL     1      86.372  71.447  89.300  0.00  0.00    +0.000 A 
ATOM      5  C   UNL     1      86.005  71.607  87.936  0.00  0.00    +0.000 A 
ATOM      6  C   UNL     1      84.798  72.250  87.579  0.00  0.00    +0.000 A 
ATOM      7  C   UNL     1      84.419  72.434  86.251  0.00  0.00    +0.000 A 
ATOM      8  C   UNL     1      85.247  71.980  85.239  0.00  0.00    +0.000 A 
ATOM      9  C   UNL     1      86.444  71.339  85.560  0.00  0.00    +0.000 A 
ATOM     10  C   UNL     1      86.858  71.125  86.903  0.00  0.00    +0.000 A 
ENDROOT
BRANCH   1  11
ATOM     11  S   UNL     1      89.194  69.778  86.102  0.00  0.00    +0.000 S 
ATOM     12  O   UNL     1      88.445  69.224  84.995  0.00  0.00    +0.000 OA
ATOM     13  O   UNL     1      90.153  68.975  86.829  0.00  0.00    +0.000 OA
BRANCH  11  14
ATOM     14  N   UNL     1      90.042  71.113  85.520  0.00  0.00    +0.000 NA
ATOM     15  H   UNL     1      89.715  71.920  86.049  0.00  0.00    +0.000 HD
BRANCH  14  17
ATOM     16  C   UNL     1      89.382  72.876  83.909  0.00  0.00    +0.000 C 
ATOM     17  C   UNL     1      89.971  71.485  84.095  0.00  0.00    +0.000 C 
ATOM     18  C   UNL     1      91.392  71.443  83.531  0.00  0.00    +0.000 C 
ENDBRANCH  14  17
ENDBRANCH  11  14
ENDBRANCH   1  11
BRANCH   4  19
ATOM     19  O   UNL     1      85.486  71.943  90.230  0.00  0.00    +0.000 OA
ATOM     20  C   UNL     1      86.005  72.746  91.281  0.00  0.00    +0.000 C 
ENDBRANCH   4  19
TORSDOF 4
ENDMDL
