MODEL 1
REMARK VINA RESULT:      -4.3      0.000      0.000
REMARK  Name = *****
REMARK  8 active torsions:
REMARK  status: ('A' for Active; 'I' for Inactive)
REMARK    1  A    between atoms: C_1  and  C_2
REMARK    2  A    between atoms: C_2  and  N_3
REMARK    3  A    between atoms: N_3  and  C_4
REMARK    4  A    between atoms: N_3  and  S_6
REMARK    5  A    between atoms: C_4  and  C_5
REMARK    6  A    between atoms: S_6  and  C_9
REMARK    7  A    between atoms: C_16  and  O_19
REMARK    8  A    between atoms: O_19  and  C_20
REMARK                            x       y       z     vdW  Elec       q    Type
REMARK                         _______ _______ _______ _____ _____    ______ ____
ROOT
ATOM      1  C   UNL     1      87.549  66.008  87.430  0.00  0.00    +0.000 A 
ATOM      2  C   UNL     1      87.234  67.334  87.786  0.00  0.00    +0.000 A 
ATOM      3  C   UNL     1      88.078  68.377  87.436  0.00  0.00    +0.000 A 
ATOM      4  C   UNL     1      89.242  68.102  86.729  0.00  0.00    +0.000 A 
ATOM      5  C   UNL     1      89.588  66.788  86.375  0.00  0.00    +0.000 A 
ATOM      6  C   UNL     1      88.751  65.694  86.729  0.00  0.00    +0.000 A 
ATOM      7  C   UNL     1      89.211  64.398  86.356  0.00  0.00    +0.000 A 
ATOM      8  C   UNL     1      90.398  64.196  85.644  0.00  0.00    +0.000 A 
ATOM      9  C   UNL     1      91.178  65.291  85.304  0.00  0.00    +0.000 A 
ATOM     10  C   UNL     1      90.781  66.574  85.669  0.00  0.00    +0.000 A 
ENDROOT
BRANCH   1  11
ATOM     11  S   UNL     1      86.319  64.804  87.920  0.00  0.00    +0.000 S 
ATOM     12  O   UNL     1      85.799  64.225  86.699  0.00  0.00    +0.000 OA
ATOM     13  O   UNL     1      85.431  65.340  88.931  0.00  0.00    +0.000 OA
BRANCH  11  14
ATOM     14  N   UNL     1      87.270  63.618  88.711  0.00  0.00    +0.000 NA
BRANCH  14  16
ATOM     15  C   UNL     1      89.061  63.832  90.386  0.00  0.00    +0.000 C 
ATOM     16  C   UNL     1      87.561  63.874  90.148  0.00  0.00    +0.000 C 
ENDBRANCH  14  16
BRANCH  14  17
ATOM     17  C   UNL     1      86.933  62.203  88.393  0.00  0.00    +0.000 C 
ATOM     18  C   UNL     1      85.896  61.595  89.323  0.00  0.00    +0.000 C 
ENDBRANCH  14  17
ENDBRANCH  11  14
ENDBRANCH   1  11
BRANCH   8  19
ATOM     19  O   UNL     1      90.898  62.990  85.236  0.00  0.00    +0.000 OA
ATOM     20  C   UNL     1      91.655  62.975  84.031  0.00  0.00    +0.000 C 
ENDBRANCH   8  19
TORSDOF 5
ENDMDL
