MODEL 1
REMARK VINA RESULT:      -4.6      0.000      0.000
REMARK  Name = *****
REMARK  9 active torsions:
REMARK  status: ('A' for Active; 'I' for Inactive)
REMARK    1  A    between atoms: C_1  and  C_2
REMARK    2  A    between atoms: C_2  and  N_3
REMARK    3  A    between atoms: N_3  and  C_4
REMARK    4  A    between atoms: N_3  and  S_6
REMARK    5  A    between atoms: C_4  and  C_5
REMARK    6  A    between atoms: S_6  and  C_9
REMARK    7  A    between atoms: C_10  and  C_22
REMARK    8  A    between atoms: C_12  and  C_21
REMARK    9  A    between atoms: C_19  and  C_20
REMARK                            x       y       z     vdW  Elec       q    Type
REMARK                         _______ _______ _______ _____ _____    ______ ____
ROOT
ATOM      1  C   UNL     1     102.786 127.375  83.316  0.00  0.00    +0.000 A 
ATOM      2  C   UNL     1     103.793 128.046  84.026  0.00  0.00    +0.000 A 
ATOM      3  C   UNL     1     103.470 129.265  84.638  0.00  0.00    +0.000 A 
ATOM      4  C   UNL     1     102.180 129.838  84.574  0.00  0.00    +0.000 A 
ATOM      5  C   UNL     1     101.157 129.179  83.855  0.00  0.00    +0.000 A 
ATOM      6  C   UNL     1     101.491 127.935  83.263  0.00  0.00    +0.000 A 
ATOM      7  O   UNL     1     100.481 127.163  82.641  0.00  0.00    +0.000 OA
ATOM      8  C   UNL     1      99.157 127.533  82.577  0.00  0.00    +0.000 A 
ATOM      9  O   UNL     1      98.273 126.810  82.138  0.00  0.00    +0.000 OA
ATOM     10  C   UNL     1      98.864 128.880  83.061  0.00  0.00    +0.000 A 
ATOM     11  C   UNL     1      99.769 129.676  83.651  0.00  0.00    +0.000 A 
ATOM     12  C   UNL     1      99.325 131.061  84.027  0.00  0.00    +0.000 C 
ATOM     13  C   UNL     1     102.013 131.133  85.327  0.00  0.00    +0.000 C 
ATOM     14  C   UNL     1     105.211 127.556  84.157  0.00  0.00    +0.000 C 
ENDROOT
BRANCH   1  15
ATOM     15  S   UNL     1     103.172 125.857  82.440  0.00  0.00    +0.000 S 
ATOM     16  O   UNL     1     102.019 125.522  81.627  0.00  0.00    +0.000 OA
ATOM     17  O   UNL     1     103.720 124.866  83.338  0.00  0.00    +0.000 OA
BRANCH  15  18
ATOM     18  N   UNL     1     104.431 126.348  81.396  0.00  0.00    +0.000 NA
BRANCH  18  20
ATOM     19  C   UNL     1     105.079 124.724  79.683  0.00  0.00    +0.000 C 
ATOM     20  C   UNL     1     105.440 125.320  81.034  0.00  0.00    +0.000 C 
ENDBRANCH  18  20
BRANCH  18  21
ATOM     21  C   UNL     1     104.034 127.231  80.267  0.00  0.00    +0.000 C 
ATOM     22  C   UNL     1     104.595 128.640  80.370  0.00  0.00    +0.000 C 
ENDBRANCH  18  21
ENDBRANCH  15  18
ENDBRANCH   1  15
TORSDOF 4
ENDMDL
