MODEL 1
REMARK VINA RESULT:      -4.1      0.000      0.000
REMARK  Name = *****
REMARK  2 active torsions:
REMARK  status: ('A' for Active; 'I' for Inactive)
REMARK    1  A    between atoms: C_7  and  N_13
REMARK    2  A    between atoms: C_10  and  N_11
REMARK                            x       y       z     vdW  Elec       q    Type
REMARK                         _______ _______ _______ _____ _____    ______ ____
ROOT
ATOM      1  C   UNL     1     103.282 127.288  81.429  0.00  0.00    +0.000 A 
ATOM      2  C   UNL     1     103.609 126.798  80.176  0.00  0.00    +0.000 A 
ATOM      3  C   UNL     1     104.066 125.487  80.044  0.00  0.00    +0.000 A 
ATOM      4  C   UNL     1     104.219 124.623  81.156  0.00  0.00    +0.000 A 
ATOM      5  C   UNL     1     103.865 125.122  82.439  0.00  0.00    +0.000 A 
ATOM      6  C   UNL     1     103.403 126.461  82.545  0.00  0.00    +0.000 A 
ATOM      7  C   UNL     1     103.972 124.231  83.538  0.00  0.00    +0.000 A 
ATOM      8  C   UNL     1     104.375 122.901  83.408  0.00  0.00    +0.000 A 
ATOM      9  C   UNL     1     104.722 122.435  82.151  0.00  0.00    +0.000 A 
ATOM     10  C   UNL     1     104.705 123.285  81.022  0.00  0.00    +0.000 A 
ATOM     11 CL   UNL     1     105.233 120.786  82.009  0.00  0.00    +0.000 Cl
ENDROOT
BRANCH  10  12
ATOM     12  N   UNL     1     104.992 122.741  79.742  0.00  0.00    +0.000 N 
ATOM     13  H   UNL     1     104.390 122.922  78.985  0.00  0.00    +0.000 HD
ATOM     14  H   UNL     1     105.792 122.183  79.612  0.00  0.00    +0.000 HD
ENDBRANCH  10  12
BRANCH   7  15
ATOM     15  N   UNL     1     103.639 124.671  84.880  0.00  0.00    +0.000 N 
ATOM     16  O   UNL     1     104.562 125.107  85.580  0.00  0.00    +0.000 OA
ATOM     17  O   UNL     1     102.460 124.543  85.237  0.00  0.00    +0.000 OA
ENDBRANCH   7  15
TORSDOF 2
ENDMDL
