MODEL 1
REMARK VINA RESULT:      -4.2      0.000      0.000
REMARK  Name = *****
REMARK  6 active torsions:
REMARK  status: ('A' for Active; 'I' for Inactive)
REMARK    1  A    between atoms: C_1  and  C_2
REMARK    2  A    between atoms: C_2  and  O_3
REMARK    3  A    between atoms: O_3  and  C_4
REMARK    4  A    between atoms: C_4  and  C_6
REMARK    5  A    between atoms: C_9  and  N_16
REMARK    6  A    between atoms: N_16  and  C_17
REMARK                            x       y       z     vdW  Elec       q    Type
REMARK                         _______ _______ _______ _____ _____    ______ ____
ROOT
ATOM      1  C   UNL     1      87.833  70.738  86.025  0.00  0.00    +0.000 A 
ATOM      2  C   UNL     1      88.829  70.170  86.807  0.00  0.00    +0.000 A 
ATOM      3  N   UNL     1      88.800  70.121  88.154  0.00  0.00    +0.000 NA
ATOM      4  C   UNL     1      87.734  70.671  88.775  0.00  0.00    +0.000 A 
ATOM      5  C   UNL     1      86.638  71.243  88.078  0.00  0.00    +0.000 A 
ATOM      6  C   UNL     1      85.477  71.738  88.720  0.00  0.00    +0.000 A 
ATOM      7  C   UNL     1      84.420  72.300  88.006  0.00  0.00    +0.000 A 
ATOM      8  C   UNL     1      84.489  72.372  86.625  0.00  0.00    +0.000 A 
ATOM      9  C   UNL     1      85.608  71.869  85.961  0.00  0.00    +0.000 A 
ATOM     10  C   UNL     1      86.699  71.292  86.660  0.00  0.00    +0.000 A 
ENDROOT
BRANCH   1  11
ATOM     11  C   UNL     1      88.024  70.749  84.559  0.00  0.00    +0.000 C 
ATOM     12  O   UNL     1      87.600  69.898  83.797  0.00  0.00    +0.000 OA
BRANCH  11  13
ATOM     13  O   UNL     1      88.766  71.833  84.219  0.00  0.00    +0.000 OA
BRANCH  13  15
ATOM     14  C   UNL     1      89.061  73.939  83.062  0.00  0.00    +0.000 C 
ATOM     15  C   UNL     1      88.144  72.757  83.313  0.00  0.00    +0.000 C 
ENDBRANCH  13  15
ENDBRANCH  11  13
ENDBRANCH   1  11
BRANCH   4  16
ATOM     16  N   UNL     1      87.823  70.619  90.184  0.00  0.00    +0.000 N 
ATOM     17  H   UNL     1      87.348  69.927  90.697  0.00  0.00    +0.000 HD
BRANCH  16  18
ATOM     18  C   UNL     1      88.650  71.636  90.862  0.00  0.00    +0.000 C 
ATOM     19  C   UNL     1      88.273  72.086  92.250  0.00  0.00    +0.000 C 
ATOM     20  C   UNL     1      88.124  73.026  91.095  0.00  0.00    +0.000 C 
ENDBRANCH  16  18
ENDBRANCH   4  16
TORSDOF 5
ENDMDL
