MODEL 1
REMARK VINA RESULT:      -4.2      0.000      0.000
REMARK  Name = *****
REMARK  5 active torsions:
REMARK  status: ('A' for Active; 'I' for Inactive)
REMARK    1  A    between atoms: C_1  and  N_2
REMARK    2  A    between atoms: N_2  and  C_3
REMARK    3  A    between atoms: N_2  and  C_4
REMARK    4  A    between atoms: C_13  and  S_14
REMARK    5  A    between atoms: S_14  and  N_17
REMARK                            x       y       z     vdW  Elec       q    Type
REMARK                         _______ _______ _______ _____ _____    ______ ____
ROOT
ATOM      1  C   UNL     1      87.951  69.607  87.325  0.00  0.00    +0.000 A 
ATOM      2  C   UNL     1      88.725  70.510  86.581  0.00  0.00    +0.000 A 
ATOM      3  C   UNL     1      89.732  70.055  85.743  0.00  0.00    +0.000 A 
ATOM      4  C   UNL     1      89.984  68.689  85.639  0.00  0.00    +0.000 A 
ATOM      5  C   UNL     1      89.241  67.725  86.365  0.00  0.00    +0.000 A 
ATOM      6  C   UNL     1      88.211  68.207  87.221  0.00  0.00    +0.000 A 
ATOM      7  C   UNL     1      87.448  67.272  87.957  0.00  0.00    +0.000 A 
ATOM      8  C   UNL     1      87.674  65.900  87.881  0.00  0.00    +0.000 A 
ATOM      9  C   UNL     1      88.675  65.419  87.053  0.00  0.00    +0.000 A 
ATOM     10  C   UNL     1      89.449  66.315  86.298  0.00  0.00    +0.000 A 
ENDROOT
BRANCH   1  12
ATOM     11  C   UNL     1      85.958  70.958  87.577  0.00  0.00    +0.000 C 
ATOM     12  N   UNL     1      86.936  70.071  88.208  0.00  0.00    +0.000 N 
ATOM     13  C   UNL     1      87.523  70.599  89.444  0.00  0.00    +0.000 C 
ENDBRANCH   1  12
BRANCH  10  14
ATOM     14  S   UNL     1      90.707  65.598  85.252  0.00  0.00    +0.000 S 
ATOM     15  O   UNL     1      90.356  65.864  83.872  0.00  0.00    +0.000 OA
ATOM     16  O   UNL     1      92.005  65.998  85.762  0.00  0.00    +0.000 OA
BRANCH  14  17
ATOM     17  N   UNL     1      90.494  63.918  85.555  0.00  0.00    +0.000 NA
ATOM     18  C   UNL     1      91.548  63.009  85.093  0.00  0.00    +0.000 C 
ATOM     19  C   UNL     1      90.236  63.103  84.361  0.00  0.00    +0.000 C 
ENDBRANCH  14  17
ENDBRANCH  10  14
TORSDOF 3
ENDMDL
