MODEL 1
REMARK VINA RESULT:      -4.5      0.000      0.000
REMARK  Name = *****
REMARK  2 active torsions:
REMARK  status: ('A' for Active; 'I' for Inactive)
REMARK    1  A    between atoms: C_10  and  S_11
REMARK    2  A    between atoms: S_11  and  N_14
REMARK                            x       y       z     vdW  Elec       q    Type
REMARK                         _______ _______ _______ _____ _____    ______ ____
ROOT
ATOM      1  C   UNL     1      84.371  72.495  86.248  0.00  0.00    +0.000 A 
ATOM      2  C   UNL     1      85.163  72.064  85.195  0.00  0.00    +0.000 A 
ATOM      3  C   UNL     1      86.355  71.381  85.451  0.00  0.00    +0.000 A 
ATOM      4  C   UNL     1      86.797  71.107  86.773  0.00  0.00    +0.000 A 
ATOM      5  C   UNL     1      85.966  71.558  87.833  0.00  0.00    +0.000 A 
ATOM      6  C   UNL     1      84.771  72.241  87.557  0.00  0.00    +0.000 A 
ATOM      7  C   UNL     1      86.331  71.327  89.169  0.00  0.00    +0.000 A 
ATOM      8  C   UNL     1      87.509  70.659  89.491  0.00  0.00    +0.000 A 
ATOM      9  C   UNL     1      88.343  70.209  88.477  0.00  0.00    +0.000 A 
ATOM     10  C   UNL     1      87.994  70.424  87.132  0.00  0.00    +0.000 A 
ENDROOT
BRANCH  10  11
ATOM     11  S   UNL     1      89.121  69.792  85.890  0.00  0.00    +0.000 S 
ATOM     12  O   UNL     1      88.319  69.090  84.907  0.00  0.00    +0.000 OA
ATOM     13  O   UNL     1      89.957  70.903  85.471  0.00  0.00    +0.000 OA
BRANCH  11  14
ATOM     14  N   UNL     1      90.032  68.737  86.718  0.00  0.00    +0.000 NA
ATOM     15  C   UNL     1      90.072  67.697  86.181  0.00  0.00    +0.000 C 
ATOM     16  S   UNL     1      90.177  66.257  85.506  0.00  0.00    +0.000 S 
ENDBRANCH  11  14
ENDBRANCH  10  11
TORSDOF 2
ENDMDL
