REMARK  Name = *****
REMARK  4 active torsions:
REMARK  status: ('A' for Active; 'I' for Inactive)
REMARK    1  A    between atoms: C_1  and  C_2
REMARK    2  A    between atoms: C_2  and  S_3
REMARK    3  A    between atoms: S_3  and  C_6
REMARK    4  A    between atoms: C_7  and  C_16
REMARK                            x       y       z     vdW  Elec       q    Type
REMARK                         _______ _______ _______ _____ _____    ______ ____
ROOT
ATOM      1  C   UNL     1       4.785   1.585   0.650  0.00  0.00    +0.000 A 
ATOM      2  C   UNL     1       5.551   2.170  -0.392  0.00  0.00    +0.000 A 
ATOM      3  C   UNL     1       6.947   2.076  -0.329  0.00  0.00    +0.000 A 
ATOM      4  C   UNL     1       7.577   1.412   0.717  0.00  0.00    +0.000 A 
ATOM      5  C   UNL     1       6.840   0.815   1.741  0.00  0.00    +0.000 A 
ATOM      6  C   UNL     1       7.537   0.148   2.763  0.00  0.00    +0.000 A 
ATOM      7  C   UNL     1       6.866  -0.471   3.811  0.00  0.00    +0.000 A 
ATOM      8  C   UNL     1       5.484  -0.429   3.847  0.00  0.00    +0.000 A 
ATOM      9  C   UNL     1       4.780   0.233   2.835  0.00  0.00    +0.000 A 
ATOM     10  C   UNL     1       5.421   0.884   1.741  0.00  0.00    +0.000 A 
ATOM     11  C   UNL     1       4.984   2.898  -1.581  0.00  0.00    +0.000 C 
ENDROOT
BRANCH   1  12
ATOM     12  S   UNL     1       2.978   1.699   0.622  0.00  0.00    +0.000 S 
ATOM     13  O   UNL     1       2.560   2.610  -0.426  0.00  0.00    +0.000 OA
ATOM     14  O   UNL     1       2.517   1.938   1.977  0.00  0.00    +0.000 OA
BRANCH  12  16
ATOM     15  C   UNL     1       0.976  -0.065   0.026  0.00  0.00    +0.000 C 
ATOM     16  C   UNL     1       2.485   0.059   0.116  0.00  0.00    +0.000 C 
ENDBRANCH  12  16
ENDBRANCH   1  12
TORSDOF 2
