MODEL 1
REMARK VINA RESULT:      -4.7      0.000      0.000
REMARK  Name = *****
REMARK  6 active torsions:
REMARK  status: ('A' for Active; 'I' for Inactive)
REMARK    1  A    between atoms: C_1  and  C_2
REMARK    2  A    between atoms: C_3  and  O_13
REMARK    3  A    between atoms: C_10  and  O_12
REMARK    4  A    between atoms: O_13  and  C_14
REMARK    5  A    between atoms: C_14  and  C_16
REMARK    6  A    between atoms: C_16  and  C_18
REMARK                            x       y       z     vdW  Elec       q    Type
REMARK                         _______ _______ _______ _____ _____    ______ ____
ROOT
ATOM      1  C   UNL     1      87.481  67.163  87.894  0.00  0.00    +0.000 C 
ATOM      2  C   UNL     1      88.228  66.076  87.181  0.00  0.00    +0.000 A 
ATOM      3  C   UNL     1      89.453  66.311  86.542  0.00  0.00    +0.000 A 
ATOM      4  C   UNL     1      90.178  65.294  85.872  0.00  0.00    +0.000 A 
ATOM      5  C   UNL     1      91.435  65.531  85.271  0.00  0.00    +0.000 A 
ATOM      6  C   UNL     1      92.125  64.524  84.597  0.00  0.00    +0.000 A 
ATOM      7  C   UNL     1      91.571  63.257  84.504  0.00  0.00    +0.000 A 
ATOM      8  C   UNL     1      90.334  62.995  85.097  0.00  0.00    +0.000 A 
ATOM      9  C   UNL     1      89.618  63.994  85.803  0.00  0.00    +0.000 A 
ATOM     10  C   UNL     1      88.371  63.774  86.437  0.00  0.00    +0.000 A 
ATOM     11  C   UNL     1      87.686  64.794  87.101  0.00  0.00    +0.000 A 
ENDROOT
BRANCH  10  12
ATOM     12  O   UNL     1      87.745  62.554  86.466  0.00  0.00    +0.000 OA
ATOM     13  H   UNL     1      87.616  62.075  85.671  0.00  0.00    +0.000 HD
ENDBRANCH  10  12
BRANCH   3  14
ATOM     14  O   UNL     1      90.016  67.597  86.637  0.00  0.00    +0.000 OA
BRANCH  14  15
ATOM     15  C   UNL     1      89.584  68.464  85.648  0.00  0.00    +0.000 C 
ATOM     16  O   UNL     1      89.175  68.165  84.535  0.00  0.00    +0.000 OA
BRANCH  15  17
ATOM     17  C   UNL     1      89.668  69.882  86.119  0.00  0.00    +0.000 C 
ATOM     18  C   UNL     1      89.396  70.251  87.384  0.00  0.00    +0.000 C 
ATOM     19  C   UNL     1      90.085  70.870  85.071  0.00  0.00    +0.000 C 
ENDBRANCH  15  17
ENDBRANCH  14  15
ENDBRANCH   3  14
TORSDOF 4
ENDMDL
