MODEL 1
REMARK VINA RESULT:      -4.7      0.000      0.000
REMARK  Name = *****
REMARK  8 active torsions:
REMARK  status: ('A' for Active; 'I' for Inactive)
REMARK    1  A    between atoms: C_1  and  C_2
REMARK    2  A    between atoms: C_2  and  O_3
REMARK    3  A    between atoms: O_3  and  C_4
REMARK    4  A    between atoms: C_7  and  S_14
REMARK    5  A    between atoms: S_14  and  N_17
REMARK    6  A    between atoms: N_17  and  C_18
REMARK    7  A    between atoms: C_18  and  C_19
REMARK    8  A    between atoms: C_18  and  C_20
REMARK                            x       y       z     vdW  Elec       q    Type
REMARK                         _______ _______ _______ _____ _____    ______ ____
ROOT
ATOM      1  C   UNL     1      86.407  71.404  89.370  0.00  0.00    +0.000 A 
ATOM      2  C   UNL     1      87.607  70.769  89.690  0.00  0.00    +0.000 A 
ATOM      3  C   UNL     1      88.436  70.296  88.680  0.00  0.00    +0.000 A 
ATOM      4  C   UNL     1      88.073  70.449  87.334  0.00  0.00    +0.000 A 
ATOM      5  C   UNL     1      86.870  71.111  86.965  0.00  0.00    +0.000 A 
ATOM      6  C   UNL     1      86.444  71.341  85.629  0.00  0.00    +0.000 A 
ATOM      7  C   UNL     1      85.244  71.989  85.328  0.00  0.00    +0.000 A 
ATOM      8  C   UNL     1      84.430  72.434  86.352  0.00  0.00    +0.000 A 
ATOM      9  C   UNL     1      84.820  72.235  87.674  0.00  0.00    +0.000 A 
ATOM     10  C   UNL     1      86.029  71.583  88.012  0.00  0.00    +0.000 A 
ENDROOT
BRANCH   4  11
ATOM     11  S   UNL     1      89.197  69.772  86.125  0.00  0.00    +0.000 S 
ATOM     12  O   UNL     1      90.178  68.979  86.833  0.00  0.00    +0.000 OA
ATOM     13  O   UNL     1      88.434  69.210  85.031  0.00  0.00    +0.000 OA
BRANCH  11  14
ATOM     14  N   UNL     1      90.017  71.118  85.530  0.00  0.00    +0.000 NA
ATOM     15  H   UNL     1      91.005  70.971  85.734  0.00  0.00    +0.000 HD
BRANCH  14  16
ATOM     16  C   UNL     1      89.929  71.482  84.104  0.00  0.00    +0.000 C 
ATOM     17  C   UNL     1      89.403  72.898  83.916  0.00  0.00    +0.000 C 
ATOM     18  C   UNL     1      91.332  71.368  83.507  0.00  0.00    +0.000 C 
ENDBRANCH  14  16
ENDBRANCH  11  14
ENDBRANCH   4  11
BRANCH   1  19
ATOM     19  O   UNL     1      85.531  71.891  90.313  0.00  0.00    +0.000 OA
BRANCH  19  21
ATOM     20  C   UNL     1      85.883  73.772  91.729  0.00  0.00    +0.000 C 
ATOM     21  C   UNL     1      86.051  72.271  91.585  0.00  0.00    +0.000 C 
ENDBRANCH  19  21
ENDBRANCH   1  19
TORSDOF 5
ENDMDL
