MODEL 1
REMARK VINA RESULT:      -4.2      0.000      0.000
REMARK  Name = *****
REMARK  6 active torsions:
REMARK  status: ('A' for Active; 'I' for Inactive)
REMARK    1  A    between atoms: C_1  and  N_2
REMARK    2  A    between atoms: N_2  and  C_3
REMARK    3  A    between atoms: N_2  and  S_4
REMARK    4  A    between atoms: S_4  and  C_7
REMARK    5  A    between atoms: C_10  and  O_17
REMARK    6  A    between atoms: O_17  and  C_18
REMARK                            x       y       z     vdW  Elec       q    Type
REMARK                         _______ _______ _______ _____ _____    ______ ____
ROOT
ATOM      1  C   UNL     1      87.862  70.773  86.085  0.00  0.00    +0.000 A 
ATOM      2  C   UNL     1      88.902  70.262  86.878  0.00  0.00    +0.000 A 
ATOM      3  C   UNL     1      88.810  70.268  88.264  0.00  0.00    +0.000 A 
ATOM      4  C   UNL     1      87.676  70.786  88.882  0.00  0.00    +0.000 A 
ATOM      5  C   UNL     1      86.606  71.307  88.105  0.00  0.00    +0.000 A 
ATOM      6  C   UNL     1      85.450  71.826  88.733  0.00  0.00    +0.000 A 
ATOM      7  C   UNL     1      84.377  72.339  88.011  0.00  0.00    +0.000 A 
ATOM      8  C   UNL     1      84.433  72.345  86.631  0.00  0.00    +0.000 A 
ATOM      9  C   UNL     1      85.561  71.840  85.979  0.00  0.00    +0.000 A 
ATOM     10  C   UNL     1      86.682  71.312  86.680  0.00  0.00    +0.000 A 
ENDROOT
BRANCH   1  11
ATOM     11  S   UNL     1      88.177  70.724  84.322  0.00  0.00    +0.000 S 
ATOM     12  O   UNL     1      88.444  72.083  83.898  0.00  0.00    +0.000 OA
ATOM     13  O   UNL     1      87.170  69.947  83.633  0.00  0.00    +0.000 OA
BRANCH  11  15
ATOM     14  C   UNL     1      89.549  68.468  83.740  0.00  0.00    +0.000 C 
ATOM     15  N   UNL     1      89.658  69.861  84.225  0.00  0.00    +0.000 NA
ATOM     16  C   UNL     1      90.704  70.609  83.489  0.00  0.00    +0.000 C 
ENDBRANCH  11  15
ENDBRANCH   1  11
BRANCH   4  17
ATOM     17  O   UNL     1      87.510  70.824  90.249  0.00  0.00    +0.000 OA
ATOM     18  C   UNL     1      88.418  71.609  91.010  0.00  0.00    +0.000 C 
ENDBRANCH   4  17
TORSDOF 3
ENDMDL
