MODEL 1
REMARK VINA RESULT:      -4.6      0.000      0.000
REMARK  Name = *****
REMARK  4 active torsions:
REMARK  status: ('A' for Active; 'I' for Inactive)
REMARK    1  A    between atoms: C_1  and  C_2
REMARK    2  A    between atoms: C_4  and  S_13
REMARK    3  A    between atoms: C_11  and  O_12
REMARK    4  A    between atoms: S_13  and  N_16
REMARK                            x       y       z     vdW  Elec       q    Type
REMARK                         _______ _______ _______ _____ _____    ______ ____
ROOT
ATOM      1  C   UNL     1      86.241  64.811  89.085  0.00  0.00    +0.000 C 
ATOM      2  C   UNL     1      87.332  65.280  88.169  0.00  0.00    +0.000 A 
ATOM      3  C   UNL     1      87.499  66.633  87.886  0.00  0.00    +0.000 A 
ATOM      4  C   UNL     1      88.528  67.054  87.026  0.00  0.00    +0.000 A 
ATOM      5  C   UNL     1      89.414  66.123  86.414  0.00  0.00    +0.000 A 
ATOM      6  C   UNL     1      90.476  66.427  85.528  0.00  0.00    +0.000 A 
ATOM      7  C   UNL     1      91.278  65.423  84.995  0.00  0.00    +0.000 A 
ATOM      8  C   UNL     1      91.008  64.122  85.357  0.00  0.00    +0.000 A 
ATOM      9  N   UNL     1      90.013  63.774  86.198  0.00  0.00    +0.000 NA
ATOM     10  C   UNL     1      89.237  64.756  86.707  0.00  0.00    +0.000 A 
ATOM     11  C   UNL     1      88.210  64.374  87.571  0.00  0.00    +0.000 A 
ENDROOT
BRANCH   4  12
ATOM     12  S   UNL     1      88.680  68.804  86.733  0.00  0.00    +0.000 S 
ATOM     13  O   UNL     1      89.990  69.220  87.188  0.00  0.00    +0.000 OA
ATOM     14  O   UNL     1      88.241  69.090  85.383  0.00  0.00    +0.000 OA
BRANCH  12  15
ATOM     15  N   UNL     1      87.515  69.465  87.779  0.00  0.00    +0.000 NA
ATOM     16  C   UNL     1      86.318  70.094  87.156  0.00  0.00    +0.000 C 
ATOM     17  C   UNL     1      86.230  71.488  87.762  0.00  0.00    +0.000 C 
ATOM     18  C   UNL     1      86.883  71.316  89.118  0.00  0.00    +0.000 C 
ATOM     19  C   UNL     1      88.056  70.406  88.794  0.00  0.00    +0.000 C 
ENDBRANCH  12  15
ENDBRANCH   4  12
BRANCH  11  20
ATOM     20  O   UNL     1      88.059  63.031  87.844  0.00  0.00    +0.000 OA
ATOM     21  H   UNL     1      88.754  62.556  88.256  0.00  0.00    +0.000 HD
ENDBRANCH  11  20
TORSDOF 3
ENDMDL
