MODEL 1
REMARK VINA RESULT:      -4.6      0.000      0.000
REMARK  Name = *****
REMARK  2 active torsions:
REMARK  status: ('A' for Active; 'I' for Inactive)
REMARK    1  A    between atoms: C_3  and  S_4
REMARK    2  A    between atoms: S_4  and  C_7
REMARK                            x       y       z     vdW  Elec       q    Type
REMARK                         _______ _______ _______ _____ _____    ______ ____
ROOT
ATOM      1  C   UNL     1     101.400 127.500  83.152  0.00  0.00    +0.000 A 
ATOM      2  C   UNL     1     100.431 126.667  82.570  0.00  0.00    +0.000 A 
ATOM      3  C   UNL     1      99.120 127.106  82.443  0.00  0.00    +0.000 A 
ATOM      4  C   UNL     1      98.774 128.376  82.894  0.00  0.00    +0.000 A 
ATOM      5  C   UNL     1      99.723 129.223  83.488  0.00  0.00    +0.000 A 
ATOM      6  C   UNL     1      99.324 130.495  83.931  0.00  0.00    +0.000 A 
ATOM      7  C   UNL     1     100.228 131.364  84.536  0.00  0.00    +0.000 A 
ATOM      8  C   UNL     1     101.545 130.968  84.710  0.00  0.00    +0.000 A 
ATOM      9  C   UNL     1     101.959 129.707  84.273  0.00  0.00    +0.000 A 
ATOM     10  C   UNL     1     101.069 128.797  83.641  0.00  0.00    +0.000 A 
ENDROOT
BRANCH   1  11
ATOM     11  S   UNL     1     103.064 126.863  83.220  0.00  0.00    +0.000 S 
ATOM     12  O   UNL     1     103.384 126.577  84.606  0.00  0.00    +0.000 OA
ATOM     13  O   UNL     1     103.924 127.724  82.433  0.00  0.00    +0.000 OA
BRANCH  11  16
ATOM     14  C   UNL     1     104.077 124.307  82.633  0.00  0.00    +0.000 C 
ATOM     15  C   UNL     1     104.073 125.117  81.371  0.00  0.00    +0.000 C 
ATOM     16  C   UNL     1     102.961 125.280  82.353  0.00  0.00    +0.000 C 
ATOM     17  F   UNL     1     103.787 124.436  80.200  0.00  0.00    +0.000 F 
ENDBRANCH  11  16
ENDBRANCH   1  11
TORSDOF 2
ENDMDL
