MODEL 1
REMARK VINA RESULT:      -4.5      0.000      0.000
REMARK  Name = *****
REMARK  3 active torsions:
REMARK  status: ('A' for Active; 'I' for Inactive)
REMARK    1  A    between atoms: N_4  and  S_6
REMARK    2  A    between atoms: S_6  and  C_9
REMARK    3  A    between atoms: C_12  and  O_19
REMARK                            x       y       z     vdW  Elec       q    Type
REMARK                         _______ _______ _______ _____ _____    ______ ____
ROOT
ATOM      1  C   UNL     1      88.570  66.971  86.783  0.00  0.00    +0.000 A 
ATOM      2  C   UNL     1      87.439  66.579  87.507  0.00  0.00    +0.000 A 
ATOM      3  C   UNL     1      87.223  65.233  87.743  0.00  0.00    +0.000 A 
ATOM      4  C   UNL     1      88.124  64.282  87.261  0.00  0.00    +0.000 A 
ATOM      5  C   UNL     1      89.262  64.643  86.526  0.00  0.00    +0.000 A 
ATOM      6  C   UNL     1      89.497  66.017  86.271  0.00  0.00    +0.000 A 
ATOM      7  C   UNL     1      90.656  66.323  85.516  0.00  0.00    +0.000 A 
ATOM      8  C   UNL     1      91.508  65.325  85.061  0.00  0.00    +0.000 A 
ATOM      9  C   UNL     1      91.188  64.024  85.369  0.00  0.00    +0.000 A 
ATOM     10  N   UNL     1      90.100  63.680  86.083  0.00  0.00    +0.000 NA
ATOM     11 CL   UNL     1      85.834  64.751  88.645  0.00  0.00    +0.000 Cl
ENDROOT
BRANCH   1  12
ATOM     12  S   UNL     1      88.796  68.720  86.530  0.00  0.00    +0.000 S 
ATOM     13  O   UNL     1      88.594  69.009  85.126  0.00  0.00    +0.000 OA
ATOM     14  O   UNL     1      90.020  69.108  87.197  0.00  0.00    +0.000 OA
BRANCH  12  18
ATOM     15  C   UNL     1      86.649  71.272  88.555  0.00  0.00    +0.000 C 
ATOM     16  C   UNL     1      86.214  71.415  87.111  0.00  0.00    +0.000 C 
ATOM     17  C   UNL     1      86.395  70.010  86.553  0.00  0.00    +0.000 C 
ATOM     18  N   UNL     1      87.485  69.400  87.366  0.00  0.00    +0.000 NA
ATOM     19  C   UNL     1      87.860  70.362  88.435  0.00  0.00    +0.000 C 
ENDBRANCH  12  18
ENDBRANCH   1  12
BRANCH   4  20
ATOM     20  O   UNL     1      87.895  62.943  87.514  0.00  0.00    +0.000 OA
ATOM     21  H   UNL     1      88.606  62.334  87.495  0.00  0.00    +0.000 HD
ENDBRANCH   4  20
TORSDOF 3
ENDMDL
