MODEL 1
REMARK VINA RESULT:      -3.9      0.000      0.000
REMARK  Name = *****
REMARK  5 active torsions:
REMARK  status: ('A' for Active; 'I' for Inactive)
REMARK    1  A    between atoms: C_1  and  C_2
REMARK    2  A    between atoms: C_2  and  N_3
REMARK    3  A    between atoms: N_3  and  S_4
REMARK    4  A    between atoms: S_4  and  C_7
REMARK    5  A    between atoms: C_9  and  C_14
REMARK                            x       y       z     vdW  Elec       q    Type
REMARK                         _______ _______ _______ _____ _____    ______ ____
ROOT
ATOM      1  C   UNL     1     104.339 124.328  81.194  0.00  0.00    +0.000 A 
ATOM      2  C   UNL     1     103.915 124.320  82.534  0.00  0.00    +0.000 A 
ATOM      3  C   UNL     1     103.066 125.350  83.018  0.00  0.00    +0.000 A 
ATOM      4  C   UNL     1     102.703 126.387  82.135  0.00  0.00    +0.000 A 
ATOM      5  C   UNL     1     103.132 126.384  80.806  0.00  0.00    +0.000 A 
ATOM      6  C   UNL     1     103.939 125.356  80.332  0.00  0.00    +0.000 A 
ATOM      7 CL   UNL     1     101.733 127.730  82.631  0.00  0.00    +0.000 Cl
ATOM      8  C   UNL     1     102.611 125.358  84.457  0.00  0.00    +0.000 C 
ATOM      9 CL   UNL     1     104.453 123.093  83.642  0.00  0.00    +0.000 Cl
ENDROOT
BRANCH   1  10
ATOM     10  S   UNL     1     105.366 123.043  80.523  0.00  0.00    +0.000 S 
ATOM     11  O   UNL     1     104.575 121.832  80.466  0.00  0.00    +0.000 OA
ATOM     12  O   UNL     1     106.631 123.076  81.221  0.00  0.00    +0.000 OA
BRANCH  10  13
ATOM     13  N   UNL     1     105.640 123.526  78.939  0.00  0.00    +0.000 NA
ATOM     14  H   UNL     1     105.563 122.692  78.358  0.00  0.00    +0.000 HD
BRANCH  13  16
ATOM     15  C   UNL     1     106.794 124.738  77.184  0.00  0.00    +0.000 C 
ATOM     16  C   UNL     1     106.903 124.172  78.588  0.00  0.00    +0.000 C 
ENDBRANCH  13  16
ENDBRANCH  10  13
ENDBRANCH   1  10
TORSDOF 3
ENDMDL
