MODEL 1
REMARK VINA RESULT:      -4.8      0.000      0.000
REMARK  Name = *****
REMARK  4 active torsions:
REMARK  status: ('A' for Active; 'I' for Inactive)
REMARK    1  A    between atoms: C_1  and  C_2
REMARK    2  A    between atoms: C_2  and  N_3
REMARK    3  A    between atoms: N_3  and  S_4
REMARK    4  A    between atoms: S_4  and  C_7
REMARK                            x       y       z     vdW  Elec       q    Type
REMARK                         _______ _______ _______ _____ _____    ______ ____
ROOT
ATOM      1  C   UNL     1      88.082  70.407  87.331  0.00  0.00    +0.000 A 
ATOM      2  C   UNL     1      86.887  71.074  86.934  0.00  0.00    +0.000 A 
ATOM      3  C   UNL     1      86.352  71.378  85.653  0.00  0.00    +0.000 A 
ATOM      4  C   UNL     1      85.121  72.056  85.518  0.00  0.00    +0.000 A 
ATOM      5  C   UNL     1      84.372  72.463  86.633  0.00  0.00    +0.000 A 
ATOM      6  C   UNL     1      84.904  72.167  87.884  0.00  0.00    +0.000 A 
ATOM      7  C   UNL     1      86.115  71.499  87.976  0.00  0.00    +0.000 A 
ATOM      8  C   UNL     1      86.418  71.337  89.311  0.00  0.00    +0.000 A 
ATOM      9  C   UNL     1      87.573  70.707  89.728  0.00  0.00    +0.000 A 
ATOM     10  C   UNL     1      88.413  70.238  88.702  0.00  0.00    +0.000 A 
ATOM     11  N   UNL     1      85.389  71.905  90.038  0.00  0.00    +0.000 N 
ATOM     12  C   UNL     1      84.397  72.451  89.213  0.00  0.00    +0.000 C 
ATOM     13  O   UNL     1      83.385  73.007  89.612  0.00  0.00    +0.000 OA
ATOM     14  H   UNL     1      85.357  71.924  91.022  0.00  0.00    +0.000 HD
ENDROOT
BRANCH   1  15
ATOM     15  S   UNL     1      89.206  69.762  86.111  0.00  0.00    +0.000 S 
ATOM     16  O   UNL     1      88.431  69.321  84.973  0.00  0.00    +0.000 OA
ATOM     17  O   UNL     1      90.138  68.881  86.778  0.00  0.00    +0.000 OA
BRANCH  15  18
ATOM     18  N   UNL     1      90.066  71.128  85.643  0.00  0.00    +0.000 NA
ATOM     19  H   UNL     1      89.628  71.926  86.101  0.00  0.00    +0.000 HD
BRANCH  18  21
ATOM     20  C   UNL     1      89.389  72.728  83.947  0.00  0.00    +0.000 C 
ATOM     21  C   UNL     1      90.170  71.455  84.220  0.00  0.00    +0.000 C 
ENDBRANCH  18  21
ENDBRANCH  15  18
ENDBRANCH   1  15
TORSDOF 3
ENDMDL
