MODEL 1
REMARK VINA RESULT:      -4.3      0.000      0.000
REMARK  Name = *****
REMARK  4 active torsions:
REMARK  status: ('A' for Active; 'I' for Inactive)
REMARK    1  A    between atoms: C_1  and  N_2
REMARK    2  A    between atoms: N_2  and  C_3
REMARK    3  A    between atoms: N_2  and  S_4
REMARK    4  A    between atoms: S_4  and  C_7
REMARK                            x       y       z     vdW  Elec       q    Type
REMARK                         _______ _______ _______ _____ _____    ______ ____
ROOT
ATOM      1  C   UNL     1      87.794  70.812  86.215  0.00  0.00    +0.000 A 
ATOM      2  C   UNL     1      88.846  70.345  87.023  0.00  0.00    +0.000 A 
ATOM      3  C   UNL     1      88.734  70.368  88.404  0.00  0.00    +0.000 A 
ATOM      4  C   UNL     1      87.576  70.866  88.995  0.00  0.00    +0.000 A 
ATOM      5  C   UNL     1      86.500  71.365  88.217  0.00  0.00    +0.000 A 
ATOM      6  C   UNL     1      85.323  71.879  88.817  0.00  0.00    +0.000 A 
ATOM      7  C   UNL     1      84.264  72.380  88.066  0.00  0.00    +0.000 A 
ATOM      8  C   UNL     1      84.353  72.383  86.687  0.00  0.00    +0.000 A 
ATOM      9  C   UNL     1      85.499  71.880  86.067  0.00  0.00    +0.000 A 
ATOM     10  C   UNL     1      86.603  71.354  86.792  0.00  0.00    +0.000 A 
ATOM     11 CL   UNL     1      87.536  70.838  90.731  0.00  0.00    +0.000 Cl
ENDROOT
BRANCH   1  12
ATOM     12  S   UNL     1      88.097  70.718  84.442  0.00  0.00    +0.000 S 
ATOM     13  O   UNL     1      88.213  72.079  83.957  0.00  0.00    +0.000 OA
ATOM     14  O   UNL     1      87.134  69.824  83.837  0.00  0.00    +0.000 OA
BRANCH  12  16
ATOM     15  C   UNL     1      89.710  68.616  83.874  0.00  0.00    +0.000 C 
ATOM     16  N   UNL     1      89.642  70.011  84.341  0.00  0.00    +0.000 NA
ATOM     17  C   UNL     1      90.746  70.844  83.840  0.00  0.00    +0.000 C 
ENDBRANCH  12  16
ENDBRANCH   1  12
TORSDOF 2
ENDMDL
