REMARK  Name = *****
REMARK  5 active torsions:
REMARK  status: ('A' for Active; 'I' for Inactive)
REMARK    1  A    between atoms: C_1  and  N_2
REMARK    2  A    between atoms: N_2  and  C_3
REMARK    3  A    between atoms: N_2  and  C_4
REMARK    4  A    between atoms: C_13  and  S_14
REMARK    5  A    between atoms: S_14  and  C_17
REMARK                            x       y       z     vdW  Elec       q    Type
REMARK                         _______ _______ _______ _____ _____    ______ ____
ROOT
ATOM      1  C   UNL     1       3.351  -1.188  -0.369  0.00  0.00    +0.000 A 
ATOM      2  C   UNL     1       2.873  -1.696  -1.586  0.00  0.00    +0.000 A 
ATOM      3  C   UNL     1       3.553  -2.707  -2.246  0.00  0.00    +0.000 A 
ATOM      4  C   UNL     1       4.724  -3.230  -1.700  0.00  0.00    +0.000 A 
ATOM      5  C   UNL     1       5.258  -2.764  -0.472  0.00  0.00    +0.000 A 
ATOM      6  C   UNL     1       4.552  -1.720   0.191  0.00  0.00    +0.000 A 
ATOM      7  C   UNL     1       5.060  -1.229   1.415  0.00  0.00    +0.000 A 
ATOM      8  C   UNL     1       6.230  -1.719   1.988  0.00  0.00    +0.000 A 
ATOM      9  C   UNL     1       6.926  -2.735   1.355  0.00  0.00    +0.000 A 
ATOM     10  C   UNL     1       6.445  -3.263   0.147  0.00  0.00    +0.000 A 
ENDROOT
BRANCH   1  12
ATOM     11  C   UNL     1       1.235  -0.323   0.448  0.00  0.00    +0.000 C 
ATOM     12  N   UNL     1       2.677  -0.124   0.292  0.00  0.00    +0.000 N 
ATOM     13  C   UNL     1       3.049   1.169  -0.291  0.00  0.00    +0.000 C 
ENDBRANCH   1  12
BRANCH  10  14
ATOM     14  S   UNL     1       7.387  -4.613  -0.563  0.00  0.00    +0.000 S 
ATOM     15  O   UNL     1       7.635  -4.282  -1.954  0.00  0.00    +0.000 OA
ATOM     16  O   UNL     1       8.503  -4.885   0.325  0.00  0.00    +0.000 OA
BRANCH  14  17
ATOM     17  C   UNL     1       6.285  -5.955  -0.441  0.00  0.00    +0.000 C 
ATOM     18  C   UNL     1       6.417  -6.998  -1.272  0.00  0.00    +0.000 C 
ENDBRANCH  14  17
ENDBRANCH  10  14
TORSDOF 3
