MODEL 1
REMARK VINA RESULT:      -4.5      0.000      0.000
REMARK  Name = *****
REMARK  3 active torsions:
REMARK  status: ('A' for Active; 'I' for Inactive)
REMARK    1  A    between atoms: C_1  and  C_2
REMARK    2  A    between atoms: N_4  and  C_5
REMARK    3  A    between atoms: C_8  and  N_15
REMARK                            x       y       z     vdW  Elec       q    Type
REMARK                         _______ _______ _______ _____ _____    ______ ____
ROOT
ATOM      1  C   UNL     1     105.445 123.411  80.024  0.00  0.00    +0.000 A 
ATOM      2  C   UNL     1     106.054 122.300  80.625  0.00  0.00    +0.000 A 
ATOM      3  C   UNL     1     105.798 121.973  81.951  0.00  0.00    +0.000 A 
ATOM      4  C   UNL     1     104.918 122.765  82.685  0.00  0.00    +0.000 A 
ATOM      5  C   UNL     1     104.274 123.905  82.147  0.00  0.00    +0.000 A 
ATOM      6  C   UNL     1     103.393 124.730  82.898  0.00  0.00    +0.000 A 
ATOM      7  C   UNL     1     102.774 125.847  82.345  0.00  0.00    +0.000 A 
ATOM      8  C   UNL     1     103.020 126.174  81.026  0.00  0.00    +0.000 A 
ATOM      9  C   UNL     1     103.886 125.385  80.264  0.00  0.00    +0.000 A 
ATOM     10  C   UNL     1     104.542 124.236  80.786  0.00  0.00    +0.000 A 
ENDROOT
BRANCH   1  14
ATOM     11  C   UNL     1     106.648 124.640  76.648  0.00  0.00    +0.000 C 
ATOM     12  C   UNL     1     106.707 124.549  78.153  0.00  0.00    +0.000 C 
ATOM     13  O   UNL     1     107.551 125.177  78.781  0.00  0.00    +0.000 OA
ATOM     14  N   UNL     1     105.711 123.735  78.665  0.00  0.00    +0.000 N 
ATOM     15  H   UNL     1     105.109 123.326  78.002  0.00  0.00    +0.000 HD
ENDBRANCH   1  14
BRANCH   4  16
ATOM     16  N   UNL     1     104.685 122.359  84.060  0.00  0.00    +0.000 N 
ATOM     17  O   UNL     1     105.440 122.831  84.920  0.00  0.00    +0.000 OA
ATOM     18  O   UNL     1     103.765 121.556  84.267  0.00  0.00    +0.000 OA
ENDBRANCH   4  16
TORSDOF 2
ENDMDL
