MODEL 1
REMARK VINA RESULT:      -4.5      0.000      0.000
REMARK  Name = *****
REMARK  5 active torsions:
REMARK  status: ('A' for Active; 'I' for Inactive)
REMARK    1  A    between atoms: C_1  and  C_2
REMARK    2  A    between atoms: C_2  and  C_3
REMARK    3  A    between atoms: C_2  and  C_4
REMARK    4  A    between atoms: C_2  and  S_5
REMARK    5  A    between atoms: S_5  and  C_8
REMARK                            x       y       z     vdW  Elec       q    Type
REMARK                         _______ _______ _______ _____ _____    ______ ____
ROOT
ATOM      1  C   UNL     1      87.394  71.047  86.001  0.00  0.00    +0.000 A 
ATOM      2  C   UNL     1      86.310  71.484  85.216  0.00  0.00    +0.000 A 
ATOM      3  C   UNL     1      85.158  71.975  85.814  0.00  0.00    +0.000 A 
ATOM      4  C   UNL     1      85.076  72.025  87.200  0.00  0.00    +0.000 A 
ATOM      5  C   UNL     1      86.128  71.573  88.009  0.00  0.00    +0.000 A 
ATOM      6  C   UNL     1      85.981  71.635  89.405  0.00  0.00    +0.000 A 
ATOM      7  C   UNL     1      86.986  71.192  90.258  0.00  0.00    +0.000 A 
ATOM      8  C   UNL     1      88.153  70.675  89.723  0.00  0.00    +0.000 A 
ATOM      9  C   UNL     1      88.316  70.607  88.336  0.00  0.00    +0.000 A 
ATOM     10  C   UNL     1      87.320  71.057  87.427  0.00  0.00    +0.000 A 
ENDROOT
BRANCH   1  11
ATOM     11  S   UNL     1      88.813  70.435  85.084  0.00  0.00    +0.000 S 
ATOM     12  O   UNL     1      89.994  70.927  85.777  0.00  0.00    +0.000 OA
ATOM     13  O   UNL     1      88.643  70.774  83.684  0.00  0.00    +0.000 OA
BRANCH  11  15
ATOM     14  C   UNL     1      89.810  68.168  86.322  0.00  0.00    +0.000 C 
ATOM     15  C   UNL     1      88.795  68.618  85.262  0.00  0.00    +0.000 C 
ATOM     16  C   UNL     1      89.192  68.010  83.904  0.00  0.00    +0.000 C 
ATOM     17  C   UNL     1      87.400  68.106  85.640  0.00  0.00    +0.000 C 
ENDBRANCH  11  15
ENDBRANCH   1  11
TORSDOF 2
ENDMDL
