MODEL 1
REMARK VINA RESULT:      -4.4      0.000      0.000
REMARK  Name = *****
REMARK  3 active torsions:
REMARK  status: ('A' for Active; 'I' for Inactive)
REMARK    1  A    between atoms: C_1  and  N_2
REMARK    2  A    between atoms: N_2  and  S_3
REMARK    3  A    between atoms: S_3  and  C_6
REMARK                            x       y       z     vdW  Elec       q    Type
REMARK                         _______ _______ _______ _____ _____    ______ ____
ROOT
ATOM      1  C   UNL     1      88.065  70.449  87.168  0.00  0.00    +0.000 A 
ATOM      2  C   UNL     1      88.503  70.232  88.484  0.00  0.00    +0.000 A 
ATOM      3  C   UNL     1      87.732  70.665  89.552  0.00  0.00    +0.000 A 
ATOM      4  C   UNL     1      86.523  71.317  89.316  0.00  0.00    +0.000 A 
ATOM      5  C   UNL     1      86.054  71.562  87.999  0.00  0.00    +0.000 A 
ATOM      6  C   UNL     1      84.827  72.224  87.744  0.00  0.00    +0.000 A 
ATOM      7  C   UNL     1      84.371  72.470  86.451  0.00  0.00    +0.000 A 
ATOM      8  C   UNL     1      85.133  72.064  85.373  0.00  0.00    +0.000 A 
ATOM      9  C   UNL     1      86.346  71.407  85.589  0.00  0.00    +0.000 A 
ATOM     10  C   UNL     1      86.842  71.130  86.892  0.00  0.00    +0.000 A 
ATOM     11 CL   UNL     1      85.631  71.805  90.724  0.00  0.00    +0.000 Cl
ENDROOT
BRANCH   1  12
ATOM     12  S   UNL     1      89.115  69.810  85.869  0.00  0.00    +0.000 S 
ATOM     13  O   UNL     1      90.010  70.868  85.448  0.00  0.00    +0.000 OA
ATOM     14  O   UNL     1      88.290  69.108  84.913  0.00  0.00    +0.000 OA
BRANCH  12  16
ATOM     15  C   UNL     1      90.014  67.275  86.247  0.00  0.00    +0.000 C 
ATOM     16  N   UNL     1      90.046  68.667  86.663  0.00  0.00    +0.000 NA
ATOM     17  H   UNL     1      91.016  68.974  86.584  0.00  0.00    +0.000 HD
ENDBRANCH  12  16
ENDBRANCH   1  12
TORSDOF 2
ENDMDL
