MODEL 1
REMARK VINA RESULT:      -5.3      0.000      0.000
REMARK  Name = *****
REMARK  3 active torsions:
REMARK  status: ('A' for Active; 'I' for Inactive)
REMARK    1  A    between atoms: C_3  and  N_4
REMARK    2  A    between atoms: N_4  and  S_5
REMARK    3  A    between atoms: S_5  and  C_8
REMARK                            x       y       z     vdW  Elec       q    Type
REMARK                         _______ _______ _______ _____ _____    ______ ____
ROOT
ATOM      1  C   UNL     1      88.123  70.405  87.181  0.00  0.00    +0.000 A 
ATOM      2  C   UNL     1      88.430  70.237  88.553  0.00  0.00    +0.000 A 
ATOM      3  C   UNL     1      87.573  70.704  89.559  0.00  0.00    +0.000 A 
ATOM      4  C   UNL     1      86.415  71.334  89.134  0.00  0.00    +0.000 A 
ATOM      5  C   UNL     1      85.331  71.926  89.969  0.00  0.00    +0.000 C 
ATOM      6  C   UNL     1      84.312  72.484  88.928  0.00  0.00    +0.000 C 
ATOM      7  C   UNL     1      84.925  72.156  87.611  0.00  0.00    +0.000 A 
ATOM      8  C   UNL     1      86.127  71.498  87.792  0.00  0.00    +0.000 A 
ATOM      9  C   UNL     1      86.934  71.065  86.767  0.00  0.00    +0.000 A 
ATOM     10  C   UNL     1      86.451  71.345  85.463  0.00  0.00    +0.000 A 
ATOM     11  C   UNL     1      85.227  72.015  85.266  0.00  0.00    +0.000 A 
ATOM     12  C   UNL     1      84.435  72.435  86.344  0.00  0.00    +0.000 A 
ENDROOT
BRANCH   1  13
ATOM     13  S   UNL     1      89.269  69.764  85.988  0.00  0.00    +0.000 S 
ATOM     14  O   UNL     1      88.524  69.356  84.814  0.00  0.00    +0.000 OA
ATOM     15  O   UNL     1      90.172  68.858  86.661  0.00  0.00    +0.000 OA
BRANCH  13  16
ATOM     16  N   UNL     1      90.111  71.172  85.514  0.00  0.00    +0.000 NA
ATOM     17  H   UNL     1      89.829  71.939  86.125  0.00  0.00    +0.000 HD
BRANCH  16  20
ATOM     18  C   UNL     1      90.764  72.497  83.381  0.00  0.00    +0.000 C 
ATOM     19  C   UNL     1      89.404  72.967  83.809  0.00  0.00    +0.000 C 
ATOM     20  C   UNL     1      89.847  71.565  84.118  0.00  0.00    +0.000 C 
ENDBRANCH  16  20
ENDBRANCH  13  16
ENDBRANCH   1  13
TORSDOF 3
ENDMDL
