MODEL 1
REMARK VINA RESULT:      -4.2      0.000      0.000
REMARK  Name = *****
REMARK  5 active torsions:
REMARK  status: ('A' for Active; 'I' for Inactive)
REMARK    1  A    between atoms: C_1  and  N_2
REMARK    2  A    between atoms: N_2  and  C_3
REMARK    3  A    between atoms: N_2  and  C_4
REMARK    4  A    between atoms: C_13  and  S_14
REMARK    5  A    between atoms: S_14  and  N_17
REMARK                            x       y       z     vdW  Elec       q    Type
REMARK                         _______ _______ _______ _____ _____    ______ ____
ROOT
ATOM      1  C   UNL     1      87.745  65.323  87.976  0.00  0.00    +0.000 A 
ATOM      2  C   UNL     1      86.734  65.896  88.760  0.00  0.00    +0.000 A 
ATOM      3  C   UNL     1      86.525  67.268  88.754  0.00  0.00    +0.000 A 
ATOM      4  C   UNL     1      87.326  68.089  87.963  0.00  0.00    +0.000 A 
ATOM      5  C   UNL     1      88.362  67.572  87.146  0.00  0.00    +0.000 A 
ATOM      6  C   UNL     1      88.568  66.163  87.165  0.00  0.00    +0.000 A 
ATOM      7  C   UNL     1      89.595  65.616  86.365  0.00  0.00    +0.000 A 
ATOM      8  C   UNL     1      90.420  66.404  85.566  0.00  0.00    +0.000 A 
ATOM      9  C   UNL     1      90.232  67.775  85.538  0.00  0.00    +0.000 A 
ATOM     10  C   UNL     1      89.214  68.356  86.309  0.00  0.00    +0.000 A 
ENDROOT
BRANCH   1  12
ATOM     11  C   UNL     1      86.946  63.117  87.361  0.00  0.00    +0.000 C 
ATOM     12  N   UNL     1      87.984  63.921  88.006  0.00  0.00    +0.000 N 
ATOM     13  C   UNL     1      88.337  63.482  89.360  0.00  0.00    +0.000 C 
ENDBRANCH   1  12
BRANCH  10  14
ATOM     14  S   UNL     1      89.018  70.134  86.179  0.00  0.00    +0.000 S 
ATOM     15  O   UNL     1      87.681  70.370  85.667  0.00  0.00    +0.000 OA
ATOM     16  O   UNL     1      89.409  70.703  87.457  0.00  0.00    +0.000 OA
BRANCH  14  17
ATOM     17  N   UNL     1      90.123  70.555  85.069  0.00  0.00    +0.000 NA
ATOM     18  C   UNL     1      89.815  71.540  84.516  0.00  0.00    +0.000 C 
ATOM     19  S   UNL     1      89.460  72.871  83.714  0.00  0.00    +0.000 S 
ENDBRANCH  14  17
ENDBRANCH  10  14
TORSDOF 3
ENDMDL
