REMARK  Name = *****
REMARK  6 active torsions:
REMARK  status: ('A' for Active; 'I' for Inactive)
REMARK    1  A    between atoms: C_1  and  C_2
REMARK    2  A    between atoms: N_4  and  C_5
REMARK    3  A    between atoms: C_8  and  S_15
REMARK    4  A    between atoms: S_15  and  N_18
REMARK    5  A    between atoms: N_18  and  C_19
REMARK    6  A    between atoms: N_18  and  C_20
REMARK                            x       y       z     vdW  Elec       q    Type
REMARK                         _______ _______ _______ _____ _____    ______ ____
ROOT
ATOM      1  C   UNL     1       4.633  -0.080   0.990  0.00  0.00    +0.000 A 
ATOM      2  C   UNL     1       5.326   0.828   0.185  0.00  0.00    +0.000 A 
ATOM      3  C   UNL     1       6.713   0.889   0.208  0.00  0.00    +0.000 A 
ATOM      4  C   UNL     1       7.440   0.034   1.039  0.00  0.00    +0.000 A 
ATOM      5  C   UNL     1       6.790  -0.904   1.885  0.00  0.00    +0.000 A 
ATOM      6  C   UNL     1       7.482  -1.789   2.755  0.00  0.00    +0.000 A 
ATOM      7  C   UNL     1       6.825  -2.706   3.572  0.00  0.00    +0.000 A 
ATOM      8  C   UNL     1       5.447  -2.772   3.547  0.00  0.00    +0.000 A 
ATOM      9  C   UNL     1       4.732  -1.918   2.706  0.00  0.00    +0.000 A 
ATOM     10  C   UNL     1       5.361  -0.964   1.858  0.00  0.00    +0.000 A 
ENDROOT
BRANCH   1  14
ATOM     11  C   UNL     1       0.896   0.262   0.461  0.00  0.00    +0.000 C 
ATOM     12  C   UNL     1       2.339   0.589   0.162  0.00  0.00    +0.000 C 
ATOM     13  O   UNL     1       2.624   1.419  -0.693  0.00  0.00    +0.000 OA
ATOM     14  N   UNL     1       3.211  -0.130   0.962  0.00  0.00    +0.000 N 
ATOM     15  H   UNL     1       2.792  -0.758   1.594  0.00  0.00    +0.000 HD
ENDBRANCH   1  14
BRANCH   4  16
ATOM     16  S   UNL     1       9.220   0.188   0.975  0.00  0.00    +0.000 S 
ATOM     17  O   UNL     1       9.568   1.133  -0.068  0.00  0.00    +0.000 OA
ATOM     18  O   UNL     1       9.698   0.382   2.327  0.00  0.00    +0.000 OA
BRANCH  16  19
ATOM     19  N   UNL     1       9.737  -1.352   0.425  0.00  0.00    +0.000 NA
ATOM     20  C   UNL     1       9.285  -1.710  -0.939  0.00  0.00    +0.000 C 
ATOM     21  C   UNL     1      11.196  -1.555   0.581  0.00  0.00    +0.000 C 
ENDBRANCH  16  19
ENDBRANCH   4  16
TORSDOF 3
