MODEL 1
REMARK VINA RESULT:      -4.1      0.000      0.000
REMARK  Name = *****
REMARK  5 active torsions:
REMARK  status: ('A' for Active; 'I' for Inactive)
REMARK    1  A    between atoms: C_1  and  O_2
REMARK    2  A    between atoms: O_2  and  C_3
REMARK    3  A    between atoms: C_4  and  S_13
REMARK    4  A    between atoms: S_13  and  C_16
REMARK    5  A    between atoms: C_16  and  N_17
REMARK                            x       y       z     vdW  Elec       q    Type
REMARK                         _______ _______ _______ _____ _____    ______ ____
ROOT
ATOM      1  C   UNL     1      87.174  70.984  88.387  0.00  0.00    +0.000 A 
ATOM      2  C   UNL     1      87.189  70.940  86.985  0.00  0.00    +0.000 A 
ATOM      3  C   UNL     1      86.137  71.556  86.232  0.00  0.00    +0.000 A 
ATOM      4  C   UNL     1      86.086  71.722  84.821  0.00  0.00    +0.000 A 
ATOM      5  C   UNL     1      85.001  72.318  84.170  0.00  0.00    +0.000 A 
ATOM      6  C   UNL     1      83.926  72.787  84.906  0.00  0.00    +0.000 A 
ATOM      7  C   UNL     1      83.947  72.676  86.292  0.00  0.00    +0.000 A 
ATOM      8  C   UNL     1      85.033  72.086  86.959  0.00  0.00    +0.000 A 
ATOM      9  C   UNL     1      85.012  72.035  88.357  0.00  0.00    +0.000 A 
ATOM     10  C   UNL     1      86.079  71.502  89.070  0.00  0.00    +0.000 A 
ENDROOT
BRANCH   2  11
ATOM     11  S   UNL     1      88.547  70.076  86.194  0.00  0.00    +0.000 S 
ATOM     12  O   UNL     1      88.152  69.764  84.832  0.00  0.00    +0.000 OA
ATOM     13  O   UNL     1      89.736  70.868  86.454  0.00  0.00    +0.000 OA
BRANCH  11  14
ATOM     14  C   UNL     1      88.691  68.504  87.020  0.00  0.00    +0.000 C 
BRANCH  14  15
ATOM     15  N   UNL     1      89.619  67.615  86.391  0.00  0.00    +0.000 NA
ATOM     16  C   UNL     1      90.356  66.848  85.900  0.00  0.00    +0.000 C 
ENDBRANCH  14  15
ENDBRANCH  11  14
ENDBRANCH   2  11
BRANCH   1  18
ATOM     17  C   UNL     1      88.570  71.386  90.179  0.00  0.00    +0.000 C 
ATOM     18  O   UNL     1      88.209  70.480  89.127  0.00  0.00    +0.000 OA
ENDBRANCH   1  18
TORSDOF 4
ENDMDL
