MODEL 1
REMARK VINA RESULT:      -4.3      0.000      0.000
REMARK  Name = *****
REMARK  7 active torsions:
REMARK  status: ('A' for Active; 'I' for Inactive)
REMARK    1  A    between atoms: C_1  and  C_2
REMARK    2  A    between atoms: C_2  and  O_3
REMARK    3  A    between atoms: O_3  and  C_4
REMARK    4  A    between atoms: C_7  and  S_10
REMARK    5  A    between atoms: S_10  and  N_13
REMARK    6  A    between atoms: N_13  and  C_14
REMARK    7  A    between atoms: C_14  and  C_15
REMARK                            x       y       z     vdW  Elec       q    Type
REMARK                         _______ _______ _______ _____ _____    ______ ____
ROOT
ATOM      1  C   UNL     1      89.202  67.387  86.694  0.00  0.00    +0.000 A 
ATOM      2  C   UNL     1      89.816  66.253  86.124  0.00  0.00    +0.000 A 
ATOM      3  C   UNL     1      89.054  65.073  85.934  0.00  0.00    +0.000 A 
ATOM      4  C   UNL     1      87.693  65.074  86.351  0.00  0.00    +0.000 A 
ATOM      5  C   UNL     1      87.104  66.217  86.904  0.00  0.00    +0.000 A 
ATOM      6  C   UNL     1      87.857  67.371  87.072  0.00  0.00    +0.000 A 
ATOM      7  C   UNL     1      89.730  63.977  85.338  0.00  0.00    +0.000 A 
ATOM      8  C   UNL     1      91.068  64.062  84.973  0.00  0.00    +0.000 A 
ATOM      9  C   UNL     1      91.718  65.246  85.212  0.00  0.00    +0.000 A 
ATOM     10  N   UNL     1      91.121  66.315  85.772  0.00  0.00    +0.000 NA
ENDROOT
BRANCH   4  11
ATOM     11  S   UNL     1      86.662  63.621  86.229  0.00  0.00    +0.000 S 
ATOM     12  O   UNL     1      85.380  63.929  86.823  0.00  0.00    +0.000 OA
ATOM     13  O   UNL     1      86.758  63.108  84.881  0.00  0.00    +0.000 OA
BRANCH  11  14
ATOM     14  N   UNL     1      87.423  62.526  87.239  0.00  0.00    +0.000 NA
ATOM     15  H   UNL     1      88.359  62.889  87.423  0.00  0.00    +0.000 HD
BRANCH  14  16
ATOM     16  C   UNL     1      86.825  62.223  88.529  0.00  0.00    +0.000 C 
BRANCH  16  17
ATOM     17  C   UNL     1      87.441  63.165  89.514  0.00  0.00    +0.000 C 
ATOM     18  C   UNL     1      88.711  63.590  89.473  0.00  0.00    +0.000 C 
ENDBRANCH  16  17
ENDBRANCH  14  16
ENDBRANCH  11  14
ENDBRANCH   4  11
BRANCH   1  19
ATOM     19  O   UNL     1      90.016  68.490  86.846  0.00  0.00    +0.000 OA
BRANCH  19  21
ATOM     20  C   UNL     1      89.662  70.675  85.970  0.00  0.00    +0.000 C 
ATOM     21  C   UNL     1      89.413  69.745  87.144  0.00  0.00    +0.000 C 
ENDBRANCH  19  21
ENDBRANCH   1  19
TORSDOF 6
ENDMDL
