REMARK  Name = *****
REMARK  4 active torsions:
REMARK  status: ('A' for Active; 'I' for Inactive)
REMARK    1  A    between atoms: C_5  and  S_7
REMARK    2  A    between atoms: S_7  and  N_10
REMARK    3  A    between atoms: N_10  and  C_11
REMARK    4  A    between atoms: C_11  and  C_12
REMARK                            x       y       z     vdW  Elec       q    Type
REMARK                         _______ _______ _______ _____ _____    ______ ____
ROOT
ATOM      1  C   UNL     1      -2.531  -0.972   0.697  0.00  0.00    +0.000 A 
ATOM      2  C   UNL     1      -2.285   0.383   0.531  0.00  0.00    +0.000 A 
ATOM      3  C   UNL     1      -1.022   0.858   0.144  0.00  0.00    +0.000 A 
ATOM      4  C   UNL     1       0.066  -0.033  -0.096  0.00  0.00    +0.000 A 
ATOM      5  C   UNL     1      -0.202  -1.420   0.193  0.00  0.00    +0.000 A 
ATOM      6  C   UNL     1      -1.491  -1.871   0.539  0.00  0.00    +0.000 A 
ATOM      7  C   UNL     1       1.257   0.589  -0.614  0.00  0.00    +0.000 A 
ATOM      8  C   UNL     1       1.373   1.982  -0.753  0.00  0.00    +0.000 A 
ATOM      9  C   UNL     1       0.313   2.812  -0.433  0.00  0.00    +0.000 A 
ATOM     10  C   UNL     1      -0.880   2.247  -0.008  0.00  0.00    +0.000 A 
ATOM     11 CL   UNL     1       2.598  -0.280  -1.282  0.00  0.00    +0.000 Cl
ENDROOT
BRANCH   5  12
ATOM     12  S   UNL     1       1.108  -2.629   0.312  0.00  0.00    +0.000 S 
ATOM     13  O   UNL     1       1.278  -3.214  -0.998  0.00  0.00    +0.000 OA
ATOM     14  O   UNL     1       2.190  -2.077   1.096  0.00  0.00    +0.000 OA
BRANCH  12  15
ATOM     15  N   UNL     1       0.453  -3.870   1.259  0.00  0.00    +0.000 NA
ATOM     16  H   UNL     1       0.876  -4.746   0.951  0.00  0.00    +0.000 HD
BRANCH  15  17
ATOM     17  C   UNL     1       0.638  -3.781   2.721  0.00  0.00    +0.000 C 
BRANCH  17  18
ATOM     18  C   UNL     1      -0.289  -4.758   3.440  0.00  0.00    +0.000 C 
ATOM     19 CL   UNL     1       0.084  -6.447   3.005  0.00  0.00    +0.000 Cl
ENDBRANCH  17  18
ENDBRANCH  15  17
ENDBRANCH  12  15
ENDBRANCH   5  12
TORSDOF 4
