MODEL 1
REMARK VINA RESULT:      -4.2      0.000      0.000
REMARK  Name = *****
REMARK  8 active torsions:
REMARK  status: ('A' for Active; 'I' for Inactive)
REMARK    1  A    between atoms: C_1  and  C_2
REMARK    2  A    between atoms: C_2  and  O_3
REMARK    3  A    between atoms: O_3  and  C_4
REMARK    4  A    between atoms: N_6  and  S_13
REMARK    5  A    between atoms: S_13  and  C_16
REMARK    6  A    between atoms: C_16  and  C_17
REMARK    7  A    between atoms: C_16  and  C_18
REMARK    8  A    between atoms: C_16  and  C_19
REMARK                            x       y       z     vdW  Elec       q    Type
REMARK                         _______ _______ _______ _____ _____    ______ ____
ROOT
ATOM      1  C   UNL     1      89.537  67.238  86.688  0.00  0.00    +0.000 A 
ATOM      2  N   UNL     1      88.344  67.012  87.227  0.00  0.00    +0.000 NA
ATOM      3  N   UNL     1      88.179  65.664  87.079  0.00  0.00    +0.000 N 
ATOM      4  C   UNL     1      89.206  65.062  86.364  0.00  0.00    +0.000 A 
ATOM      5  C   UNL     1      89.454  63.749  85.919  0.00  0.00    +0.000 A 
ATOM      6  C   UNL     1      90.638  63.503  85.214  0.00  0.00    +0.000 A 
ATOM      7  C   UNL     1      91.551  64.521  84.959  0.00  0.00    +0.000 A 
ATOM      8  C   UNL     1      91.304  65.821  85.405  0.00  0.00    +0.000 A 
ATOM      9  C   UNL     1      90.118  66.091  86.112  0.00  0.00    +0.000 A 
ENDROOT
BRANCH   3  10
ATOM     10  S   UNL     1      86.681  64.868  87.479  0.00  0.00    +0.000 S 
ATOM     11  O   UNL     1      85.770  65.916  87.908  0.00  0.00    +0.000 OA
ATOM     12  O   UNL     1      86.361  64.076  86.304  0.00  0.00    +0.000 OA
BRANCH  10  13
ATOM     13  C   UNL     1      86.995  63.742  88.874  0.00  0.00    +0.000 C 
ATOM     14  C   UNL     1      85.912  63.896  89.949  0.00  0.00    +0.000 C 
ATOM     15  C   UNL     1      86.966  62.301  88.335  0.00  0.00    +0.000 C 
ATOM     16  C   UNL     1      88.374  64.018  89.489  0.00  0.00    +0.000 C 
ENDBRANCH  10  13
ENDBRANCH   3  10
BRANCH   1  17
ATOM     17  O   UNL     1      90.071  68.480  86.668  0.00  0.00    +0.000 OA
BRANCH  17  19
ATOM     18  C   UNL     1      89.730  70.707  85.892  0.00  0.00    +0.000 C 
ATOM     19  C   UNL     1      89.763  69.241  85.500  0.00  0.00    +0.000 C 
ENDBRANCH  17  19
ENDBRANCH   1  17
TORSDOF 4
ENDMDL
