REMARK  Name = *****
REMARK  3 active torsions:
REMARK  status: ('A' for Active; 'I' for Inactive)
REMARK    1  A    between atoms: C_7  and  N_14
REMARK    2  A    between atoms: C_10  and  N_11
REMARK    3  A    between atoms: C_15  and  C_17
REMARK                            x       y       z     vdW  Elec       q    Type
REMARK                         _______ _______ _______ _____ _____    ______ ____
ROOT
ATOM      1  C   UNL     1       2.675  -0.452  -0.002  0.00  0.00    +0.000 A 
ATOM      2  C   UNL     1       2.579   0.922   0.107  0.00  0.00    +0.000 A 
ATOM      3  C   UNL     1       1.324   1.522   0.084  0.00  0.00    +0.000 A 
ATOM      4  C   UNL     1       0.128   0.766  -0.047  0.00  0.00    +0.000 A 
ATOM      5  C   UNL     1       0.214  -0.652  -0.166  0.00  0.00    +0.000 A 
ATOM      6  C   UNL     1       1.517  -1.222  -0.136  0.00  0.00    +0.000 A 
ATOM      7  C   UNL     1      -0.995  -1.423  -0.312  0.00  0.00    +0.000 A 
ATOM      8  C   UNL     1      -2.238  -0.775  -0.347  0.00  0.00    +0.000 A 
ATOM      9  C   UNL     1      -2.329   0.606  -0.232  0.00  0.00    +0.000 A 
ATOM     10  C   UNL     1      -1.161   1.351  -0.077  0.00  0.00    +0.000 A 
ENDROOT
BRANCH   7  11
ATOM     11  N   UNL     1      -0.911  -2.836  -0.421  0.00  0.00    +0.000 N 
ATOM     12  C   UNL     1      -1.927  -3.766  -0.548  0.00  0.00    +0.000 C 
ATOM     13  O   UNL     1      -3.130  -3.516  -0.609  0.00  0.00    +0.000 OA
ATOM     14  H   UNL     1       0.000  -3.207  -0.405  0.00  0.00    +0.000 HD
BRANCH  12  15
ATOM     15  C   UNL     1      -1.466  -5.213  -0.668  0.00  0.00    +0.000 C 
ATOM     16 CL   UNL     1       0.249  -5.437  -0.242  0.00  0.00    +0.000 Cl
ENDBRANCH  12  15
ENDBRANCH   7  11
BRANCH  10  17
ATOM     17  N   UNL     1      -1.329   2.787   0.052  0.00  0.00    +0.000 N 
ATOM     18  O   UNL     1      -1.032   3.299   1.139  0.00  0.00    +0.000 OA
ATOM     19  O   UNL     1      -1.782   3.390  -0.931  0.00  0.00    +0.000 OA
ENDBRANCH  10  17
TORSDOF 3
