REMARK  Name = *****
REMARK  7 active torsions:
REMARK  status: ('A' for Active; 'I' for Inactive)
REMARK    1  A    between atoms: C_1  and  C_2
REMARK    2  A    between atoms: C_2  and  C_3
REMARK    3  A    between atoms: C_2  and  N_4
REMARK    4  A    between atoms: N_4  and  S_5
REMARK    5  A    between atoms: S_5  and  C_8
REMARK    6  A    between atoms: C_11  and  O_18
REMARK    7  A    between atoms: O_18  and  C_19
REMARK                            x       y       z     vdW  Elec       q    Type
REMARK                         _______ _______ _______ _____ _____    ______ ____
ROOT
ATOM      1  C   UNL     1       5.395  -2.924   1.178  0.00  0.00    +0.000 A 
ATOM      2  C   UNL     1       4.922  -4.081   0.544  0.00  0.00    +0.000 A 
ATOM      3  C   UNL     1       5.225  -5.338   1.055  0.00  0.00    +0.000 A 
ATOM      4  C   UNL     1       6.008  -5.455   2.204  0.00  0.00    +0.000 A 
ATOM      5  C   UNL     1       6.508  -4.294   2.854  0.00  0.00    +0.000 A 
ATOM      6  C   UNL     1       7.308  -4.398   4.015  0.00  0.00    +0.000 A 
ATOM      7  C   UNL     1       7.823  -3.279   4.665  0.00  0.00    +0.000 A 
ATOM      8  C   UNL     1       7.553  -2.018   4.163  0.00  0.00    +0.000 A 
ATOM      9  C   UNL     1       6.765  -1.882   3.020  0.00  0.00    +0.000 A 
ATOM     10  C   UNL     1       6.214  -3.000   2.337  0.00  0.00    +0.000 A 
ENDROOT
BRANCH   1  11
ATOM     11  S   UNL     1       4.913  -1.368   0.451  0.00  0.00    +0.000 S 
ATOM     12  O   UNL     1       3.939  -1.613  -0.591  0.00  0.00    +0.000 OA
ATOM     13  O   UNL     1       6.120  -0.618   0.181  0.00  0.00    +0.000 OA
BRANCH  11  14
ATOM     14  N   UNL     1       4.123  -0.557   1.699  0.00  0.00    +0.000 NA
ATOM     15  H   UNL     1       4.568  -0.854   2.567  0.00  0.00    +0.000 HD
BRANCH  14  17
ATOM     16  C   UNL     1       2.315  -2.113   2.369  0.00  0.00    +0.000 C 
ATOM     17  C   UNL     1       2.670  -0.711   1.894  0.00  0.00    +0.000 C 
ATOM     18  C   UNL     1       2.228   0.317   2.936  0.00  0.00    +0.000 C 
ENDBRANCH  14  17
ENDBRANCH  11  14
ENDBRANCH   1  11
BRANCH   4  19
ATOM     19  O   UNL     1       6.342  -6.662   2.775  0.00  0.00    +0.000 OA
ATOM     20  C   UNL     1       5.908  -7.849   2.124  0.00  0.00    +0.000 C 
ENDBRANCH   4  19
TORSDOF 4
