MODEL 1
REMARK VINA RESULT:      -4.4      0.000      0.000
REMARK  Name = *****
REMARK  5 active torsions:
REMARK  status: ('A' for Active; 'I' for Inactive)
REMARK    1  A    between atoms: C_1  and  C_2
REMARK    2  A    between atoms: C_2  and  C_4
REMARK    3  A    between atoms: C_7  and  O_10
REMARK    4  A    between atoms: C_14  and  C_15
REMARK    5  A    between atoms: C_15  and  C_17
REMARK                            x       y       z     vdW  Elec       q    Type
REMARK                         _______ _______ _______ _____ _____    ______ ____
ROOT
ATOM      1  C   UNL     1      88.219  70.524  87.579  0.00  0.00    +0.000 A 
ATOM      2  C   UNL     1      86.980  71.081  87.101  0.00  0.00    +0.000 A 
ATOM      3  C   UNL     1      86.102  71.606  88.100  0.00  0.00    +0.000 A 
ATOM      4  C   UNL     1      86.463  71.521  89.465  0.00  0.00    +0.000 A 
ATOM      5  C   UNL     1      87.636  70.917  89.891  0.00  0.00    +0.000 A 
ATOM      6  C   UNL     1      88.524  70.434  88.949  0.00  0.00    +0.000 A 
ATOM      7  C   UNL     1      84.872  72.197  87.726  0.00  0.00    +0.000 A 
ATOM      8  C   UNL     1      84.486  72.321  86.398  0.00  0.00    +0.000 A 
ATOM      9  C   UNL     1      85.305  71.814  85.410  0.00  0.00    +0.000 A 
ATOM     10  C   UNL     1      86.515  71.177  85.742  0.00  0.00    +0.000 A 
ENDROOT
BRANCH   1  12
ATOM     11  C   UNL     1      89.608  68.639  86.530  0.00  0.00    +0.000 C 
ATOM     12  C   UNL     1      89.323  70.111  86.679  0.00  0.00    +0.000 C 
ATOM     13  O   UNL     1      90.007  70.966  86.129  0.00  0.00    +0.000 OA
ENDBRANCH   1  12
BRANCH  10  14
ATOM     14  C   UNL     1      87.166  70.555  84.560  0.00  0.00    +0.000 C 
ATOM     15  O   UNL     1      87.824  71.257  83.795  0.00  0.00    +0.000 OA
ATOM     16  C   UNL     1      86.806  69.134  84.217  0.00  0.00    +0.000 C 
ENDBRANCH  10  14
BRANCH   4  17
ATOM     17  O   UNL     1      85.691  72.047  90.471  0.00  0.00    +0.000 OA
ATOM     18  H   UNL     1      85.835  72.926  90.760  0.00  0.00    +0.000 HD
ENDBRANCH   4  17
TORSDOF 3
ENDMDL
