MODEL 1
REMARK VINA RESULT:      -4.5      0.000      0.000
REMARK  Name = *****
REMARK  4 active torsions:
REMARK  status: ('A' for Active; 'I' for Inactive)
REMARK    1  A    between atoms: C_1  and  C_2
REMARK    2  A    between atoms: C_2  and  S_3
REMARK    3  A    between atoms: S_3  and  C_6
REMARK    4  A    between atoms: C_7  and  C_16
REMARK                            x       y       z     vdW  Elec       q    Type
REMARK                         _______ _______ _______ _____ _____    ______ ____
ROOT
ATOM      1  C   UNL     1      87.484  70.925  86.040  0.00  0.00    +0.000 A 
ATOM      2  C   UNL     1      88.101  70.558  87.265  0.00  0.00    +0.000 A 
ATOM      3  C   UNL     1      87.441  70.859  88.463  0.00  0.00    +0.000 A 
ATOM      4  C   UNL     1      86.201  71.488  88.462  0.00  0.00    +0.000 A 
ATOM      5  C   UNL     1      85.571  71.840  87.268  0.00  0.00    +0.000 A 
ATOM      6  C   UNL     1      84.312  72.462  87.336  0.00  0.00    +0.000 A 
ATOM      7  C   UNL     1      83.627  72.836  86.186  0.00  0.00    +0.000 A 
ATOM      8  C   UNL     1      84.198  72.590  84.950  0.00  0.00    +0.000 A 
ATOM      9  C   UNL     1      85.451  71.972  84.870  0.00  0.00    +0.000 A 
ATOM     10  C   UNL     1      86.193  71.572  86.019  0.00  0.00    +0.000 A 
ATOM     11  C   UNL     1      89.429  69.861  87.392  0.00  0.00    +0.000 C 
ENDROOT
BRANCH   1  12
ATOM     12  S   UNL     1      88.310  70.575  84.467  0.00  0.00    +0.000 S 
ATOM     13  O   UNL     1      87.413  70.868  83.366  0.00  0.00    +0.000 OA
ATOM     14  O   UNL     1      88.901  69.252  84.550  0.00  0.00    +0.000 OA
BRANCH  12  16
ATOM     15  C   UNL     1      89.148  73.078  83.756  0.00  0.00    +0.000 C 
ATOM     16  C   UNL     1      89.611  71.796  84.421  0.00  0.00    +0.000 C 
ENDBRANCH  12  16
ENDBRANCH   1  12
TORSDOF 2
ENDMDL
