MODEL 1
REMARK VINA RESULT:      -4.6      0.000      0.000
REMARK  Name = *****
REMARK  4 active torsions:
REMARK  status: ('A' for Active; 'I' for Inactive)
REMARK    1  A    between atoms: C_1  and  C_2
REMARK    2  A    between atoms: C_2  and  N_3
REMARK    3  A    between atoms: N_3  and  S_4
REMARK    4  A    between atoms: S_4  and  C_7
REMARK                            x       y       z     vdW  Elec       q    Type
REMARK                         _______ _______ _______ _____ _____    ______ ____
ROOT
ATOM      1  C   UNL     1      88.044  70.468  87.255  0.00  0.00    +0.000 A 
ATOM      2  C   UNL     1      88.396  70.295  88.605  0.00  0.00    +0.000 A 
ATOM      3  C   UNL     1      87.571  70.774  89.610  0.00  0.00    +0.000 A 
ATOM      4  C   UNL     1      86.384  71.425  89.281  0.00  0.00    +0.000 A 
ATOM      5  C   UNL     1      85.989  71.613  87.930  0.00  0.00    +0.000 A 
ATOM      6  C   UNL     1      84.783  72.274  87.584  0.00  0.00    +0.000 A 
ATOM      7  C   UNL     1      84.389  72.464  86.262  0.00  0.00    +0.000 A 
ATOM      8  C   UNL     1      85.193  71.997  85.243  0.00  0.00    +0.000 A 
ATOM      9  C   UNL     1      86.387  71.342  85.550  0.00  0.00    +0.000 A 
ATOM     10  C   UNL     1      86.830  71.123  86.883  0.00  0.00    +0.000 A 
ATOM     11 BR   UNL     1      85.348  72.039  90.763  0.00  0.00    +0.000 Br
ENDROOT
BRANCH   1  12
ATOM     12  S   UNL     1      89.214  69.775  86.082  0.00  0.00    +0.000 S 
ATOM     13  O   UNL     1      88.523  69.234  84.936  0.00  0.00    +0.000 OA
ATOM     14  O   UNL     1      90.149  68.959  86.829  0.00  0.00    +0.000 OA
BRANCH  12  15
ATOM     15  N   UNL     1      90.093  71.119  85.597  0.00  0.00    +0.000 NA
ATOM     16  H   UNL     1      89.680  71.923  86.072  0.00  0.00    +0.000 HD
BRANCH  15  18
ATOM     17  C   UNL     1      89.386  72.738  83.937  0.00  0.00    +0.000 C 
ATOM     18  C   UNL     1      90.195  71.477  84.187  0.00  0.00    +0.000 C 
ENDBRANCH  15  18
ENDBRANCH  12  15
ENDBRANCH   1  12
TORSDOF 3
ENDMDL
