MODEL 1
REMARK VINA RESULT:      -4.6      0.000      0.000
REMARK  Name = *****
REMARK  7 active torsions:
REMARK  status: ('A' for Active; 'I' for Inactive)
REMARK    1  A    between atoms: C_1  and  C_2
REMARK    2  A    between atoms: C_2  and  N_3
REMARK    3  A    between atoms: N_3  and  C_4
REMARK    4  A    between atoms: N_3  and  S_6
REMARK    5  A    between atoms: C_4  and  C_5
REMARK    6  A    between atoms: S_6  and  C_9
REMARK    7  A    between atoms: C_12  and  C_19
REMARK                            x       y       z     vdW  Elec       q    Type
REMARK                         _______ _______ _______ _____ _____    ______ ____
ROOT
ATOM      1  C   UNL     1      87.578  70.837  86.947  0.00  0.00    +0.000 A 
ATOM      2  C   UNL     1      88.621  70.458  87.805  0.00  0.00    +0.000 A 
ATOM      3  C   UNL     1      88.479  70.587  89.178  0.00  0.00    +0.000 A 
ATOM      4  C   UNL     1      87.297  71.103  89.721  0.00  0.00    +0.000 A 
ATOM      5  C   UNL     1      86.242  71.528  88.866  0.00  0.00    +0.000 A 
ATOM      6  C   UNL     1      85.050  72.079  89.392  0.00  0.00    +0.000 A 
ATOM      7  C   UNL     1      84.017  72.531  88.575  0.00  0.00    +0.000 A 
ATOM      8  C   UNL     1      84.153  72.454  87.203  0.00  0.00    +0.000 A 
ATOM      9  C   UNL     1      85.315  71.912  86.652  0.00  0.00    +0.000 A 
ATOM     10  C   UNL     1      86.379  71.415  87.451  0.00  0.00    +0.000 A 
ATOM     11  C   UNL     1      87.203  71.208  91.224  0.00  0.00    +0.000 C 
ENDROOT
BRANCH   1  12
ATOM     12  S   UNL     1      87.860  70.530  85.208  0.00  0.00    +0.000 S 
ATOM     13  O   UNL     1      87.843  71.821  84.555  0.00  0.00    +0.000 OA
ATOM     14  O   UNL     1      87.030  69.435  84.749  0.00  0.00    +0.000 OA
BRANCH  12  15
ATOM     15  N   UNL     1      89.471  69.931  85.167  0.00  0.00    +0.000 NA
BRANCH  15  17
ATOM     16  C   UNL     1      90.031  67.654  85.937  0.00  0.00    +0.000 C 
ATOM     17  C   UNL     1      89.613  68.507  84.750  0.00  0.00    +0.000 C 
ENDBRANCH  15  17
BRANCH  15  18
ATOM     18  C   UNL     1      90.477  70.851  84.564  0.00  0.00    +0.000 C 
ATOM     19  C   UNL     1      90.861  70.498  83.136  0.00  0.00    +0.000 C 
ENDBRANCH  15  18
ENDBRANCH  12  15
ENDBRANCH   1  12
TORSDOF 4
ENDMDL
