MODEL 1
REMARK VINA RESULT:      -4.2      0.000      0.000
REMARK  Name = *****
REMARK  4 active torsions:
REMARK  status: ('A' for Active; 'I' for Inactive)
REMARK    1  A    between atoms: C_5  and  S_7
REMARK    2  A    between atoms: S_7  and  N_10
REMARK    3  A    between atoms: N_10  and  C_11
REMARK    4  A    between atoms: C_11  and  C_12
REMARK                            x       y       z     vdW  Elec       q    Type
REMARK                         _______ _______ _______ _____ _____    ______ ____
ROOT
ATOM      1  C   UNL     1      85.324  71.979  85.330  0.00  0.00    +0.000 A 
ATOM      2  C   UNL     1      84.616  72.292  86.481  0.00  0.00    +0.000 A 
ATOM      3  C   UNL     1      85.140  72.036  87.758  0.00  0.00    +0.000 A 
ATOM      4  C   UNL     1      86.425  71.440  87.929  0.00  0.00    +0.000 A 
ATOM      5  C   UNL     1      87.078  71.031  86.710  0.00  0.00    +0.000 A 
ATOM      6  C   UNL     1      86.546  71.340  85.443  0.00  0.00    +0.000 A 
ATOM      7  C   UNL     1      86.881  71.362  89.292  0.00  0.00    +0.000 A 
ATOM      8  C   UNL     1      86.068  71.733  90.376  0.00  0.00    +0.000 A 
ATOM      9  C   UNL     1      84.796  72.235  90.161  0.00  0.00    +0.000 A 
ATOM     10  C   UNL     1      84.349  72.402  88.859  0.00  0.00    +0.000 A 
ATOM     11 CL   UNL     1      88.507  70.982  89.755  0.00  0.00    +0.000 Cl
ENDROOT
BRANCH   5  12
ATOM     12  S   UNL     1      88.501  69.951  86.719  0.00  0.00    +0.000 S 
ATOM     13  O   UNL     1      89.657  70.761  87.030  0.00  0.00    +0.000 OA
ATOM     14  O   UNL     1      88.162  68.729  87.412  0.00  0.00    +0.000 OA
BRANCH  12  15
ATOM     15  N   UNL     1      88.706  69.508  85.098  0.00  0.00    +0.000 NA
ATOM     16  H   UNL     1      87.936  69.917  84.569  0.00  0.00    +0.000 HD
BRANCH  15  17
ATOM     17  C   UNL     1      89.961  69.914  84.435  0.00  0.00    +0.000 C 
BRANCH  17  18
ATOM     18  C   UNL     1      89.688  70.979  83.375  0.00  0.00    +0.000 C 
ATOM     19 CL   UNL     1      89.594  72.606  84.099  0.00  0.00    +0.000 Cl
ENDBRANCH  17  18
ENDBRANCH  15  17
ENDBRANCH  12  15
ENDBRANCH   5  12
TORSDOF 4
ENDMDL
