MODEL 1
REMARK VINA RESULT:      -4.6      0.000      0.000
REMARK  Name = *****
REMARK  3 active torsions:
REMARK  status: ('A' for Active; 'I' for Inactive)
REMARK    1  A    between atoms: C_4  and  S_6
REMARK    2  A    between atoms: S_6  and  C_9
REMARK    3  A    between atoms: C_12  and  O_19
REMARK                            x       y       z     vdW  Elec       q    Type
REMARK                         _______ _______ _______ _____ _____    ______ ____
ROOT
ATOM      1  C   UNL     1      88.592  66.574  86.215  0.00  0.00    +0.000 A 
ATOM      2  C   UNL     1      87.345  66.119  86.661  0.00  0.00    +0.000 A 
ATOM      3  C   UNL     1      87.116  64.758  86.763  0.00  0.00    +0.000 A 
ATOM      4  C   UNL     1      88.119  63.851  86.420  0.00  0.00    +0.000 A 
ATOM      5  C   UNL     1      89.371  64.273  85.953  0.00  0.00    +0.000 A 
ATOM      6  C   UNL     1      89.621  65.664  85.829  0.00  0.00    +0.000 A 
ATOM      7  C   UNL     1      90.897  66.021  85.321  0.00  0.00    +0.000 A 
ATOM      8  C   UNL     1      91.841  65.058  84.985  0.00  0.00    +0.000 A 
ATOM      9  C   UNL     1      91.498  63.740  85.161  0.00  0.00    +0.000 A 
ATOM     10  N   UNL     1      90.301  63.347  85.633  0.00  0.00    +0.000 NA
ATOM     11 CL   UNL     1      85.584  64.202  87.330  0.00  0.00    +0.000 Cl
ENDROOT
BRANCH   1  12
ATOM     12  S   UNL     1      88.819  68.349  86.159  0.00  0.00    +0.000 S 
ATOM     13  O   UNL     1      88.820  68.743  84.762  0.00  0.00    +0.000 OA
ATOM     14  O   UNL     1      89.963  68.660  86.995  0.00  0.00    +0.000 OA
BRANCH  12  18
ATOM     15  C   UNL     1      87.538  70.913  88.429  0.00  0.00    +0.000 C 
ATOM     16  C   UNL     1      86.507  71.256  87.367  0.00  0.00    +0.000 C 
ATOM     17  C   UNL     1      86.846  70.300  86.232  0.00  0.00    +0.000 C 
ATOM     18  C   UNL     1      87.341  69.020  86.918  0.00  0.00    +0.000 C 
ATOM     19  C   UNL     1      87.584  69.393  88.388  0.00  0.00    +0.000 C 
ENDBRANCH  12  18
ENDBRANCH   1  12
BRANCH   4  20
ATOM     20  O   UNL     1      87.878  62.497  86.541  0.00  0.00    +0.000 OA
ATOM     21  H   UNL     1      87.092  62.196  86.953  0.00  0.00    +0.000 HD
ENDBRANCH   4  20
TORSDOF 3
ENDMDL
