MODEL 1
REMARK VINA RESULT:      -4.5      0.000      0.000
REMARK  Name = *****
REMARK  5 active torsions:
REMARK  status: ('A' for Active; 'I' for Inactive)
REMARK    1  A    between atoms: C_1  and  C_2
REMARK    2  A    between atoms: C_2  and  C_3
REMARK    3  A    between atoms: C_3  and  N_4
REMARK    4  A    between atoms: N_4  and  S_5
REMARK    5  A    between atoms: S_5  and  C_8
REMARK                            x       y       z     vdW  Elec       q    Type
REMARK                         _______ _______ _______ _____ _____    ______ ____
ROOT
ATOM      1  C   UNL     1     103.264 128.130  83.306  0.00  0.00    +0.000 A 
ATOM      2  C   UNL     1     101.948 128.596  83.593  0.00  0.00    +0.000 A 
ATOM      3  C   UNL     1     101.482 129.736  84.303  0.00  0.00    +0.000 A 
ATOM      4  C   UNL     1     100.101 129.992  84.445  0.00  0.00    +0.000 A 
ATOM      5  C   UNL     1      99.128 129.140  83.897  0.00  0.00    +0.000 A 
ATOM      6  C   UNL     1      99.592 128.024  83.208  0.00  0.00    +0.000 A 
ATOM      7  C   UNL     1     100.957 127.806  83.091  0.00  0.00    +0.000 A 
ATOM      8  C   UNL     1     101.147 126.644  82.376  0.00  0.00    +0.000 A 
ATOM      9  C   UNL     1     102.407 126.155  82.094  0.00  0.00    +0.000 A 
ATOM     10  C   UNL     1     103.478 126.928  82.579  0.00  0.00    +0.000 A 
ATOM     11  N   UNL     1      99.898 126.149  82.053  0.00  0.00    +0.000 N 
ATOM     12  C   UNL     1      98.866 126.961  82.541  0.00  0.00    +0.000 C 
ATOM     13  O   UNL     1      97.673 126.743  82.386  0.00  0.00    +0.000 OA
ATOM     14  H   UNL     1      99.750 125.322  81.540  0.00  0.00    +0.000 HD
ENDROOT
BRANCH   1  15
ATOM     15  S   UNL     1     104.688 129.047  83.846  0.00  0.00    +0.000 S 
ATOM     16  O   UNL     1     104.893 128.774  85.251  0.00  0.00    +0.000 OA
ATOM     17  O   UNL     1     104.575 130.398  83.348  0.00  0.00    +0.000 OA
BRANCH  15  18
ATOM     18  N   UNL     1     105.943 128.317  83.005  0.00  0.00    +0.000 NA
ATOM     19  H   UNL     1     106.653 128.068  83.694  0.00  0.00    +0.000 HD
BRANCH  18  20
ATOM     20  C   UNL     1     106.624 129.046  81.936  0.00  0.00    +0.000 C 
BRANCH  20  22
ATOM     21  C   UNL     1     104.988 129.236  80.033  0.00  0.00    +0.000 C 
ATOM     22  C   UNL     1     106.182 128.479  80.591  0.00  0.00    +0.000 C 
ENDBRANCH  20  22
ENDBRANCH  18  20
ENDBRANCH  15  18
ENDBRANCH   1  15
TORSDOF 4
ENDMDL
