REMARK  Name = *****
REMARK  5 active torsions:
REMARK  status: ('A' for Active; 'I' for Inactive)
REMARK    1  A    between atoms: C_1  and  O_2
REMARK    2  A    between atoms: O_2  and  C_3
REMARK    3  A    between atoms: C_4  and  S_13
REMARK    4  A    between atoms: S_13  and  C_16
REMARK    5  A    between atoms: C_16  and  N_17
REMARK                            x       y       z     vdW  Elec       q    Type
REMARK                         _______ _______ _______ _____ _____    ______ ____
ROOT
ATOM      1  C   UNL     1       3.013   1.783   0.213  0.00  0.00    +0.000 A 
ATOM      2  C   UNL     1       4.388   1.913  -0.034  0.00  0.00    +0.000 A 
ATOM      3  C   UNL     1       5.201   2.730   0.817  0.00  0.00    +0.000 A 
ATOM      4  C   UNL     1       6.618   2.844   0.785  0.00  0.00    +0.000 A 
ATOM      5  C   UNL     1       7.326   3.690   1.645  0.00  0.00    +0.000 A 
ATOM      6  C   UNL     1       6.647   4.447   2.584  0.00  0.00    +0.000 A 
ATOM      7  C   UNL     1       5.263   4.342   2.674  0.00  0.00    +0.000 A 
ATOM      8  C   UNL     1       4.540   3.492   1.821  0.00  0.00    +0.000 A 
ATOM      9  C   UNL     1       3.153   3.403   1.984  0.00  0.00    +0.000 A 
ATOM     10  C   UNL     1       2.394   2.546   1.197  0.00  0.00    +0.000 A 
ENDROOT
BRANCH   2  11
ATOM     11  S   UNL     1       5.064   1.044  -1.450  0.00  0.00    +0.000 S 
ATOM     12  O   UNL     1       6.288   1.715  -1.850  0.00  0.00    +0.000 OA
ATOM     13  O   UNL     1       5.079  -0.363  -1.091  0.00  0.00    +0.000 OA
BRANCH  11  14
ATOM     14  C   UNL     1       3.919   1.300  -2.791  0.00  0.00    +0.000 C 
BRANCH  14  15
ATOM     15  N   UNL     1       4.471   0.994  -4.075  0.00  0.00    +0.000 NA
ATOM     16  C   UNL     1       4.877   0.751  -5.147  0.00  0.00    +0.000 C 
ENDBRANCH  14  15
ENDBRANCH  11  14
ENDBRANCH   2  11
BRANCH   1  18
ATOM     17  C   UNL     1       1.861  -0.215   0.231  0.00  0.00    +0.000 C 
ATOM     18  O   UNL     1       2.231   0.942  -0.531  0.00  0.00    +0.000 OA
ENDBRANCH   1  18
TORSDOF 4
