MODEL 1
REMARK VINA RESULT:      -4.4      0.000      0.000
REMARK  Name = *****
REMARK  6 active torsions:
REMARK  status: ('A' for Active; 'I' for Inactive)
REMARK    1  A    between atoms: C_1  and  C_2
REMARK    2  A    between atoms: C_2  and  N_3
REMARK    3  A    between atoms: N_3  and  C_4
REMARK    4  A    between atoms: N_3  and  S_6
REMARK    5  A    between atoms: C_4  and  C_5
REMARK    6  A    between atoms: S_6  and  C_9
REMARK                            x       y       z     vdW  Elec       q    Type
REMARK                         _______ _______ _______ _____ _____    ______ ____
ROOT
ATOM      1  C   UNL     1      87.546  70.839  86.977  0.00  0.00    +0.000 A 
ATOM      2  C   UNL     1      88.588  70.466  87.845  0.00  0.00    +0.000 A 
ATOM      3  C   UNL     1      88.447  70.619  89.217  0.00  0.00    +0.000 A 
ATOM      4  C   UNL     1      87.269  71.152  89.728  0.00  0.00    +0.000 A 
ATOM      5  C   UNL     1      86.226  71.560  88.880  0.00  0.00    +0.000 A 
ATOM      6  C   UNL     1      85.065  72.113  89.447  0.00  0.00    +0.000 A 
ATOM      7  C   UNL     1      84.015  72.557  88.650  0.00  0.00    +0.000 A 
ATOM      8  C   UNL     1      84.117  72.464  87.272  0.00  0.00    +0.000 A 
ATOM      9  C   UNL     1      85.263  71.912  86.692  0.00  0.00    +0.000 A 
ATOM     10  C   UNL     1      86.346  71.425  87.471  0.00  0.00    +0.000 A 
ENDROOT
BRANCH   1  11
ATOM     11  S   UNL     1      87.836  70.513  85.244  0.00  0.00    +0.000 S 
ATOM     12  O   UNL     1      87.811  71.796  84.574  0.00  0.00    +0.000 OA
ATOM     13  O   UNL     1      87.019  69.406  84.793  0.00  0.00    +0.000 OA
BRANCH  11  14
ATOM     14  N   UNL     1      89.453  69.932  85.223  0.00  0.00    +0.000 NA
BRANCH  14  16
ATOM     15  C   UNL     1      90.005  67.667  86.028  0.00  0.00    +0.000 C 
ATOM     16  C   UNL     1      89.617  68.507  84.822  0.00  0.00    +0.000 C 
ENDBRANCH  14  16
BRANCH  14  17
ATOM     17  C   UNL     1      90.457  70.857  84.627  0.00  0.00    +0.000 C 
ATOM     18  C   UNL     1      90.853  70.505  83.203  0.00  0.00    +0.000 C 
ENDBRANCH  14  17
ENDBRANCH  11  14
ENDBRANCH   1  11
TORSDOF 4
ENDMDL
