MODEL 1
REMARK VINA RESULT:      -4.4      0.000      0.000
REMARK  Name = *****
REMARK  9 active torsions:
REMARK  status: ('A' for Active; 'I' for Inactive)
REMARK    1  A    between atoms: C_1  and  C_2
REMARK    2  A    between atoms: C_2  and  N_3
REMARK    3  A    between atoms: N_3  and  C_4
REMARK    4  A    between atoms: N_3  and  S_6
REMARK    5  A    between atoms: C_4  and  C_5
REMARK    6  A    between atoms: S_6  and  C_9
REMARK    7  A    between atoms: C_12  and  O_19
REMARK    8  A    between atoms: O_19  and  C_20
REMARK    9  A    between atoms: C_20  and  C_21
REMARK                            x       y       z     vdW  Elec       q    Type
REMARK                         _______ _______ _______ _____ _____    ______ ____
ROOT
ATOM      1  C   UNL     1      87.467  70.860  86.872  0.00  0.00    +0.000 A 
ATOM      2  C   UNL     1      88.515  70.412  87.697  0.00  0.00    +0.000 A 
ATOM      3  C   UNL     1      88.432  70.525  89.078  0.00  0.00    +0.000 A 
ATOM      4  C   UNL     1      87.301  71.093  89.660  0.00  0.00    +0.000 A 
ATOM      5  C   UNL     1      86.226  71.547  88.850  0.00  0.00    +0.000 A 
ATOM      6  C   UNL     1      85.076  72.114  89.448  0.00  0.00    +0.000 A 
ATOM      7  C   UNL     1      84.001  72.579  88.698  0.00  0.00    +0.000 A 
ATOM      8  C   UNL     1      84.051  72.491  87.321  0.00  0.00    +0.000 A 
ATOM      9  C   UNL     1      85.173  71.936  86.701  0.00  0.00    +0.000 A 
ATOM     10  C   UNL     1      86.293  71.445  87.428  0.00  0.00    +0.000 A 
ENDROOT
BRANCH   1  11
ATOM     11  S   UNL     1      87.781  70.634  85.121  0.00  0.00    +0.000 S 
ATOM     12  O   UNL     1      87.870  71.961  84.543  0.00  0.00    +0.000 OA
ATOM     13  O   UNL     1      86.905  69.642  84.543  0.00  0.00    +0.000 OA
BRANCH  11  14
ATOM     14  N   UNL     1      89.354  69.965  85.134  0.00  0.00    +0.000 NA
BRANCH  14  16
ATOM     15  C   UNL     1      90.000  67.714  85.865  0.00  0.00    +0.000 C 
ATOM     16  C   UNL     1      89.474  68.547  84.708  0.00  0.00    +0.000 C 
ENDBRANCH  14  16
BRANCH  14  17
ATOM     17  C   UNL     1      90.441  70.848  84.629  0.00  0.00    +0.000 C 
ATOM     18  C   UNL     1      90.863  70.542  83.202  0.00  0.00    +0.000 C 
ENDBRANCH  14  17
ENDBRANCH  11  14
ENDBRANCH   1  11
BRANCH   4  19
ATOM     19  O   UNL     1      87.145  71.234  91.021  0.00  0.00    +0.000 OA
BRANCH  19  20
ATOM     20  C   UNL     1      88.171  71.906  91.747  0.00  0.00    +0.000 C 
ATOM     21  C   UNL     1      88.026  73.395  91.490  0.00  0.00    +0.000 C 
ENDBRANCH  19  20
ENDBRANCH   4  19
TORSDOF 6
ENDMDL
