REMARK  Name = *****
REMARK  5 active torsions:
REMARK  status: ('A' for Active; 'I' for Inactive)
REMARK    1  A    between atoms: C_1  and  C_2
REMARK    2  A    between atoms: C_2  and  C_3
REMARK    3  A    between atoms: C_2  and  N_4
REMARK    4  A    between atoms: N_4  and  S_5
REMARK    5  A    between atoms: S_5  and  C_8
REMARK                            x       y       z     vdW  Elec       q    Type
REMARK                         _______ _______ _______ _____ _____    ______ ____
ROOT
ATOM      1  C   UNL     1       5.401  -1.453  -2.709  0.00  0.00    +0.000 A 
ATOM      2  C   UNL     1       6.050  -0.719  -3.732  0.00  0.00    +0.000 A 
ATOM      3  C   UNL     1       6.430  -1.321  -4.940  0.00  0.00    +0.000 A 
ATOM      4  C   UNL     1       6.138  -2.669  -5.070  0.00  0.00    +0.000 A 
ATOM      5  C   UNL     1       6.423  -3.562  -6.229  0.00  0.00    +0.000 C 
ATOM      6  C   UNL     1       5.875  -4.951  -5.781  0.00  0.00    +0.000 C 
ATOM      7  C   UNL     1       5.338  -4.705  -4.413  0.00  0.00    +0.000 A 
ATOM      8  C   UNL     1       5.516  -3.379  -4.060  0.00  0.00    +0.000 A 
ATOM      9  C   UNL     1       5.128  -2.840  -2.858  0.00  0.00    +0.000 A 
ATOM     10  C   UNL     1       4.521  -3.756  -1.959  0.00  0.00    +0.000 A 
ATOM     11  C   UNL     1       4.335  -5.109  -2.307  0.00  0.00    +0.000 A 
ATOM     12  C   UNL     1       4.742  -5.611  -3.550  0.00  0.00    +0.000 A 
ENDROOT
BRANCH   1  13
ATOM     13  S   UNL     1       4.945  -0.585  -1.232  0.00  0.00    +0.000 S 
ATOM     14  O   UNL     1       5.187   0.830  -1.418  0.00  0.00    +0.000 OA
ATOM     15  O   UNL     1       5.513  -1.301  -0.111  0.00  0.00    +0.000 OA
BRANCH  13  16
ATOM     16  N   UNL     1       3.278  -0.807  -1.128  0.00  0.00    +0.000 NA
ATOM     17  H   UNL     1       3.078  -1.718  -1.541  0.00  0.00    +0.000 HD
BRANCH  16  19
ATOM     18  C   UNL     1       2.423   0.086  -3.276  0.00  0.00    +0.000 C 
ATOM     19  C   UNL     1       2.353   0.153  -1.756  0.00  0.00    +0.000 C 
ATOM     20  C   UNL     1       0.937  -0.188  -1.288  0.00  0.00    +0.000 C 
ENDBRANCH  16  19
ENDBRANCH  13  16
ENDBRANCH   1  13
TORSDOF 3
