MODEL 1
REMARK VINA RESULT:      -4.2      0.000      0.000
REMARK  Name = *****
REMARK  7 active torsions:
REMARK  status: ('A' for Active; 'I' for Inactive)
REMARK    1  A    between atoms: C_1  and  C_2
REMARK    2  A    between atoms: C_2  and  N_3
REMARK    3  A    between atoms: N_3  and  S_4
REMARK    4  A    between atoms: S_4  and  C_7
REMARK    5  A    between atoms: C_10  and  O_17
REMARK    6  A    between atoms: O_17  and  C_18
REMARK    7  A    between atoms: C_18  and  C_19
REMARK                            x       y       z     vdW  Elec       q    Type
REMARK                         _______ _______ _______ _____ _____    ______ ____
ROOT
ATOM      1  C   UNL     1      87.888  70.645  86.719  0.00  0.00    +0.000 A 
ATOM      2  C   UNL     1      88.782  70.227  87.718  0.00  0.00    +0.000 A 
ATOM      3  C   UNL     1      88.487  70.418  89.062  0.00  0.00    +0.000 A 
ATOM      4  C   UNL     1      87.292  71.029  89.432  0.00  0.00    +0.000 A 
ATOM      5  C   UNL     1      86.364  71.450  88.442  0.00  0.00    +0.000 A 
ATOM      6  C   UNL     1      85.147  72.065  88.817  0.00  0.00    +0.000 A 
ATOM      7  C   UNL     1      84.210  72.493  87.881  0.00  0.00    +0.000 A 
ATOM      8  C   UNL     1      84.469  72.316  86.536  0.00  0.00    +0.000 A 
ATOM      9  C   UNL     1      85.662  71.712  86.134  0.00  0.00    +0.000 A 
ATOM     10  C   UNL     1      86.646  71.259  87.057  0.00  0.00    +0.000 A 
ENDROOT
BRANCH   1  11
ATOM     11  S   UNL     1      88.426  70.323  85.040  0.00  0.00    +0.000 S 
ATOM     12  O   UNL     1      88.772  71.556  84.372  0.00  0.00    +0.000 OA
ATOM     13  O   UNL     1      87.473  69.409  84.443  0.00  0.00    +0.000 OA
BRANCH  11  14
ATOM     14  N   UNL     1      89.822  69.419  85.264  0.00  0.00    +0.000 NA
ATOM     15  H   UNL     1      90.562  69.893  84.749  0.00  0.00    +0.000 HD
BRANCH  14  17
ATOM     16  C   UNL     1      90.121  67.161  86.097  0.00  0.00    +0.000 C 
ATOM     17  C   UNL     1      89.868  68.015  84.867  0.00  0.00    +0.000 C 
ENDBRANCH  14  17
ENDBRANCH  11  14
ENDBRANCH   1  11
BRANCH   4  18
ATOM     18  O   UNL     1      86.932  71.262  90.740  0.00  0.00    +0.000 OA
BRANCH  18  19
ATOM     19  C   UNL     1      87.913  71.798  91.625  0.00  0.00    +0.000 C 
ATOM     20  C   UNL     1      87.990  73.295  91.384  0.00  0.00    +0.000 C 
ENDBRANCH  18  19
ENDBRANCH   4  18
TORSDOF 5
ENDMDL
