MODEL 1
REMARK VINA RESULT:      -4.3      0.000      0.000
REMARK  Name = *****
REMARK  7 active torsions:
REMARK  status: ('A' for Active; 'I' for Inactive)
REMARK    1  A    between atoms: C_1  and  C_2
REMARK    2  A    between atoms: C_2  and  O_3
REMARK    3  A    between atoms: O_3  and  C_4
REMARK    4  A    between atoms: C_7  and  S_14
REMARK    5  A    between atoms: S_14  and  N_17
REMARK    6  A    between atoms: N_17  and  C_18
REMARK    7  A    between atoms: N_17  and  C_19
REMARK                            x       y       z     vdW  Elec       q    Type
REMARK                         _______ _______ _______ _____ _____    ______ ____
ROOT
ATOM      1  C   UNL     1      87.679  70.836  88.895  0.00  0.00    +0.000 A 
ATOM      2  C   UNL     1      88.806  70.308  88.267  0.00  0.00    +0.000 A 
ATOM      3  C   UNL     1      88.877  70.278  86.880  0.00  0.00    +0.000 A 
ATOM      4  C   UNL     1      87.826  70.780  86.095  0.00  0.00    +0.000 A 
ATOM      5  C   UNL     1      86.645  71.303  86.698  0.00  0.00    +0.000 A 
ATOM      6  C   UNL     1      85.508  71.804  86.007  0.00  0.00    +0.000 A 
ATOM      7  C   UNL     1      84.389  72.320  86.665  0.00  0.00    +0.000 A 
ATOM      8  C   UNL     1      84.359  72.353  88.046  0.00  0.00    +0.000 A 
ATOM      9  C   UNL     1      85.449  71.864  88.761  0.00  0.00    +0.000 A 
ATOM     10  C   UNL     1      86.595  71.334  88.124  0.00  0.00    +0.000 A 
ENDROOT
BRANCH   4  11
ATOM     11  S   UNL     1      88.080  70.672  84.318  0.00  0.00    +0.000 S 
ATOM     12  O   UNL     1      87.069  69.773  83.797  0.00  0.00    +0.000 OA
ATOM     13  O   UNL     1      88.203  72.003  83.765  0.00  0.00    +0.000 OA
BRANCH  11  14
ATOM     14  N   UNL     1      89.581  69.878  84.178  0.00  0.00    +0.000 NA
ATOM     15  C   UNL     1      89.572  68.476  83.732  0.00  0.00    +0.000 C 
ATOM     16  C   UNL     1      90.696  70.657  83.615  0.00  0.00    +0.000 C 
ENDBRANCH  11  14
ENDBRANCH   4  11
BRANCH   1  17
ATOM     17  O   UNL     1      87.541  70.912  90.262  0.00  0.00    +0.000 OA
BRANCH  17  19
ATOM     18  C   UNL     1      88.076  73.030  91.208  0.00  0.00    +0.000 C 
ATOM     19  C   UNL     1      88.545  71.601  91.005  0.00  0.00    +0.000 C 
ENDBRANCH  17  19
ENDBRANCH   1  17
TORSDOF 4
ENDMDL
