MODEL 1
REMARK VINA RESULT:      -4.8      0.000      0.000
REMARK  Name = *****
REMARK  2 active torsions:
REMARK  status: ('A' for Active; 'I' for Inactive)
REMARK    1  A    between atoms: N_4  and  S_6
REMARK    2  A    between atoms: S_6  and  C_9
REMARK                            x       y       z     vdW  Elec       q    Type
REMARK                         _______ _______ _______ _____ _____    ______ ____
ROOT
ATOM      1  C   UNL     1      87.843  70.788  86.213  0.00  0.00    +0.000 A 
ATOM      2  C   UNL     1      88.875  70.300  87.027  0.00  0.00    +0.000 A 
ATOM      3  C   UNL     1      88.737  70.324  88.407  0.00  0.00    +0.000 A 
ATOM      4  C   UNL     1      87.574  70.836  88.982  0.00  0.00    +0.000 A 
ATOM      5  C   UNL     1      86.513  71.343  88.185  0.00  0.00    +0.000 A 
ATOM      6  C   UNL     1      85.326  71.870  88.752  0.00  0.00    +0.000 A 
ATOM      7  C   UNL     1      84.289  72.369  87.968  0.00  0.00    +0.000 A 
ATOM      8  C   UNL     1      84.411  72.360  86.590  0.00  0.00    +0.000 A 
ATOM      9  C   UNL     1      85.568  71.847  86.003  0.00  0.00    +0.000 A 
ATOM     10  C   UNL     1      86.644  71.326  86.767  0.00  0.00    +0.000 A 
ATOM     11 CL   UNL     1      87.503  70.811  90.716  0.00  0.00    +0.000 Cl
ENDROOT
BRANCH   1  12
ATOM     12  S   UNL     1      88.110  70.698  84.447  0.00  0.00    +0.000 S 
ATOM     13  O   UNL     1      86.939  70.105  83.834  0.00  0.00    +0.000 OA
ATOM     14  O   UNL     1      89.424  70.137  84.221  0.00  0.00    +0.000 OA
BRANCH  12  18
ATOM     15  C   UNL     1      89.297  74.049  82.836  0.00  0.00    +0.000 C 
ATOM     16  C   UNL     1      88.297  73.451  81.867  0.00  0.00    +0.000 C 
ATOM     17  C   UNL     1      87.331  72.708  82.780  0.00  0.00    +0.000 C 
ATOM     18  N   UNL     1      88.131  72.330  83.977  0.00  0.00    +0.000 NA
ATOM     19  C   UNL     1      89.487  72.920  83.836  0.00  0.00    +0.000 C 
ENDBRANCH  12  18
ENDBRANCH   1  12
TORSDOF 2
ENDMDL
