MODEL 1
REMARK VINA RESULT:      -4.2      0.000      0.000
REMARK  Name = *****
REMARK  2 active torsions:
REMARK  status: ('A' for Active; 'I' for Inactive)
REMARK    1  A    between atoms: C_10  and  S_11
REMARK    2  A    between atoms: S_11  and  C_13
REMARK                            x       y       z     vdW  Elec       q    Type
REMARK                         _______ _______ _______ _____ _____    ______ ____
ROOT
ATOM      1  C   UNL     1     100.381 131.148  84.578  0.00  0.00    +0.000 A 
ATOM      2  C   UNL     1     101.670 130.651  84.698  0.00  0.00    +0.000 A 
ATOM      3  C   UNL     1     101.974 129.376  84.215  0.00  0.00    +0.000 A 
ATOM      4  C   UNL     1     101.002 128.551  83.593  0.00  0.00    +0.000 A 
ATOM      5  C   UNL     1      99.690 129.087  83.478  0.00  0.00    +0.000 A 
ATOM      6  C   UNL     1      99.400 130.370  83.970  0.00  0.00    +0.000 A 
ATOM      7  C   UNL     1      98.671 128.339  82.870  0.00  0.00    +0.000 A 
ATOM      8  C   UNL     1      98.916 127.065  82.369  0.00  0.00    +0.000 A 
ATOM      9  C   UNL     1     100.189 126.519  82.476  0.00  0.00    +0.000 A 
ATOM     10  C   UNL     1     101.234 127.238  83.084  0.00  0.00    +0.000 A 
ENDROOT
BRANCH  10  11
ATOM     11  S   UNL     1     102.823 126.355  83.170  0.00  0.00    +0.000 S 
ATOM     12  O   UNL     1     102.591 125.104  83.965  0.00  0.00    +0.000 OA
BRANCH  11  13
ATOM     13  C   UNL     1     102.955 125.903  81.418  0.00  0.00    +0.000 C 
ATOM     14 CL   UNL     1     103.328 127.296  80.382  0.00  0.00    +0.000 Cl
ENDBRANCH  11  13
ENDBRANCH  10  11
TORSDOF 2
ENDMDL
