MODEL 1
REMARK VINA RESULT:      -4.4      0.000      0.000
REMARK  Name = *****
REMARK  2 active torsions:
REMARK  status: ('A' for Active; 'I' for Inactive)
REMARK    1  A    between atoms: N_6  and  S_13
REMARK    2  A    between atoms: S_13  and  C_16
REMARK                            x       y       z     vdW  Elec       q    Type
REMARK                         _______ _______ _______ _____ _____    ______ ____
ROOT
ATOM      1  C   UNL     1      87.190  70.192  87.274  0.00  0.00    +0.000 C 
ATOM      2  C   UNL     1      86.713  71.328  86.380  0.00  0.00    +0.000 C 
ATOM      3  C   UNL     1      86.977  70.835  84.955  0.00  0.00    +0.000 C 
ATOM      4  C   UNL     1      87.019  69.277  85.042  0.00  0.00    +0.000 C 
ATOM      5  C   UNL     1      86.753  68.952  86.510  0.00  0.00    +0.000 C 
ATOM      6  N   UNL     1      88.372  68.896  84.559  0.00  0.00    +0.000 N 
ATOM      7  C   UNL     1      89.122  70.050  84.221  0.00  0.00    +0.000 A 
ATOM      8  C   UNL     1      90.405  70.153  83.714  0.00  0.00    +0.000 A 
ATOM      9  C   UNL     1      90.916  71.426  83.447  0.00  0.00    +0.000 A 
ATOM     10  C   UNL     1      90.140  72.571  83.677  0.00  0.00    +0.000 A 
ATOM     11  C   UNL     1      88.842  72.456  84.172  0.00  0.00    +0.000 A 
ATOM     12  C   UNL     1      88.346  71.187  84.441  0.00  0.00    +0.000 A 
ENDROOT
BRANCH   6  13
ATOM     13  S   UNL     1      88.969  67.332  84.593  0.00  0.00    +0.000 S 
ATOM     14  O   UNL     1      87.811  66.450  84.607  0.00  0.00    +0.000 OA
ATOM     15  O   UNL     1      89.928  67.199  83.507  0.00  0.00    +0.000 OA
BRANCH  13  16
ATOM     16  C   UNL     1      89.865  67.210  86.222  0.00  0.00    +0.000 C 
ATOM     17  F   UNL     1      91.065  66.572  86.103  0.00  0.00    +0.000 F 
ATOM     18  F   UNL     1      90.132  68.430  86.770  0.00  0.00    +0.000 F 
ATOM     19  F   UNL     1      89.146  66.516  87.151  0.00  0.00    +0.000 F 
ENDBRANCH  13  16
ENDBRANCH   6  13
TORSDOF 2
ENDMDL
