@<TRIPOS>MOLECULE
control_ 
39 39 0 0 0
SMALL
USER_CHARGES
#CGenFF output mol2 file
@<TRIPOS>ATOM
1	N   105.3810   126.4730    79.8060	N.4	1	UNL1    -0.4210
2	C1   103.5530   125.7920    81.4010	C.3	1	UNL1     0.1010
3	C2   102.5360   126.6700    82.1070	C.ar	1	UNL1     0.0110
4	C3   101.1680   126.3490    82.0560	C.ar	1	UNL1    -0.1100
5	C4   100.1990   127.1410    82.7040	C.ar	1	UNL1     0.0020
6	C5   100.6420   128.2660    83.4100	C.ar	1	UNL1     0.1080
7	C6   101.9910   128.5990    83.4710	C.ar	1	UNL1    -0.1050
8	C7   102.9360   127.8060    82.8220	C.ar	1	UNL1    -0.1060
9	C8    98.7550   126.7160    82.5970	C.3	1	UNL1     0.0360
10	C9   104.9370   126.4660    81.2090	C.3	1	UNL1     0.2080
11	C10   107.1330   124.9770    80.7660	C.3	1	UNL1    -0.2700
12	C11   106.5850   125.6730    79.5090	C.3	1	UNL1     0.3820
13	C12   107.6900   126.5100    78.8470	C.3	1	UNL1    -0.2700
14	C13   106.1350   124.5870    78.5110	C.3	1	UNL1    -0.2700
15	O1    99.7830   129.0980    84.0710	O.3	1	UNL1    -0.5310
16	O2    97.9400   127.7190    81.9900	O.3	1	UNL1    -0.6500
17	O3   103.0350   125.4120    80.1220	O.3	1	UNL1    -0.6230
18	H1   104.6170   126.1126    79.2343	H	1	UNL1     0.3330
19	H2   105.6332   127.4397    79.6002	H	1	UNL1     0.3330
20	H3   103.7122   124.9410    82.0297	H	1	UNL1     0.0900
21	H4   100.8662   125.5131    81.5313	H	1	UNL1     0.1150
22	H5   102.2926   129.4339    83.9972	H	1	UNL1     0.1150
23	H6   103.9358   128.0573    82.8686	H	1	UNL1     0.1150
24	H7    98.7011   125.8249    82.0071	H	1	UNL1     0.0900
25	H8    98.3875   126.5503    83.5882	H	1	UNL1     0.0900
26	H9   104.8747   127.4775    81.5524	H	1	UNL1     0.0900
27	H10   105.6508   125.8986    81.7688	H	1	UNL1     0.0900
28	H11   108.0027   124.4093    80.5088	H	1	UNL1     0.0900
29	H12   106.3861   124.3237    81.1662	H	1	UNL1     0.0900
30	H13   107.3915   125.7138    81.4976	H	1	UNL1     0.0900
31	H14   107.2994   126.9899    77.9741	H	1	UNL1     0.0900
32	H15   108.5029   125.8720    78.5696	H	1	UNL1     0.0900
33	H16   108.0374   127.2511    79.5362	H	1	UNL1     0.0900
34	H17   105.7497   125.0520    77.6277	H	1	UNL1     0.0900
35	H18   105.3722   123.9850    78.9589	H	1	UNL1     0.0900
36	H19   106.9709   123.9705    78.2539	H	1	UNL1     0.0900
37	H20    98.8626   128.9226    84.0641	H	1	UNL1     0.4200
38	H21    98.2535   127.8880    81.0877	H	1	UNL1     0.4190
39	H22   102.9025   126.2044    79.5784	H	1	UNL1     0.3980
@<TRIPOS>BOND
1	1	12	1
2	1	10	1
3	1	18	1
4	1	19	1
5	2	17	1
6	2	10	1
7	2	3	1
8	2	20	1
9	3	4	2
10	3	8	1
11	4	5	1
12	4	21	1
13	5	9	1
14	5	6	2
15	6	7	1
16	6	15	1
17	7	8	2
18	7	22	1
19	8	23	1
20	9	16	1
21	9	24	1
22	9	25	1
23	10	26	1
24	10	27	1
25	11	12	1
26	11	28	1
27	11	29	1
28	11	30	1
29	12	14	1
30	12	13	1
31	13	31	1
32	13	32	1
33	13	33	1
34	14	34	1
35	14	35	1
36	14	36	1
37	15	37	1
38	16	38	1
39	17	39	1
