REMARK  Name = *****
REMARK  2 active torsions:
REMARK  status: ('A' for Active; 'I' for Inactive)
REMARK    1  A    between atoms: C_7  and  C_8
REMARK    2  A    between atoms: C_8  and  N_9
REMARK                            x       y       z     vdW  Elec       q    Type
REMARK                         _______ _______ _______ _____ _____    ______ ____
ROOT
ATOM      1  N   UNL     1       6.342   8.868   5.018  0.00  0.00    +0.000 N 
ATOM      2  C   UNL     1       6.860   7.591   5.035  0.00  0.00    +0.000 C 
ATOM      3  N   UNL     1       6.398   6.730   4.136  0.00  0.00    +0.000 NA
ATOM      4  C   UNL     1       6.887   5.495   4.155  0.00  0.00    +0.000 C 
ATOM      5  C   UNL     1       7.841   5.061   5.083  0.00  0.00    +0.000 C 
ATOM      6  N   UNL     1       8.344   3.787   5.091  0.00  0.00    +0.000 NA
ATOM      7  C   UNL     1       7.884   2.946   4.136  0.00  0.00    +0.000 C 
ATOM      8  C   UNL     1       6.936   3.382   3.227  0.00  0.00    +0.000 C 
ATOM      9  N   UNL     1       6.430   4.639   3.235  0.00  0.00    +0.000 NA
ATOM     10  C   UNL     1       8.238   6.052   5.974  0.00  0.00    +0.000 C 
ATOM     11  N   UNL     1       9.155   5.762   7.002  0.00  0.00    +0.000 N 
ATOM     12  N   UNL     1       7.754   7.303   5.975  0.00  0.00    +0.000 NA
ATOM     13  H   UNL     1       5.677   9.121   4.338  0.00  0.00    +0.000 HD
ATOM     14  H   UNL     1       6.638   9.528   5.687  0.00  0.00    +0.000 HD
ATOM     15  H   UNL     1       9.554   4.864   7.067  0.00  0.00    +0.000 HD
ATOM     16  H   UNL     1       9.397   6.457   7.656  0.00  0.00    +0.000 HD
ENDROOT
BRANCH   7  17
ATOM     17  C   UNL     1       8.426   1.530   4.083  0.00  0.00    +0.000 C 
BRANCH  17  18
ATOM     18  N   UNL     1       9.389   1.310   2.962  0.00  0.00    +0.000 N 
ATOM     19  C   UNL     1       8.713   0.782   1.802  0.00  0.00    +0.000 A 
ATOM     20  C   UNL     1       7.997  -0.426   1.904  0.00  0.00    +0.000 A 
ATOM     21  C   UNL     1       7.285  -0.946   0.818  0.00  0.00    +0.000 A 
ATOM     22  C   UNL     1       7.281  -0.277  -0.404  0.00  0.00    +0.000 A 
ATOM     23  C   UNL     1       8.006   0.902  -0.551  0.00  0.00    +0.000 A 
ATOM     24  C   UNL     1       8.724   1.418   0.534  0.00  0.00    +0.000 A 
ATOM     25  C   UNL     1       9.538   2.625   0.361  0.00  0.00    +0.000 C 
ATOM     26  C   UNL     1      10.832   2.318   0.541  0.00  0.00    +0.000 C 
ATOM     27  C   UNL     1      11.309   2.583   1.906  0.00  0.00    +0.000 A 
ATOM     28  C   UNL     1      12.502   3.313   2.031  0.00  0.00    +0.000 A 
ATOM     29  C   UNL     1      13.043   3.563   3.286  0.00  0.00    +0.000 A 
ATOM     30  C   UNL     1      12.404   3.070   4.415  0.00  0.00    +0.000 A 
ATOM     31  C   UNL     1      11.215   2.338   4.293  0.00  0.00    +0.000 A 
ATOM     32  C   UNL     1      10.607   2.084   3.043  0.00  0.00    +0.000 A 
ENDBRANCH  17  18
ENDBRANCH   7  17
TORSDOF 2
