REMARK  Name = *****
REMARK  6 active torsions:
REMARK  status: ('A' for Active; 'I' for Inactive)
REMARK    1  A    between atoms: C_1  and  N_2
REMARK    2  A    between atoms: N_2  and  C_3
REMARK    3  A    between atoms: N_2  and  C_4
REMARK    4  A    between atoms: C_4  and  C_5
REMARK    5  A    between atoms: C_5  and  C_6
REMARK    6  A    between atoms: C_6  and  C_7
REMARK                            x       y       z     vdW  Elec       q    Type
REMARK                         _______ _______ _______ _____ _____    ______ ____
ROOT
ATOM      1  C   UNL     1       6.279  -2.921  -1.396  0.00  0.00    +0.000 C 
ATOM      2  C   UNL     1       7.164  -2.566  -0.262  0.00  0.00    +0.000 C 
ATOM      3  C   UNL     1       7.739  -1.285  -0.202  0.00  0.00    +0.000 C 
ATOM      4  C   UNL     1       8.584  -0.930   0.850  0.00  0.00    +0.000 C 
ATOM      5  C   UNL     1       8.872  -1.855   1.847  0.00  0.00    +0.000 C 
ATOM      6  C   UNL     1       8.325  -3.138   1.786  0.00  0.00    +0.000 C 
ATOM      7  C   UNL     1       7.483  -3.517   0.727  0.00  0.00    +0.000 C 
ATOM      8  C   UNL     1       6.936  -4.886   0.748  0.00  0.00    +0.000 C 
ATOM      9  C   UNL     1       6.652  -5.672  -0.304  0.00  0.00    +0.000 C 
ATOM     10  C   UNL     1       6.812  -5.355  -1.736  0.00  0.00    +0.000 A 
ATOM     11  C   UNL     1       7.115  -6.416  -2.607  0.00  0.00    +0.000 A 
ATOM     12  C   UNL     1       7.247  -6.204  -3.981  0.00  0.00    +0.000 A 
ATOM     13  C   UNL     1       7.070  -4.929  -4.507  0.00  0.00    +0.000 A 
ATOM     14  C   UNL     1       6.755  -3.867  -3.660  0.00  0.00    +0.000 A 
ATOM     15  C   UNL     1       6.609  -4.070  -2.276  0.00  0.00    +0.000 A 
ENDROOT
BRANCH   1  16
ATOM     16  C   UNL     1       5.100  -2.296  -1.612  0.00  0.00    +0.000 C 
BRANCH  16  17
ATOM     17  C   UNL     1       4.467  -1.186  -0.809  0.00  0.00    +0.000 C 
BRANCH  17  18
ATOM     18  C   UNL     1       4.354   0.106  -1.639  0.00  0.00    +0.000 C 
BRANCH  18  20
ATOM     19  C   UNL     1       3.977   2.483  -1.679  0.00  0.00    +0.000 C 
ATOM     20  N   UNL     1       3.866   1.267  -0.870  0.00  0.00    +0.000 N 
ATOM     21  C   UNL     1       2.482   1.092  -0.426  0.00  0.00    +0.000 C 
ATOM     22  H   UNL     1       4.449   1.349  -0.037  0.00  0.00    +0.000 HD
ENDBRANCH  18  20
ENDBRANCH  17  18
ENDBRANCH  16  17
ENDBRANCH   1  16
TORSDOF 4
