REMARK  Name = *****
REMARK  8 active torsions:
REMARK  status: ('A' for Active; 'I' for Inactive)
REMARK    1  A    between atoms: C_1  and  O_2
REMARK    2  A    between atoms: O_2  and  C_3
REMARK    3  A    between atoms: C_4  and  C_5
REMARK    4  A    between atoms: C_4  and  C_9
REMARK    5  A    between atoms: C_5  and  O_7
REMARK    6  A    between atoms: O_7  and  C_8
REMARK    7  A    between atoms: C_10  and  C_11
REMARK    8  A    between atoms: C_12  and  C_13
REMARK                            x       y       z     vdW  Elec       q    Type
REMARK                         _______ _______ _______ _____ _____    ______ ____
ROOT
ATOM      1  C   UNL     1       5.278  -0.114  -0.111  0.00  0.00    +0.000 A 
ATOM      2  C   UNL     1       4.809   1.147  -0.530  0.00  0.00    +0.000 A 
ATOM      3  C   UNL     1       5.547   1.883  -1.468  0.00  0.00    +0.000 A 
ATOM      4  C   UNL     1       6.735   1.372  -1.992  0.00  0.00    +0.000 A 
ATOM      5  C   UNL     1       7.196   0.122  -1.586  0.00  0.00    +0.000 A 
ATOM      6  C   UNL     1       6.471  -0.619  -0.651  0.00  0.00    +0.000 A 
ENDROOT
BRANCH   1   8
ATOM      7  C   UNL     1       3.677  -1.873   0.505  0.00  0.00    +0.000 C 
ATOM      8  C   UNL     1       4.549  -0.923   0.886  0.00  0.00    +0.000 C 
BRANCH   7  10
ATOM      9  C   UNL     1       2.091  -2.687  -0.977  0.00  0.00    +0.000 C 
ATOM     10  O   UNL     1       3.413  -2.184  -0.806  0.00  0.00    +0.000 OA
ENDBRANCH   7  10
BRANCH   8  11
ATOM     11  C   UNL     1       4.709  -0.711   2.353  0.00  0.00    +0.000 C 
ATOM     12  O   UNL     1       4.068  -1.307   3.209  0.00  0.00    +0.000 OA
BRANCH  11  13
ATOM     13  O   UNL     1       5.668   0.219   2.599  0.00  0.00    +0.000 OA
ATOM     14  C   UNL     1       5.868   0.498   3.984  0.00  0.00    +0.000 C 
ENDBRANCH  11  13
ENDBRANCH   8  11
ENDBRANCH   1   8
BRANCH   2  15
ATOM     15  C   UNL     1       3.559   1.717  -0.013  0.00  0.00    +0.000 C 
ATOM     16  C   UNL     1       3.558   2.621   0.978  0.00  0.00    +0.000 C 
BRANCH  16  17
ATOM     17  C   UNL     1       2.339   3.207   1.551  0.00  0.00    +0.000 A 
ATOM     18  C   UNL     1       1.161   2.467   1.721  0.00  0.00    +0.000 A 
ATOM     19  C   UNL     1       0.030   3.052   2.298  0.00  0.00    +0.000 A 
ATOM     20  C   UNL     1       0.069   4.379   2.721  0.00  0.00    +0.000 A 
ATOM     21  C   UNL     1       1.240   5.120   2.573  0.00  0.00    +0.000 A 
ATOM     22  C   UNL     1       2.371   4.535   1.997  0.00  0.00    +0.000 A 
ENDBRANCH  16  17
ENDBRANCH   2  15
TORSDOF 6
