REMARK  Name = *****
REMARK  5 active torsions:
REMARK  status: ('A' for Active; 'I' for Inactive)
REMARK    1  A    between atoms: C_1  and  N_2
REMARK    2  A    between atoms: N_2  and  C_3
REMARK    3  A    between atoms: N_2  and  C_6
REMARK    4  A    between atoms: C_3  and  C_4
REMARK    5  A    between atoms: C_6  and  C_7
REMARK                            x       y       z     vdW  Elec       q    Type
REMARK                         _______ _______ _______ _____ _____    ______ ____
ROOT
ATOM      1  C   UNL     1       4.468   0.162  -1.317  0.00  0.00    +0.000 C 
ATOM      2  C   UNL     1       5.132   1.130  -0.651  0.00  0.00    +0.000 C 
ATOM      3  C   UNL     1       6.590   1.289  -0.568  0.00  0.00    +0.000 A 
ATOM      4  C   UNL     1       7.131   2.576  -0.447  0.00  0.00    +0.000 A 
ATOM      5  C   UNL     1       8.506   2.757  -0.270  0.00  0.00    +0.000 A 
ATOM      6  C   UNL     1       9.354   1.654  -0.192  0.00  0.00    +0.000 A 
ATOM      7  C   UNL     1       8.828   0.368  -0.299  0.00  0.00    +0.000 A 
ATOM      8  C   UNL     1       7.457   0.190  -0.501  0.00  0.00    +0.000 A 
ATOM      9  O   UNL     1       7.003  -1.108  -0.555  0.00  0.00    +0.000 OA
ATOM     10  C   UNL     1       6.381  -1.436  -1.741  0.00  0.00    +0.000 A 
ATOM     11  C   UNL     1       6.997  -2.442  -2.496  0.00  0.00    +0.000 A 
ATOM     12  C   UNL     1       6.434  -2.854  -3.700  0.00  0.00    +0.000 A 
ATOM     13  C   UNL     1       5.251  -2.270  -4.140  0.00  0.00    +0.000 A 
ATOM     14  C   UNL     1       4.623  -1.284  -3.369  0.00  0.00    +0.000 A 
ATOM     15  C   UNL     1       5.171  -0.851  -2.149  0.00  0.00    +0.000 A 
ENDROOT
BRANCH   1  16
ATOM     16  C   UNL     1       2.950   0.096  -1.230  0.00  0.00    +0.000 C 
BRANCH  16  18
ATOM     17  C   UNL     1       2.863  -1.379   0.693  0.00  0.00    +0.000 C 
ATOM     18  N   UNL     1       2.434  -1.182  -0.698  0.00  0.00    +0.000 N 
ATOM     19  H   UNL     1       2.818  -1.949  -1.249  0.00  0.00    +0.000 HD
BRANCH  18  20
ATOM     20  C   UNL     1       0.967  -1.209  -0.806  0.00  0.00    +0.000 C 
BRANCH  20  21
ATOM     21  C   UNL     1       0.411  -2.539  -0.506  0.00  0.00    +0.000 C 
ATOM     22  C   UNL     1      -0.041  -3.623  -0.251  0.00  0.00    +0.000 C 
ENDBRANCH  20  21
ENDBRANCH  18  20
ENDBRANCH  16  18
ENDBRANCH   1  16
TORSDOF 4
