MODEL 1
REMARK VINA RESULT:      -5.6      0.000      0.000
REMARK  Name = *****
REMARK  3 active torsions:
REMARK  status: ('A' for Active; 'I' for Inactive)
REMARK    1  A    between atoms: C_4  and  C_7
REMARK    2  A    between atoms: C_14  and  O_19
REMARK    3  A    between atoms: C_15  and  O_18
REMARK                            x       y       z     vdW  Elec       q    Type
REMARK                         _______ _______ _______ _____ _____    ______ ____
ROOT
ATOM      1  C   UNL     1     103.054 126.151  82.054  0.00  0.00    +0.000 A 
ATOM      2  C   UNL     1     103.640 127.196  82.658  0.00  0.00    +0.000 A 
ATOM      3  C   UNL     1     102.801 128.258  83.234  0.00  0.00    +0.000 A 
ATOM      4  O   UNL     1     103.301 129.228  83.786  0.00  0.00    +0.000 OA
ATOM      5  C   UNL     1     101.346 128.088  83.105  0.00  0.00    +0.000 A 
ATOM      6  C   UNL     1     100.864 126.953  82.456  0.00  0.00    +0.000 A 
ATOM      7  O   UNL     1     101.684 125.983  81.936  0.00  0.00    +0.000 OA
ATOM      8  C   UNL     1      99.490 126.779  82.322  0.00  0.00    +0.000 A 
ATOM      9  C   UNL     1      98.610 127.729  82.837  0.00  0.00    +0.000 A 
ATOM     10  C   UNL     1      99.085 128.862  83.487  0.00  0.00    +0.000 A 
ATOM     11  C   UNL     1     100.463 129.046  83.623  0.00  0.00    +0.000 A 
ENDROOT
BRANCH   1  15
ATOM     12  C   UNL     1     105.392 122.992  80.345  0.00  0.00    +0.000 A 
ATOM     13  C   UNL     1     105.221 124.192  79.657  0.00  0.00    +0.000 A 
ATOM     14  C   UNL     1     104.456 125.217  80.218  0.00  0.00    +0.000 A 
ATOM     15  C   UNL     1     103.848 125.053  81.471  0.00  0.00    +0.000 A 
ATOM     16  C   UNL     1     104.035 123.843  82.155  0.00  0.00    +0.000 A 
ATOM     17  C   UNL     1     104.800 122.818  81.594  0.00  0.00    +0.000 A 
ENDBRANCH   1  15
BRANCH   9  18
ATOM     18  O   UNL     1      97.263 127.555  82.706  0.00  0.00    +0.000 OA
ATOM     19  H   UNL     1      96.897 126.693  82.737  0.00  0.00    +0.000 HD
ENDBRANCH   9  18
BRANCH   8  20
ATOM     20  O   UNL     1      98.956 125.687  81.689  0.00  0.00    +0.000 OA
ATOM     21  H   UNL     1      98.328 125.151  82.132  0.00  0.00    +0.000 HD
ENDBRANCH   8  20
TORSDOF 3
ENDMDL
