MODEL 1
REMARK VINA RESULT:      -5.8      0.000      0.000
REMARK  Name = *****
REMARK  11 active torsions:
REMARK  status: ('A' for Active; 'I' for Inactive)
REMARK    1  A    between atoms: C_1  and  O_2
REMARK    2  A    between atoms: O_2  and  C_3
REMARK    3  A    between atoms: C_4  and  O_33
REMARK    4  A    between atoms: C_7  and  C_9
REMARK    5  A    between atoms: C_10  and  C_11
REMARK    6  A    between atoms: C_13  and  C_22
REMARK    7  A    between atoms: N_15  and  C_16
REMARK    8  A    between atoms: C_23  and  C_24
REMARK    9  A    between atoms: C_26  and  O_31
REMARK   10  A    between atoms: C_27  and  O_30
REMARK   11  A    between atoms: O_31  and  C_32
REMARK                            x       y       z     vdW  Elec       q    Type
REMARK                         _______ _______ _______ _____ _____    ______ ____
ROOT
ATOM      1  C   UNL     1      89.745  69.056  86.289  0.00  0.00    +0.000 A 
ATOM      2  C   UNL     1      89.929  67.688  86.294  0.00  0.00    +0.000 A 
ATOM      3  C   UNL     1      90.068  67.315  84.944  0.00  0.00    +0.000 A 
ATOM      4  N   UNL     1      89.991  68.377  84.141  0.00  0.00    +0.000 NA
ATOM      5  N   UNL     1      89.907  69.464  84.962  0.00  0.00    +0.000 N 
ENDROOT
BRANCH   5   6
ATOM      6  C   UNL     1      90.007  70.769  84.376  0.00  0.00    +0.000 A 
ATOM      7  C   UNL     1      88.873  71.602  84.378  0.00  0.00    +0.000 A 
ATOM      8  C   UNL     1      88.920  72.878  83.810  0.00  0.00    +0.000 A 
ATOM      9  C   UNL     1      90.095  73.336  83.223  0.00  0.00    +0.000 A 
ATOM     10  C   UNL     1      91.220  72.516  83.197  0.00  0.00    +0.000 A 
ATOM     11  C   UNL     1      91.178  71.237  83.764  0.00  0.00    +0.000 A 
ENDBRANCH   5   6
BRANCH   1  13
ATOM     12  C   UNL     1      88.163  70.029  87.790  0.00  0.00    +0.000 C 
ATOM     13  C   UNL     1      89.431  69.925  87.361  0.00  0.00    +0.000 C 
BRANCH  12  18
ATOM     14  C   UNL     1      85.884  72.003  90.044  0.00  0.00    +0.000 A 
ATOM     15  C   UNL     1      86.805  72.539  90.948  0.00  0.00    +0.000 A 
ATOM     16  C   UNL     1      88.162  72.270  90.849  0.00  0.00    +0.000 A 
ATOM     17  C   UNL     1      88.622  71.451  89.818  0.00  0.00    +0.000 A 
ATOM     18  C   UNL     1      87.726  70.913  88.883  0.00  0.00    +0.000 A 
ATOM     19  C   UNL     1      86.351  71.186  89.012  0.00  0.00    +0.000 A 
BRANCH  14  21
ATOM     20  C   UNL     1      83.788  72.667  89.135  0.00  0.00    +0.000 C 
ATOM     21  O   UNL     1      84.577  72.349  90.277  0.00  0.00    +0.000 OA
ENDBRANCH  14  21
BRANCH  15  22
ATOM     22  O   UNL     1      86.380  73.346  91.969  0.00  0.00    +0.000 OA
ATOM     23  H   UNL     1      85.989  72.969  92.732  0.00  0.00    +0.000 HD
ENDBRANCH  15  22
ENDBRANCH  12  18
ENDBRANCH   1  13
BRANCH   3  24
ATOM     24  C   UNL     1      90.243  65.965  84.494  0.00  0.00    +0.000 C 
ATOM     25  C   UNL     1      90.267  64.891  85.301  0.00  0.00    +0.000 C 
BRANCH  25  26
ATOM     26  C   UNL     1      90.420  63.495  84.862  0.00  0.00    +0.000 A 
ATOM     27  C   UNL     1      91.603  62.761  85.065  0.00  0.00    +0.000 A 
ATOM     28  C   UNL     1      91.689  61.429  84.651  0.00  0.00    +0.000 A 
ATOM     29  C   UNL     1      90.573  60.830  84.057  0.00  0.00    +0.000 A 
ATOM     30  C   UNL     1      89.392  61.531  83.863  0.00  0.00    +0.000 A 
ATOM     31  C   UNL     1      89.316  62.862  84.269  0.00  0.00    +0.000 A 
BRANCH  29  32
ATOM     32  O   UNL     1      90.625  59.524  83.652  0.00  0.00    +0.000 OA
ATOM     33  H   UNL     1      90.283  59.278  82.816  0.00  0.00    +0.000 HD
ENDBRANCH  29  32
BRANCH  28  34
ATOM     34  O   UNL     1      92.783  60.610  84.779  0.00  0.00    +0.000 OA
ATOM     35  C   UNL     1      93.121  60.200  86.099  0.00  0.00    +0.000 C 
ENDBRANCH  28  34
ENDBRANCH  25  26
ENDBRANCH   3  24
TORSDOF 9
ENDMDL
