REMARK  Name = *****
REMARK  3 active torsions:
REMARK  status: ('A' for Active; 'I' for Inactive)
REMARK    1  A    between atoms: C_4  and  C_7
REMARK    2  A    between atoms: C_14  and  O_19
REMARK    3  A    between atoms: C_15  and  O_18
REMARK                            x       y       z     vdW  Elec       q    Type
REMARK                         _______ _______ _______ _____ _____    ______ ____
ROOT
ATOM      1  C   UNL     1      -2.964   0.457  -0.726  0.00  0.00    +0.000 A 
ATOM      2  C   UNL     1      -3.304   1.362  -1.656  0.00  0.00    +0.000 A 
ATOM      3  C   UNL     1      -4.716   1.497  -2.048  0.00  0.00    +0.000 A 
ATOM      4  O   UNL     1      -5.061   2.307  -2.897  0.00  0.00    +0.000 OA
ATOM      5  C   UNL     1      -5.673   0.611  -1.369  0.00  0.00    +0.000 A 
ATOM      6  C   UNL     1      -5.190  -0.285  -0.417  0.00  0.00    +0.000 A 
ATOM      7  O   UNL     1      -3.864  -0.375  -0.079  0.00  0.00    +0.000 OA
ATOM      8  C   UNL     1      -6.083  -1.133   0.231  0.00  0.00    +0.000 A 
ATOM      9  C   UNL     1      -7.443  -1.080  -0.068  0.00  0.00    +0.000 A 
ATOM     10  C   UNL     1      -7.930  -0.188  -1.015  0.00  0.00    +0.000 A 
ATOM     11  C   UNL     1      -7.041   0.665  -1.673  0.00  0.00    +0.000 A 
ENDROOT
BRANCH   1  15
ATOM     12  C   UNL     1       1.084  -0.062   0.580  0.00  0.00    +0.000 A 
ATOM     13  C   UNL     1       0.051   0.030   1.511  0.00  0.00    +0.000 A 
ATOM     14  C   UNL     1      -1.266   0.202   1.079  0.00  0.00    +0.000 A 
ATOM     15  C   UNL     1      -1.566   0.289  -0.288  0.00  0.00    +0.000 A 
ATOM     16  C   UNL     1      -0.517   0.187  -1.214  0.00  0.00    +0.000 A 
ATOM     17  C   UNL     1       0.800   0.015  -0.782  0.00  0.00    +0.000 A 
ENDBRANCH   1  15
BRANCH   9  18
ATOM     18  O   UNL     1      -8.316  -1.912   0.571  0.00  0.00    +0.000 OA
ATOM     19  H   UNL     1      -8.001  -2.518   1.212  0.00  0.00    +0.000 HD
ENDBRANCH   9  18
BRANCH   8  20
ATOM     20  O   UNL     1      -5.668  -2.039   1.172  0.00  0.00    +0.000 OA
ATOM     21  H   UNL     1      -4.760  -2.099   1.395  0.00  0.00    +0.000 HD
ENDBRANCH   8  20
TORSDOF 3
