MODEL 1
REMARK VINA RESULT:      -5.2      0.000      0.000
REMARK  Name = *****
REMARK  4 active torsions:
REMARK  status: ('A' for Active; 'I' for Inactive)
REMARK    1  A    between atoms: C_2  and  C_14
REMARK    2  A    between atoms: C_6  and  O_13
REMARK    3  A    between atoms: C_8  and  O_12
REMARK    4  A    between atoms: C_17  and  O_20
REMARK                            x       y       z     vdW  Elec       q    Type
REMARK                         _______ _______ _______ _____ _____    ______ ____
ROOT
ATOM      1  C   UNL     1     103.558 127.183  82.979  0.00  0.00    +0.000 C 
ATOM      2  C   UNL     1     102.971 126.537  81.738  0.00  0.00    +0.000 C 
ATOM      3  O   UNL     1     101.655 126.030  82.012  0.00  0.00    +0.000 OA
ATOM      4  C   UNL     1     100.800 126.988  82.497  0.00  0.00    +0.000 A 
ATOM      5  C   UNL     1      99.442 126.712  82.330  0.00  0.00    +0.000 A 
ATOM      6  C   UNL     1      98.501 127.630  82.782  0.00  0.00    +0.000 A 
ATOM      7  C   UNL     1      98.895 128.809  83.403  0.00  0.00    +0.000 A 
ATOM      8  C   UNL     1     100.255 129.073  83.588  0.00  0.00    +0.000 A 
ATOM      9  C   UNL     1     101.220 128.160  83.141  0.00  0.00    +0.000 A 
ATOM     10  C   UNL     1     102.682 128.348  83.352  0.00  0.00    +0.000 C 
ATOM     11  O   UNL     1     103.168 129.360  83.843  0.00  0.00    +0.000 OA
ENDROOT
BRANCH   2  12
ATOM     12  C   UNL     1     103.846 125.388  81.267  0.00  0.00    +0.000 A 
ATOM     13  C   UNL     1     104.003 124.224  82.038  0.00  0.00    +0.000 A 
ATOM     14  C   UNL     1     104.831 123.186  81.603  0.00  0.00    +0.000 A 
ATOM     15  C   UNL     1     105.509 123.312  80.396  0.00  0.00    +0.000 A 
ATOM     16  C   UNL     1     105.374 124.457  79.621  0.00  0.00    +0.000 A 
ATOM     17  C   UNL     1     104.546 125.494  80.055  0.00  0.00    +0.000 A 
BRANCH  15  18
ATOM     18  O   UNL     1     106.328 122.325  79.934  0.00  0.00    +0.000 OA
ATOM     19  H   UNL     1     107.124 122.128  80.385  0.00  0.00    +0.000 HD
ENDBRANCH  15  18
ENDBRANCH   2  12
BRANCH   8  20
ATOM     20  O   UNL     1     100.618 130.228  84.218  0.00  0.00    +0.000 OA
ATOM     21  H   UNL     1     101.110 130.879  83.756  0.00  0.00    +0.000 HD
ENDBRANCH   8  20
BRANCH   6  22
ATOM     22  O   UNL     1      97.164 127.409  82.632  0.00  0.00    +0.000 OA
ATOM     23  H   UNL     1      96.769 127.478  81.786  0.00  0.00    +0.000 HD
ENDBRANCH   6  22
TORSDOF 4
ENDMDL
