REMARK  Name = *****
REMARK  12 active torsions:
REMARK  status: ('A' for Active; 'I' for Inactive)
REMARK    1  A    between atoms: C_1  and  O_2
REMARK    2  A    between atoms: O_2  and  C_3
REMARK    3  A    between atoms: C_4  and  O_27
REMARK    4  A    between atoms: C_7  and  C_9
REMARK    5  A    between atoms: C_10  and  C_11
REMARK    6  A    between atoms: C_11  and  C_13
REMARK    7  A    between atoms: C_13  and  C_14
REMARK    8  A    between atoms: C_14  and  C_16
REMARK    9  A    between atoms: C_17  and  C_18
REMARK   10  A    between atoms: C_20  and  O_25
REMARK   11  A    between atoms: C_21  and  O_24
REMARK   12  A    between atoms: O_25  and  C_26
REMARK                            x       y       z     vdW  Elec       q    Type
REMARK                         _______ _______ _______ _____ _____    ______ ____
ROOT
ATOM      1  C   UNL     1      10.283   4.009   0.005  0.00  0.00    +0.000 C 
ENDROOT
BRANCH   1   2
ATOM      2  C   UNL     1       9.611   2.667  -0.059  0.00  0.00    +0.000 C 
ATOM      3  O   UNL     1       9.075   2.273  -1.094  0.00  0.00    +0.000 OA
BRANCH   2   5
ATOM      4  C   UNL     1       9.010   0.652   1.211  0.00  0.00    +0.000 C 
ATOM      5  C   UNL     1       9.651   1.829   1.172  0.00  0.00    +0.000 C 
BRANCH   4  10
ATOM      6  C   UNL     1       7.782  -1.707   3.874  0.00  0.00    +0.000 A 
ATOM      7  C   UNL     1       8.966  -1.937   4.582  0.00  0.00    +0.000 A 
ATOM      8  C   UNL     1      10.162  -1.338   4.214  0.00  0.00    +0.000 A 
ATOM      9  C   UNL     1      10.185  -0.482   3.113  0.00  0.00    +0.000 A 
ATOM     10  C   UNL     1       9.011  -0.223   2.391  0.00  0.00    +0.000 A 
ATOM     11  C   UNL     1       7.813  -0.852   2.770  0.00  0.00    +0.000 A 
BRANCH   6  13
ATOM     12  C   UNL     1       5.449  -2.132   3.687  0.00  0.00    +0.000 C 
ATOM     13  O   UNL     1       6.682  -2.371   4.355  0.00  0.00    +0.000 OA
ENDBRANCH   6  13
BRANCH   7  14
ATOM     14  O   UNL     1       8.969  -2.773   5.666  0.00  0.00    +0.000 OA
ATOM     15  H   UNL     1       8.176  -3.191   5.937  0.00  0.00    +0.000 HD
ENDBRANCH   7  14
ENDBRANCH   4  10
ENDBRANCH   2   5
ENDBRANCH   1   2
BRANCH   1  16
ATOM     16  C   UNL     1      11.777   3.886  -0.095  0.00  0.00    +0.000 C 
ATOM     17  O   UNL     1      12.471   3.736   0.909  0.00  0.00    +0.000 OA
BRANCH  16  18
ATOM     18  C   UNL     1      12.369   3.900  -1.462  0.00  0.00    +0.000 C 
ATOM     19  C   UNL     1      13.699   3.832  -1.620  0.00  0.00    +0.000 C 
BRANCH  19  20
ATOM     20  C   UNL     1      14.363   3.848  -2.930  0.00  0.00    +0.000 A 
ATOM     21  C   UNL     1      13.875   3.107  -4.021  0.00  0.00    +0.000 A 
ATOM     22  C   UNL     1      14.548   3.125  -5.245  0.00  0.00    +0.000 A 
ATOM     23  C   UNL     1      15.717   3.884  -5.361  0.00  0.00    +0.000 A 
ATOM     24  C   UNL     1      16.223   4.609  -4.291  0.00  0.00    +0.000 A 
ATOM     25  C   UNL     1      15.547   4.584  -3.072  0.00  0.00    +0.000 A 
BRANCH  23  26
ATOM     26  O   UNL     1      16.399   3.923  -6.547  0.00  0.00    +0.000 OA
ATOM     27  H   UNL     1      16.080   3.443  -7.286  0.00  0.00    +0.000 HD
ENDBRANCH  23  26
BRANCH  22  28
ATOM     28  O   UNL     1      14.179   2.454  -6.383  0.00  0.00    +0.000 OA
ATOM     29  C   UNL     1      13.009   1.648  -6.300  0.00  0.00    +0.000 C 
ENDBRANCH  22  28
ENDBRANCH  19  20
ENDBRANCH  16  18
ENDBRANCH   1  16
TORSDOF 10
