REMARK  Name = *****
REMARK  4 active torsions:
REMARK  status: ('A' for Active; 'I' for Inactive)
REMARK    1  A    between atoms: C_1  and  C_2
REMARK    2  A    between atoms: C_6  and  O_8
REMARK    3  A    between atoms: C_16  and  O_20
REMARK    4  A    between atoms: C_18  and  O_19
REMARK                            x       y       z     vdW  Elec       q    Type
REMARK                         _______ _______ _______ _____ _____    ______ ____
ROOT
ATOM      1  C   UNL     1       0.908   0.034   0.054  0.00  0.00    +0.000 C 
ATOM      2  C   UNL     1       2.408  -0.013   0.051  0.00  0.00    +0.000 A 
ATOM      3  C   UNL     1       3.093  -1.233   0.051  0.00  0.00    +0.000 A 
ATOM      4  C   UNL     1       4.497  -1.262   0.049  0.00  0.00    +0.000 A 
ATOM      5  C   UNL     1       5.227  -0.078   0.045  0.00  0.00    +0.000 A 
ATOM      6  C   UNL     1       4.538   1.143   0.045  0.00  0.00    +0.000 A 
ATOM      7  C   UNL     1       3.143   1.177   0.048  0.00  0.00    +0.000 A 
ATOM      8  C   UNL     1       6.706  -0.114   0.042  0.00  0.00    +0.000 C 
ATOM      9  O   UNL     1       7.296   0.962   0.040  0.00  0.00    +0.000 OA
ATOM     10  C   UNL     1       7.414  -1.421   0.043  0.00  0.00    +0.000 A 
ATOM     11  C   UNL     1       6.664  -2.602   0.046  0.00  0.00    +0.000 A 
ATOM     12  C   UNL     1       5.189  -2.562   0.049  0.00  0.00    +0.000 C 
ATOM     13  O   UNL     1       4.547  -3.607   0.052  0.00  0.00    +0.000 OA
ATOM     14  C   UNL     1       7.295  -3.856   0.046  0.00  0.00    +0.000 A 
ATOM     15  C   UNL     1       8.680  -3.923   0.043  0.00  0.00    +0.000 A 
ATOM     16  C   UNL     1       9.446  -2.765   0.040  0.00  0.00    +0.000 A 
ATOM     17  C   UNL     1       8.816  -1.518   0.040  0.00  0.00    +0.000 A 
ENDROOT
BRANCH   6  18
ATOM     18  O   UNL     1       5.168   2.359   0.043  0.00  0.00    +0.000 OA
ATOM     19  H   UNL     1       6.104   2.402   0.041  0.00  0.00    +0.000 HD
ENDBRANCH   6  18
BRANCH  17  20
ATOM     20  O   UNL     1       9.597  -0.398   0.037  0.00  0.00    +0.000 OA
ATOM     21  H   UNL     1       9.199   0.451   0.036  0.00  0.00    +0.000 HD
ENDBRANCH  17  20
BRANCH  15  22
ATOM     22  O   UNL     1       9.336  -5.117   0.044  0.00  0.00    +0.000 OA
ATOM     23  H   UNL     1       8.850  -5.918   0.046  0.00  0.00    +0.000 HD
ENDBRANCH  15  22
TORSDOF 3
