MODEL 1
REMARK VINA RESULT:      -4.5      0.000      0.000
REMARK  Name = *****
REMARK  12 active torsions:
REMARK  status: ('A' for Active; 'I' for Inactive)
REMARK    1  A    between atoms: C_1  and  O_2
REMARK    2  A    between atoms: O_2  and  C_3
REMARK    3  A    between atoms: C_4  and  O_27
REMARK    4  A    between atoms: C_7  and  C_9
REMARK    5  A    between atoms: C_10  and  C_11
REMARK    6  A    between atoms: C_11  and  C_13
REMARK    7  A    between atoms: C_13  and  C_14
REMARK    8  A    between atoms: C_14  and  C_16
REMARK    9  A    between atoms: C_17  and  C_18
REMARK   10  A    between atoms: C_20  and  O_25
REMARK   11  A    between atoms: C_21  and  O_24
REMARK   12  A    between atoms: O_25  and  C_26
REMARK                            x       y       z     vdW  Elec       q    Type
REMARK                         _______ _______ _______ _____ _____    ______ ____
ROOT
ATOM      1  C   UNL     1      86.739  70.111  90.858  0.00  0.00    +0.000 C 
ENDROOT
BRANCH   1   2
ATOM      2  C   UNL     1      85.710  69.307  90.117  0.00  0.00    +0.000 C 
ATOM      3  O   UNL     1      84.614  69.787  89.829  0.00  0.00    +0.000 OA
BRANCH   2   5
ATOM      4  C   UNL     1      86.351  67.630  88.439  0.00  0.00    +0.000 C 
ATOM      5  C   UNL     1      86.088  67.921  89.722  0.00  0.00    +0.000 C 
BRANCH   4  10
ATOM      6  C   UNL     1      87.851  64.179  88.446  0.00  0.00    +0.000 A 
ATOM      7  C   UNL     1      87.429  63.711  87.197  0.00  0.00    +0.000 A 
ATOM      8  C   UNL     1      86.666  64.496  86.346  0.00  0.00    +0.000 A 
ATOM      9  C   UNL     1      86.313  65.786  86.742  0.00  0.00    +0.000 A 
ATOM     10  C   UNL     1      86.731  66.287  87.983  0.00  0.00    +0.000 A 
ATOM     11  C   UNL     1      87.490  65.470  88.838  0.00  0.00    +0.000 A 
BRANCH   6  13
ATOM     12  C   UNL     1      89.084  63.742  90.433  0.00  0.00    +0.000 C 
ATOM     13  O   UNL     1      88.596  63.287  89.176  0.00  0.00    +0.000 OA
ENDBRANCH   6  13
BRANCH   7  14
ATOM     14  O   UNL     1      87.763  62.449  86.786  0.00  0.00    +0.000 OA
ATOM     15  H   UNL     1      87.093  61.847  86.529  0.00  0.00    +0.000 HD
ENDBRANCH   7  14
ENDBRANCH   4  10
ENDBRANCH   2   5
ENDBRANCH   1   2
BRANCH   1  16
ATOM     16  C   UNL     1      87.281  71.230  90.015  0.00  0.00    +0.000 C 
ATOM     17  O   UNL     1      87.455  72.353  90.485  0.00  0.00    +0.000 OA
BRANCH  16  18
ATOM     18  C   UNL     1      87.646  70.904  88.608  0.00  0.00    +0.000 C 
ATOM     19  C   UNL     1      88.794  70.262  88.342  0.00  0.00    +0.000 C 
BRANCH  19  20
ATOM     20  C   UNL     1      89.232  69.911  86.985  0.00  0.00    +0.000 A 
ATOM     21  C   UNL     1      89.382  68.574  86.574  0.00  0.00    +0.000 A 
ATOM     22  C   UNL     1      89.826  68.277  85.284  0.00  0.00    +0.000 A 
ATOM     23  C   UNL     1      90.127  69.331  84.415  0.00  0.00    +0.000 A 
ATOM     24  C   UNL     1      90.000  70.657  84.807  0.00  0.00    +0.000 A 
ATOM     25  C   UNL     1      89.558  70.945  86.097  0.00  0.00    +0.000 A 
BRANCH  23  26
ATOM     26  O   UNL     1      90.564  69.074  83.143  0.00  0.00    +0.000 OA
ATOM     27  H   UNL     1      91.147  69.672  82.719  0.00  0.00    +0.000 HD
ENDBRANCH  23  26
BRANCH  22  28
ATOM     28  O   UNL     1      90.012  67.024  84.758  0.00  0.00    +0.000 OA
ATOM     29  C   UNL     1      90.153  65.955  85.687  0.00  0.00    +0.000 C 
ENDBRANCH  22  28
ENDBRANCH  19  20
ENDBRANCH  16  18
ENDBRANCH   1  16
TORSDOF 10
ENDMDL
