REMARK  Name = *****
REMARK  4 active torsions:
REMARK  status: ('A' for Active; 'I' for Inactive)
REMARK    1  A    between atoms: C_2  and  C_14
REMARK    2  A    between atoms: C_6  and  O_13
REMARK    3  A    between atoms: C_8  and  O_12
REMARK    4  A    between atoms: C_17  and  O_20
REMARK                            x       y       z     vdW  Elec       q    Type
REMARK                         _______ _______ _______ _____ _____    ______ ____
ROOT
ATOM      1  C   UNL     1       2.775  -0.619   0.326  0.00  0.00    +0.000 C 
ATOM      2  C   UNL     1       2.187  -1.694  -0.569  0.00  0.00    +0.000 C 
ATOM      3  O   UNL     1       0.885  -2.078  -0.101  0.00  0.00    +0.000 OA
ATOM      4  C   UNL     1       0.017  -1.020   0.002  0.00  0.00    +0.000 A 
ATOM      5  C   UNL     1      -1.338  -1.357  -0.025  0.00  0.00    +0.000 A 
ATOM      6  C   UNL     1      -2.291  -0.350   0.065  0.00  0.00    +0.000 A 
ATOM      7  C   UNL     1      -1.913   0.982   0.189  0.00  0.00    +0.000 A 
ATOM      8  C   UNL     1      -0.557   1.315   0.236  0.00  0.00    +0.000 A 
ATOM      9  C   UNL     1       0.421   0.314   0.150  0.00  0.00    +0.000 A 
ATOM     10  C   UNL     1       1.881   0.588   0.248  0.00  0.00    +0.000 C 
ATOM     11  O   UNL     1       2.353   1.717   0.313  0.00  0.00    +0.000 OA
ENDROOT
BRANCH   2  12
ATOM     12  C   UNL     1       3.079  -2.923  -0.588  0.00  0.00    +0.000 A 
ATOM     13  C   UNL     1       3.047  -3.867   0.453  0.00  0.00    +0.000 A 
ATOM     14  C   UNL     1       3.891  -4.980   0.434  0.00  0.00    +0.000 A 
ATOM     15  C   UNL     1       4.775  -5.150  -0.626  0.00  0.00    +0.000 A 
ATOM     16  C   UNL     1       4.829  -4.226  -1.662  0.00  0.00    +0.000 A 
ATOM     17  C   UNL     1       3.985  -3.114  -1.643  0.00  0.00    +0.000 A 
BRANCH  15  18
ATOM     18  O   UNL     1       5.617  -6.220  -0.685  0.00  0.00    +0.000 OA
ATOM     19  H   UNL     1       5.607  -6.862  -0.003  0.00  0.00    +0.000 HD
ENDBRANCH  15  18
ENDBRANCH   2  12
BRANCH   8  20
ATOM     20  O   UNL     1      -0.209   2.627   0.378  0.00  0.00    +0.000 OA
ATOM     21  H   UNL     1      -0.875   3.285   0.434  0.00  0.00    +0.000 HD
ENDBRANCH   8  20
BRANCH   6  22
ATOM     22  O   UNL     1      -3.625  -0.629   0.033  0.00  0.00    +0.000 OA
ATOM     23  H   UNL     1      -3.917  -1.515  -0.050  0.00  0.00    +0.000 HD
ENDBRANCH   6  22
TORSDOF 4
