REMARK  Name = *****
REMARK  11 active torsions:
REMARK  status: ('A' for Active; 'I' for Inactive)
REMARK    1  A    between atoms: C_1  and  O_2
REMARK    2  A    between atoms: O_2  and  C_3
REMARK    3  A    between atoms: C_4  and  O_33
REMARK    4  A    between atoms: C_7  and  C_9
REMARK    5  A    between atoms: C_10  and  C_11
REMARK    6  A    between atoms: C_13  and  C_22
REMARK    7  A    between atoms: N_15  and  C_16
REMARK    8  A    between atoms: C_23  and  C_24
REMARK    9  A    between atoms: C_26  and  O_31
REMARK   10  A    between atoms: C_27  and  O_30
REMARK   11  A    between atoms: O_31  and  C_32
REMARK                            x       y       z     vdW  Elec       q    Type
REMARK                         _______ _______ _______ _____ _____    ______ ____
ROOT
ATOM      1  C   UNL     1       8.931   3.016   0.049  0.00  0.00    +0.000 A 
ATOM      2  C   UNL     1       9.806   2.175  -0.609  0.00  0.00    +0.000 A 
ATOM      3  C   UNL     1      11.087   2.724  -0.411  0.00  0.00    +0.000 A 
ATOM      4  N   UNL     1      11.027   3.829   0.333  0.00  0.00    +0.000 NA
ATOM      5  N   UNL     1       9.723   3.955   0.716  0.00  0.00    +0.000 N 
ENDROOT
BRANCH   5   6
ATOM      6  C   UNL     1       9.393   4.953   1.691  0.00  0.00    +0.000 A 
ATOM      7  C   UNL     1      10.351   5.935   2.006  0.00  0.00    +0.000 A 
ATOM      8  C   UNL     1      10.079   6.922   2.957  0.00  0.00    +0.000 A 
ATOM      9  C   UNL     1       8.853   6.937   3.614  0.00  0.00    +0.000 A 
ATOM     10  C   UNL     1       7.902   5.961   3.326  0.00  0.00    +0.000 A 
ATOM     11  C   UNL     1       8.170   4.970   2.375  0.00  0.00    +0.000 A 
ENDBRANCH   5   6
BRANCH   1  13
ATOM     12  C   UNL     1       6.829   3.937  -0.612  0.00  0.00    +0.000 C 
ATOM     13  C   UNL     1       7.516   3.005   0.068  0.00  0.00    +0.000 C 
BRANCH  12  18
ATOM     14  C   UNL     1       3.381   5.437  -0.802  0.00  0.00    +0.000 A 
ATOM     15  C   UNL     1       2.589   4.286  -0.760  0.00  0.00    +0.000 A 
ATOM     16  C   UNL     1       3.150   3.020  -0.676  0.00  0.00    +0.000 A 
ATOM     17  C   UNL     1       4.538   2.890  -0.625  0.00  0.00    +0.000 A 
ATOM     18  C   UNL     1       5.360   4.026  -0.645  0.00  0.00    +0.000 A 
ATOM     19  C   UNL     1       4.770   5.300  -0.747  0.00  0.00    +0.000 A 
BRANCH  14  21
ATOM     20  C   UNL     1       3.458   7.807  -0.991  0.00  0.00    +0.000 C 
ATOM     21  O   UNL     1       2.685   6.615  -0.896  0.00  0.00    +0.000 OA
ENDBRANCH  14  21
BRANCH  15  22
ATOM     22  O   UNL     1       1.225   4.386  -0.809  0.00  0.00    +0.000 OA
ATOM     23  H   UNL     1       0.819   5.228  -0.866  0.00  0.00    +0.000 HD
ENDBRANCH  15  22
ENDBRANCH  12  18
ENDBRANCH   1  13
BRANCH   3  24
ATOM     24  C   UNL     1      12.293   2.178  -0.962  0.00  0.00    +0.000 C 
ATOM     25  C   UNL     1      13.506   2.745  -0.847  0.00  0.00    +0.000 C 
BRANCH  25  26
ATOM     26  C   UNL     1      14.761   2.193  -1.382  0.00  0.00    +0.000 A 
ATOM     27  C   UNL     1      14.814   1.439  -2.568  0.00  0.00    +0.000 A 
ATOM     28  C   UNL     1      16.035   0.958  -3.048  0.00  0.00    +0.000 A 
ATOM     29  C   UNL     1      17.206   1.261  -2.345  0.00  0.00    +0.000 A 
ATOM     30  C   UNL     1      17.178   2.017  -1.182  0.00  0.00    +0.000 A 
ATOM     31  C   UNL     1      15.955   2.485  -0.704  0.00  0.00    +0.000 A 
BRANCH  29  32
ATOM     32  O   UNL     1      18.417   0.813  -2.797  0.00  0.00    +0.000 OA
ATOM     33  H   UNL     1      18.465   0.300  -3.579  0.00  0.00    +0.000 HD
ENDBRANCH  29  32
BRANCH  28  34
ATOM     34  O   UNL     1      16.221   0.205  -4.180  0.00  0.00    +0.000 OA
ATOM     35  C   UNL     1      15.047  -0.240  -4.849  0.00  0.00    +0.000 C 
ENDBRANCH  28  34
ENDBRANCH  25  26
ENDBRANCH   3  24
TORSDOF 9
