REMARK  Name = *****
REMARK  6 active torsions:
REMARK  status: ('A' for Active; 'I' for Inactive)
REMARK    1  A    between atoms: C_1  and  O_2
REMARK    2  A    between atoms: O_2  and  C_3
REMARK    3  A    between atoms: C_12  and  O_17
REMARK    4  A    between atoms: C_12  and  C_19
REMARK    5  A    between atoms: C_14  and  O_15
REMARK    6  A    between atoms: O_17  and  C_18
REMARK                            x       y       z     vdW  Elec       q    Type
REMARK                         _______ _______ _______ _____ _____    ______ ____
ROOT
ATOM      1  C   UNL     1       3.388   1.113  -0.438  0.00  0.00    +0.000 A 
ATOM      2  C   UNL     1       4.357   0.809  -1.403  0.00  0.00    +0.000 A 
ATOM      3  C   UNL     1       4.701   1.830  -2.283  0.00  0.00    +0.000 A 
ATOM      4  O   UNL     1       5.624   1.730  -3.281  0.00  0.00    +0.000 OA
ATOM      5  C   UNL     1       5.669   2.938  -3.901  0.00  0.00    +0.000 A 
ATOM      6  C   UNL     1       4.788   3.815  -3.314  0.00  0.00    +0.000 A 
ATOM      7  C   UNL     1       4.153   3.103  -2.259  0.00  0.00    +0.000 A 
ATOM      8  C   UNL     1       3.175   3.398  -1.292  0.00  0.00    +0.000 A 
ATOM      9  O   UNL     1       2.667   4.669  -1.280  0.00  0.00    +0.000 OA
ATOM     10  C   UNL     1       1.452   4.876  -0.543  0.00  0.00    +0.000 C 
ATOM     11  C   UNL     1       1.560   4.210   0.838  0.00  0.00    +0.000 C 
ATOM     12  C   UNL     1       1.755   2.709   0.670  0.00  0.00    +0.000 C 
ATOM     13  C   UNL     1       2.797   2.397  -0.374  0.00  0.00    +0.000 A 
ENDROOT
BRANCH  10  14
ATOM     14  C   UNL     1       1.239   6.381  -0.309  0.00  0.00    +0.000 A 
ATOM     15  C   UNL     1       2.293   7.302  -0.441  0.00  0.00    +0.000 A 
ATOM     16  C   UNL     1       2.089   8.664  -0.203  0.00  0.00    +0.000 A 
ATOM     17  C   UNL     1       0.831   9.127   0.175  0.00  0.00    +0.000 A 
ATOM     18  C   UNL     1      -0.224   8.230   0.320  0.00  0.00    +0.000 A 
ATOM     19  C   UNL     1      -0.022   6.869   0.084  0.00  0.00    +0.000 A 
ENDBRANCH  10  14
BRANCH   1  21
ATOM     20  C   UNL     1       3.329  -1.144   0.344  0.00  0.00    +0.000 C 
ATOM     21  O   UNL     1       2.975   0.221   0.523  0.00  0.00    +0.000 OA
ENDBRANCH   1  21
BRANCH  12  22
ATOM     22  O   UNL     1       0.515   2.092   0.321  0.00  0.00    +0.000 OA
ATOM     23  H   UNL     1       0.204   2.447  -0.527  0.00  0.00    +0.000 HD
ENDBRANCH  12  22
BRANCH  10  24
ATOM     24  O   UNL     1       0.310   4.312  -1.228  0.00  0.00    +0.000 OA
ATOM     25  C   UNL     1       0.202   4.706  -2.593  0.00  0.00    +0.000 C 
ENDBRANCH  10  24
TORSDOF 4
