REMARK  Name = *****
REMARK  6 active torsions:
REMARK  status: ('A' for Active; 'I' for Inactive)
REMARK    1  A    between atoms: C_1  and  O_2
REMARK    2  A    between atoms: O_2  and  C_3
REMARK    3  A    between atoms: C_5  and  O_6
REMARK    4  A    between atoms: C_8  and  O_9
REMARK    5  A    between atoms: C_8  and  C_19
REMARK    6  A    between atoms: O_9  and  C_10
REMARK                            x       y       z     vdW  Elec       q    Type
REMARK                         _______ _______ _______ _____ _____    ______ ____
ROOT
ATOM      1  C   UNL     1       3.033  -0.615  -0.995  0.00  0.00    +0.000 A 
ATOM      2  C   UNL     1       3.850  -1.531  -0.289  0.00  0.00    +0.000 A 
ATOM      3  C   UNL     1       4.119  -1.330   1.171  0.00  0.00    +0.000 C 
ATOM      4  C   UNL     1       4.693  -2.556   1.857  0.00  0.00    +0.000 C 
ATOM      5  C   UNL     1       5.616  -3.416   0.974  0.00  0.00    +0.000 C 
ATOM      6  O   UNL     1       5.226  -3.542  -0.398  0.00  0.00    +0.000 OA
ATOM      7  C   UNL     1       4.415  -2.609  -0.970  0.00  0.00    +0.000 A 
ATOM      8  C   UNL     1       4.187  -2.814  -2.338  0.00  0.00    +0.000 A 
ATOM      9  C   UNL     1       3.403  -1.875  -2.997  0.00  0.00    +0.000 A 
ATOM     10  O   UNL     1       3.103  -1.888  -4.325  0.00  0.00    +0.000 OA
ATOM     11  C   UNL     1       2.352  -0.784  -4.571  0.00  0.00    +0.000 A 
ATOM     12  C   UNL     1       2.161  -0.062  -3.416  0.00  0.00    +0.000 A 
ATOM     13  C   UNL     1       2.827  -0.773  -2.380  0.00  0.00    +0.000 A 
ENDROOT
BRANCH   5  14
ATOM     14  C   UNL     1       5.547  -4.847   1.573  0.00  0.00    +0.000 A 
ATOM     15  C   UNL     1       4.690  -5.830   1.040  0.00  0.00    +0.000 A 
ATOM     16  C   UNL     1       4.605  -7.100   1.615  0.00  0.00    +0.000 A 
ATOM     17  C   UNL     1       5.367  -7.412   2.738  0.00  0.00    +0.000 A 
ATOM     18  C   UNL     1       6.213  -6.454   3.290  0.00  0.00    +0.000 A 
ATOM     19  C   UNL     1       6.299  -5.184   2.716  0.00  0.00    +0.000 A 
ENDBRANCH   5  14
BRANCH   1  21
ATOM     20  C   UNL     1       1.136   0.374  -0.125  0.00  0.00    +0.000 C 
ATOM     21  O   UNL     1       2.549   0.485  -0.310  0.00  0.00    +0.000 OA
ENDBRANCH   1  21
BRANCH   3  22
ATOM     22  O   UNL     1       4.958  -0.196   1.364  0.00  0.00    +0.000 OA
ATOM     23  H   UNL     1       5.817  -0.353   0.943  0.00  0.00    +0.000 HD
ENDBRANCH   3  22
BRANCH   5  24
ATOM     24  O   UNL     1       7.011  -3.084   1.067  0.00  0.00    +0.000 OA
ATOM     25  C   UNL     1       7.391  -1.789   0.651  0.00  0.00    +0.000 C 
ENDBRANCH   5  24
TORSDOF 4
