@<TRIPOS>MOLECULE
CTL1
 17 17 0 0 0
SMALL
GASTEIGER

@<TRIPOS>ATOM
      1 C         101.5100  128.6770   83.7950 C.ar    1  CTL1       -0.0074
      2 C         100.4310  129.5690   83.8880 C.ar    1  CTL1        0.0044
      3 C          99.1920  129.2570   83.3020 C.ar    1  CTL1       -0.0074
      4 C          99.0340  128.0380   82.6520 C.ar    1  CTL1        0.1626
      5 C         100.0960  127.1430   82.5820 C.ar    1  CTL1        0.2006
      6 C         101.3230  127.4630   83.1470 C.ar    1  CTL1        0.1626
      7 C         100.5640  130.8770   84.5690 C.2     1  CTL1        0.0719
      8 O         101.5770  131.5500   84.5030 O.co2   1  CTL1       -0.5446
      9 O          99.4440  131.2770   85.2060 O.co2   1  CTL1       -0.5446
     10 O         102.3650  126.5870   83.0640 O.3     1  CTL1       -0.5032
     11 O          99.9510  125.9390   81.9490 O.3     1  CTL1       -0.5009
     12 O          97.8550  127.6750   82.0660 O.3     1  CTL1       -0.5032
     13 H         102.4273  128.9190   84.2013 H       1  CTL1        0.0662
     14 H          98.4077  129.9258   83.3537 H       1  CTL1        0.0662
     15 H         102.2521  125.7645   82.6295 H       1  CTL1        0.2923
     16 H          99.1289  125.7088   81.5628 H       1  CTL1        0.2924
     17 H          97.7815  126.8459   81.6357 H       1  CTL1        0.2923
@<TRIPOS>BOND
     1    11     5    1
     2    12     4    1
     3     5     4   ar
     4     5     6   ar
     5     4     3   ar
     6    10     6    1
     7     6     1   ar
     8     3     2   ar
     9     1     2   ar
    10     2     7    1
    11     8     7   ar
    12     7     9   ar
    13     1    13    1
    14     3    14    1
    15    10    15    1
    16    11    16    1
    17    12    17    1
