MODEL 1
REMARK VINA RESULT:      -5.5      0.000      0.000
REMARK  Name = *****
REMARK  6 active torsions:
REMARK  status: ('A' for Active; 'I' for Inactive)
REMARK    1  A    between atoms: C_1  and  N_2
REMARK    2  A    between atoms: N_2  and  C_3
REMARK    3  A    between atoms: N_2  and  C_4
REMARK    4  A    between atoms: C_4  and  C_5
REMARK    5  A    between atoms: C_5  and  C_6
REMARK    6  A    between atoms: C_6  and  C_7
REMARK                            x       y       z     vdW  Elec       q    Type
REMARK                         _______ _______ _______ _____ _____    ______ ____
ROOT
ATOM      1  C   UNL     1      88.451  70.065  87.045  0.00  0.00    +0.000 C 
ATOM      2  C   UNL     1      88.656  70.830  85.793  0.00  0.00    +0.000 C 
ATOM      3  C   UNL     1      89.953  70.973  85.270  0.00  0.00    +0.000 C 
ATOM      4  C   UNL     1      90.174  71.698  84.098  0.00  0.00    +0.000 C 
ATOM      5  C   UNL     1      89.103  72.296  83.443  0.00  0.00    +0.000 C 
ATOM      6  C   UNL     1      87.814  72.180  83.966  0.00  0.00    +0.000 C 
ATOM      7  C   UNL     1      87.575  71.465  85.152  0.00  0.00    +0.000 C 
ATOM      8  C   UNL     1      86.182  71.379  85.627  0.00  0.00    +0.000 C 
ATOM      9  C   UNL     1      85.750  71.322  86.898  0.00  0.00    +0.000 C 
ATOM     10  C   UNL     1      86.564  71.326  88.128  0.00  0.00    +0.000 A 
ATOM     11  C   UNL     1      86.007  71.919  89.274  0.00  0.00    +0.000 A 
ATOM     12  C   UNL     1      86.700  71.932  90.487  0.00  0.00    +0.000 A 
ATOM     13  C   UNL     1      87.958  71.344  90.574  0.00  0.00    +0.000 A 
ATOM     14  C   UNL     1      88.520  70.739  89.451  0.00  0.00    +0.000 A 
ATOM     15  C   UNL     1      87.827  70.711  88.227  0.00  0.00    +0.000 A 
ENDROOT
BRANCH   1  16
ATOM     16  C   UNL     1      88.717  68.742  87.132  0.00  0.00    +0.000 C 
BRANCH  16  17
ATOM     17  C   UNL     1      88.566  67.684  86.067  0.00  0.00    +0.000 C 
BRANCH  17  18
ATOM     18  C   UNL     1      89.938  67.235  85.531  0.00  0.00    +0.000 C 
BRANCH  18  20
ATOM     19  C   UNL     1      89.307  65.071  86.376  0.00  0.00    +0.000 C 
ATOM     20  N   UNL     1      90.429  65.979  86.131  0.00  0.00    +0.000 N 
ATOM     21  C   UNL     1      91.426  65.317  85.286  0.00  0.00    +0.000 C 
ATOM     22  H   UNL     1      90.883  66.218  87.013  0.00  0.00    +0.000 HD
ENDBRANCH  18  20
ENDBRANCH  17  18
ENDBRANCH  16  17
ENDBRANCH   1  16
TORSDOF 4
ENDMDL
