MODEL 1
REMARK VINA RESULT:      -5.6      0.000      0.000
REMARK  Name = *****
REMARK  7 active torsions:
REMARK  status: ('A' for Active; 'I' for Inactive)
REMARK    1  A    between atoms: C_1  and  C_2
REMARK    2  A    between atoms: C_3  and  C_4
REMARK    3  A    between atoms: C_4  and  C_5
REMARK    4  A    between atoms: C_15  and  C_16
REMARK    5  A    between atoms: C_16  and  C_17
REMARK    6  A    between atoms: C_20  and  S_23
REMARK    7  A    between atoms: S_23  and  C_24
REMARK                            x       y       z     vdW  Elec       q    Type
REMARK                         _______ _______ _______ _____ _____    ______ ____
ROOT
ATOM      1  C   UNL     1      89.278  69.830  87.535  0.00  0.00    +0.000 C 
ATOM      2  C   UNL     1      87.973  70.523  87.313  0.00  0.00    +0.000 C 
ATOM      3  C   UNL     1      87.084  70.934  88.246  0.00  0.00    +0.000 C 
ATOM      4  C   UNL     1      85.955  71.569  87.544  0.00  0.00    +0.000 C 
ATOM      5  C   UNL     1      84.807  72.144  88.073  0.00  0.00    +0.000 C 
ATOM      6  C   UNL     1      83.875  72.675  87.187  0.00  0.00    +0.000 C 
ATOM      7  F   UNL     1      82.760  73.238  87.669  0.00  0.00    +0.000 F 
ATOM      8  C   UNL     1      84.075  72.637  85.804  0.00  0.00    +0.000 C 
ATOM      9  C   UNL     1      85.233  72.058  85.277  0.00  0.00    +0.000 C 
ATOM     10  C   UNL     1      86.170  71.529  86.153  0.00  0.00    +0.000 C 
ATOM     11  C   UNL     1      87.471  70.861  85.970  0.00  0.00    +0.000 C 
ENDROOT
BRANCH   3  12
ATOM     12  C   UNL     1      87.143  70.827  89.735  0.00  0.00    +0.000 C 
BRANCH  12  13
ATOM     13  C   UNL     1      87.672  72.074  90.425  0.00  0.00    +0.000 C 
ATOM     14  O   UNL     1      88.977  72.349  90.205  0.00  0.00    +0.000 OA
ATOM     15  O   UNL     1      86.959  72.822  91.080  0.00  0.00    +0.000 OA
ENDBRANCH  12  13
ENDBRANCH   3  12
BRANCH  11  16
ATOM     16  C   UNL     1      88.132  70.590  84.829  0.00  0.00    +0.000 C 
BRANCH  16  17
ATOM     17  C   UNL     1      89.227  71.363  84.243  0.00  0.00    +0.000 A 
ATOM     18  C   UNL     1      90.481  70.773  84.057  0.00  0.00    +0.000 A 
ATOM     19  C   UNL     1      91.530  71.511  83.504  0.00  0.00    +0.000 A 
ATOM     20  C   UNL     1      91.330  72.845  83.127  0.00  0.00    +0.000 A 
ATOM     21  C   UNL     1      90.075  73.433  83.316  0.00  0.00    +0.000 A 
ATOM     22  C   UNL     1      89.025  72.694  83.868  0.00  0.00    +0.000 A 
BRANCH  20  23
ATOM     23  S   UNL     1      92.702  73.790  82.426  0.00  0.00    +0.000 S 
ATOM     24  C   UNL     1      91.707  74.883  81.379  0.00  0.00    +0.000 C 
ATOM     25  O   UNL     1      93.245  74.623  83.550  0.00  0.00    +0.000 OA
ENDBRANCH  20  23
ENDBRANCH  16  17
ENDBRANCH  11  16
TORSDOF 5
ENDMDL
