REMARK  Name = *****
REMARK  7 active torsions:
REMARK  status: ('A' for Active; 'I' for Inactive)
REMARK    1  A    between atoms: C_1  and  C_2
REMARK    2  A    between atoms: C_3  and  C_4
REMARK    3  A    between atoms: C_4  and  C_5
REMARK    4  A    between atoms: C_15  and  C_16
REMARK    5  A    between atoms: C_16  and  C_17
REMARK    6  A    between atoms: C_20  and  S_23
REMARK    7  A    between atoms: S_23  and  C_24
REMARK                            x       y       z     vdW  Elec       q    Type
REMARK                         _______ _______ _______ _____ _____    ______ ____
ROOT
ATOM      1  C   UNL     1       1.137  -0.640  -0.015  0.00  0.00    +0.000 C 
ATOM      2  C   UNL     1       2.593  -0.306  -0.017  0.00  0.00    +0.000 C 
ATOM      3  C   UNL     1       3.162   0.921  -0.029  0.00  0.00    +0.000 C 
ATOM      4  C   UNL     1       4.624   0.741  -0.019  0.00  0.00    +0.000 C 
ATOM      5  C   UNL     1       5.625   1.703  -0.023  0.00  0.00    +0.000 C 
ATOM      6  C   UNL     1       6.947   1.270  -0.021  0.00  0.00    +0.000 C 
ATOM      7  F   UNL     1       7.933   2.176  -0.022  0.00  0.00    +0.000 F 
ATOM      8  C   UNL     1       7.272  -0.089  -0.017  0.00  0.00    +0.000 C 
ATOM      9  C   UNL     1       6.261  -1.054  -0.012  0.00  0.00    +0.000 C 
ATOM     10  C   UNL     1       4.939  -0.632  -0.010  0.00  0.00    +0.000 C 
ATOM     11  C   UNL     1       3.645  -1.338  -0.004  0.00  0.00    +0.000 C 
ENDROOT
BRANCH   3  12
ATOM     12  C   UNL     1       2.521   2.271  -0.037  0.00  0.00    +0.000 C 
BRANCH  12  13
ATOM     13  C   UNL     1       2.699   3.033  -1.340  0.00  0.00    +0.000 C 
ATOM     14  O   UNL     1       2.618   2.287  -2.464  0.00  0.00    +0.000 OA
ATOM     15  O   UNL     1       2.838   4.248  -1.384  0.00  0.00    +0.000 OA
ENDBRANCH  12  13
ENDBRANCH   3  12
BRANCH  11  16
ATOM     16  C   UNL     1       3.402  -2.661   0.018  0.00  0.00    +0.000 C 
BRANCH  16  17
ATOM     17  C   UNL     1       4.393  -3.736   0.048  0.00  0.00    +0.000 A 
ATOM     18  C   UNL     1       4.873  -4.215   1.271  0.00  0.00    +0.000 A 
ATOM     19  C   UNL     1       5.825  -5.237   1.301  0.00  0.00    +0.000 A 
ATOM     20  C   UNL     1       6.299  -5.793   0.107  0.00  0.00    +0.000 A 
ATOM     21  C   UNL     1       5.819  -5.311  -1.115  0.00  0.00    +0.000 A 
ATOM     22  C   UNL     1       4.866  -4.289  -1.146  0.00  0.00    +0.000 A 
BRANCH  20  23
ATOM     23  S   UNL     1       7.541  -7.105   0.164  0.00  0.00    +0.000 S 
ATOM     24  C   UNL     1       6.414  -8.460   0.582  0.00  0.00    +0.000 C 
ATOM     25  O   UNL     1       7.983  -7.316  -1.255  0.00  0.00    +0.000 OA
ENDBRANCH  20  23
ENDBRANCH  16  17
ENDBRANCH  11  16
TORSDOF 5
