MODEL 1
REMARK VINA RESULT:      -5.2      0.000      0.000
REMARK  Name = *****
REMARK  8 active torsions:
REMARK  status: ('A' for Active; 'I' for Inactive)
REMARK    1  A    between atoms: C_1  and  C_2
REMARK    2  A    between atoms: C_2  and  C_3
REMARK    3  A    between atoms: C_3  and  N_4
REMARK    4  A    between atoms: C_6  and  C_17
REMARK    5  A    between atoms: C_7  and  C_10
REMARK    6  A    between atoms: C_13  and  C_14
REMARK    7  A    between atoms: C_20  and  S_23
REMARK    8  A    between atoms: S_23  and  C_24
REMARK                            x       y       z     vdW  Elec       q    Type
REMARK                         _______ _______ _______ _____ _____    ______ ____
ROOT
ATOM      1  N   UNL     1      86.701  66.874  87.556  0.00  0.00    +0.000 N 
ATOM      2  C   UNL     1      87.224  67.519  86.384  0.00  0.00    +0.000 C 
ATOM      3  C   UNL     1      87.521  68.883  86.913  0.00  0.00    +0.000 C 
ATOM      4  C   UNL     1      87.189  69.034  88.208  0.00  0.00    +0.000 C 
ATOM      5  C   UNL     1      86.681  67.710  88.655  0.00  0.00    +0.000 C 
ATOM      6  O   UNL     1      86.323  67.430  89.785  0.00  0.00    +0.000 OA
ENDROOT
BRANCH   4   7
ATOM      7  C   UNL     1      87.297  70.222  89.053  0.00  0.00    +0.000 A 
ATOM      8  C   UNL     1      88.547  70.654  89.514  0.00  0.00    +0.000 A 
ATOM      9  C   UNL     1      88.655  71.784  90.328  0.00  0.00    +0.000 A 
ATOM     10  C   UNL     1      87.514  72.509  90.687  0.00  0.00    +0.000 A 
ATOM     11  C   UNL     1      87.629  73.701  91.589  0.00  0.00    +0.000 C 
ATOM     12  C   UNL     1      86.263  72.073  90.235  0.00  0.00    +0.000 A 
ATOM     13  C   UNL     1      86.157  70.946  89.414  0.00  0.00    +0.000 A 
ENDBRANCH   4   7
BRANCH   3  14
ATOM     14  C   UNL     1      88.136  69.886  86.042  0.00  0.00    +0.000 A 
ATOM     15  C   UNL     1      87.332  70.812  85.363  0.00  0.00    +0.000 A 
ATOM     16  C   UNL     1      87.905  71.774  84.529  0.00  0.00    +0.000 A 
ATOM     17  C   UNL     1      89.292  71.808  84.377  0.00  0.00    +0.000 A 
ATOM     18  C   UNL     1      90.106  70.879  85.031  0.00  0.00    +0.000 A 
ATOM     19  C   UNL     1      89.526  69.926  85.871  0.00  0.00    +0.000 A 
BRANCH  17  20
ATOM     20  S   UNL     1      90.033  73.012  83.300  0.00  0.00    +0.000 S 
ATOM     21  C   UNL     1      89.602  72.426  81.682  0.00  0.00    +0.000 C 
ATOM     22  O   UNL     1      89.348  74.271  83.522  0.00  0.00    +0.000 OA
ATOM     23  O   UNL     1      91.472  72.910  83.445  0.00  0.00    +0.000 OA
ENDBRANCH  17  20
ENDBRANCH   3  14
BRANCH   1  24
ATOM     24  C   UNL     1      86.281  65.486  87.570  0.00  0.00    +0.000 C 
BRANCH  24  26
ATOM     25  C   UNL     1      88.384  64.484  88.588  0.00  0.00    +0.000 C 
ATOM     26  C   UNL     1      87.435  64.499  87.399  0.00  0.00    +0.000 C 
ENDBRANCH  24  26
ENDBRANCH   1  24
TORSDOF 5
ENDMDL
