REMARK  Name = *****
REMARK  8 active torsions:
REMARK  status: ('A' for Active; 'I' for Inactive)
REMARK    1  A    between atoms: C_1  and  C_2
REMARK    2  A    between atoms: C_2  and  C_3
REMARK    3  A    between atoms: C_3  and  N_4
REMARK    4  A    between atoms: C_6  and  C_17
REMARK    5  A    between atoms: C_7  and  C_10
REMARK    6  A    between atoms: C_13  and  C_14
REMARK    7  A    between atoms: C_20  and  S_23
REMARK    8  A    between atoms: S_23  and  C_24
REMARK                            x       y       z     vdW  Elec       q    Type
REMARK                         _______ _______ _______ _____ _____    ______ ____
ROOT
ATOM      1  N   UNL     1       4.505  -1.383  -0.428  0.00  0.00    +0.000 N 
ATOM      2  C   UNL     1       5.317  -2.508  -0.799  0.00  0.00    +0.000 C 
ATOM      3  C   UNL     1       6.684  -1.994  -0.488  0.00  0.00    +0.000 C 
ATOM      4  C   UNL     1       6.683  -0.729  -0.029  0.00  0.00    +0.000 C 
ATOM      5  C   UNL     1       5.254  -0.325   0.050  0.00  0.00    +0.000 C 
ATOM      6  O   UNL     1       4.838   0.741   0.466  0.00  0.00    +0.000 OA
ENDROOT
BRANCH   4   7
ATOM      7  C   UNL     1       7.817   0.115   0.344  0.00  0.00    +0.000 A 
ATOM      8  C   UNL     1       8.835   0.385  -0.580  0.00  0.00    +0.000 A 
ATOM      9  C   UNL     1       9.924   1.185  -0.226  0.00  0.00    +0.000 A 
ATOM     10  C   UNL     1      10.010   1.737   1.056  0.00  0.00    +0.000 A 
ATOM     11  C   UNL     1      11.198   2.566   1.444  0.00  0.00    +0.000 C 
ATOM     12  C   UNL     1       8.999   1.460   1.983  0.00  0.00    +0.000 A 
ATOM     13  C   UNL     1       7.905   0.665   1.626  0.00  0.00    +0.000 A 
ENDBRANCH   4   7
BRANCH   3  14
ATOM     14  C   UNL     1       7.849  -2.860  -0.672  0.00  0.00    +0.000 A 
ATOM     15  C   UNL     1       8.621  -3.241   0.435  0.00  0.00    +0.000 A 
ATOM     16  C   UNL     1       9.735  -4.067   0.274  0.00  0.00    +0.000 A 
ATOM     17  C   UNL     1      10.075  -4.515  -1.003  0.00  0.00    +0.000 A 
ATOM     18  C   UNL     1       9.328  -4.128  -2.119  0.00  0.00    +0.000 A 
ATOM     19  C   UNL     1       8.209  -3.309  -1.949  0.00  0.00    +0.000 A 
BRANCH  17  20
ATOM     20  S   UNL     1      11.505  -5.547  -1.225  0.00  0.00    +0.000 S 
ATOM     21  C   UNL     1      10.817  -7.181  -1.297  0.00  0.00    +0.000 C 
ATOM     22  O   UNL     1      12.066  -5.234  -2.526  0.00  0.00    +0.000 OA
ATOM     23  O   UNL     1      12.310  -5.453  -0.023  0.00  0.00    +0.000 OA
ENDBRANCH  17  20
ENDBRANCH   3  14
BRANCH   1  24
ATOM     24  C   UNL     1       3.058  -1.391  -0.519  0.00  0.00    +0.000 C 
BRANCH  24  26
ATOM     25  C   UNL     1       2.629  -1.822   1.950  0.00  0.00    +0.000 C 
ATOM     26  C   UNL     1       2.388  -2.288   0.522  0.00  0.00    +0.000 C 
ENDBRANCH  24  26
ENDBRANCH   1  24
TORSDOF 5
