MODEL 1
REMARK VINA RESULT:      -5.8      0.000      0.000
REMARK  Name = *****
REMARK  1 active torsions:
REMARK  status: ('A' for Active; 'I' for Inactive)
REMARK    1  A    between atoms: C_1  and  N_2
REMARK                            x       y       z     vdW  Elec       q    Type
REMARK                         _______ _______ _______ _____ _____    ______ ____
ROOT
ATOM      1  C   UNL     1      90.487  66.869  85.892  0.00  0.00    +0.000 C 
ATOM      2  N   UNL     1      89.660  67.962  86.395  0.00  0.00    +0.000 N 
ATOM      3  C   UNL     1      88.338  67.482  86.798  0.00  0.00    +0.000 C 
ATOM      4  C   UNL     1      87.563  68.618  87.476  0.00  0.00    +0.000 C 
ATOM      5  C   UNL     1      87.555  69.902  86.665  0.00  0.00    +0.000 C 
ATOM      6  C   UNL     1      88.475  70.088  85.684  0.00  0.00    +0.000 C 
ATOM      7  C   UNL     1      89.527  69.022  85.379  0.00  0.00    +0.000 C 
ATOM      8  C   UNL     1      88.518  71.295  84.805  0.00  0.00    +0.000 A 
ATOM      9  C   UNL     1      89.743  71.929  84.528  0.00  0.00    +0.000 A 
ATOM     10  C   UNL     1      89.814  73.026  83.665  0.00  0.00    +0.000 A 
ATOM     11  C   UNL     1      88.661  73.517  83.067  0.00  0.00    +0.000 A 
ATOM     12  C   UNL     1      87.432  72.921  83.342  0.00  0.00    +0.000 A 
ATOM     13  C   UNL     1      87.349  71.817  84.209  0.00  0.00    +0.000 A 
ATOM     14  C   UNL     1      85.994  71.242  84.550  0.00  0.00    +0.000 C 
ATOM     15  C   UNL     1      85.678  71.464  86.010  0.00  0.00    +0.000 A 
ATOM     16  C   UNL     1      84.623  72.318  86.373  0.00  0.00    +0.000 A 
ATOM     17  C   UNL     1      84.342  72.568  87.715  0.00  0.00    +0.000 A 
ATOM     18  C   UNL     1      85.115  71.974  88.705  0.00  0.00    +0.000 A 
ATOM     19  C   UNL     1      86.166  71.124  88.355  0.00  0.00    +0.000 A 
ATOM     20  C   UNL     1      86.465  70.854  87.009  0.00  0.00    +0.000 A 
ATOM     21  H   UNL     1      90.124  68.350  87.217  0.00  0.00    +0.000 HD
ENDROOT
TORSDOF 0
ENDMDL
