MODEL 1
REMARK VINA RESULT:      -5.9      0.000      0.000
REMARK  Name = *****
REMARK  6 active torsions:
REMARK  status: ('A' for Active; 'I' for Inactive)
REMARK    1  A    between atoms: C_1  and  C_2
REMARK    2  A    between atoms: C_2  and  C_3
REMARK    3  A    between atoms: C_5  and  C_16
REMARK    4  A    between atoms: C_6  and  C_9
REMARK    5  A    between atoms: C_19  and  S_22
REMARK    6  A    between atoms: S_22  and  N_23
REMARK                            x       y       z     vdW  Elec       q    Type
REMARK                         _______ _______ _______ _____ _____    ______ ____
ROOT
ATOM      1  C   UNL     1      90.160  71.522  81.560  0.00  0.00    +0.000 C 
ATOM      2  C   UNL     1      90.792  71.214  82.911  0.00  0.00    +0.000 C 
ATOM      3  C   UNL     1      92.228  71.708  83.003  0.00  0.00    +0.000 C 
ATOM      4  O   UNL     1      90.768  69.792  83.130  0.00  0.00    +0.000 OA
ATOM      5  C   UNL     1      89.968  69.584  84.252  0.00  0.00    +0.000 C 
ATOM      6  C   UNL     1      89.463  70.653  84.884  0.00  0.00    +0.000 C 
ATOM      7  C   UNL     1      89.953  71.754  84.042  0.00  0.00    +0.000 C 
ATOM      8  O   UNL     1      89.708  72.936  84.240  0.00  0.00    +0.000 OA
ENDROOT
BRANCH   6   9
ATOM      9  C   UNL     1      88.630  70.778  86.080  0.00  0.00    +0.000 A 
ATOM     10  C   UNL     1      87.264  71.093  85.982  0.00  0.00    +0.000 A 
ATOM     11  C   UNL     1      86.471  71.214  87.127  0.00  0.00    +0.000 A 
ATOM     12  C   UNL     1      87.032  71.013  88.385  0.00  0.00    +0.000 A 
ATOM     13  C   UNL     1      88.378  70.687  88.485  0.00  0.00    +0.000 A 
ATOM     14  F   UNL     1      88.918  70.491  89.694  0.00  0.00    +0.000 F 
ATOM     15  C   UNL     1      89.177  70.565  87.351  0.00  0.00    +0.000 A 
ENDBRANCH   6   9
BRANCH   5  16
ATOM     16  C   UNL     1      89.773  68.173  84.608  0.00  0.00    +0.000 A 
ATOM     17  C   UNL     1      90.388  67.619  85.742  0.00  0.00    +0.000 A 
ATOM     18  C   UNL     1      90.198  66.274  86.067  0.00  0.00    +0.000 A 
ATOM     19  C   UNL     1      89.378  65.481  85.262  0.00  0.00    +0.000 A 
ATOM     20  C   UNL     1      88.757  66.016  84.132  0.00  0.00    +0.000 A 
ATOM     21  C   UNL     1      88.948  67.363  83.815  0.00  0.00    +0.000 A 
BRANCH  19  22
ATOM     22  S   UNL     1      89.162  63.767  85.640  0.00  0.00    +0.000 S 
ATOM     23  O   UNL     1      88.156  63.638  86.667  0.00  0.00    +0.000 OA
ATOM     24  O   UNL     1      89.120  63.007  84.412  0.00  0.00    +0.000 OA
BRANCH  22  25
ATOM     25  N   UNL     1      90.625  63.380  86.365  0.00  0.00    +0.000 NA
ATOM     26  H   UNL     1      90.888  64.120  87.018  0.00  0.00    +0.000 HD
ATOM     27  H   UNL     1      91.345  63.287  85.649  0.00  0.00    +0.000 HD
ENDBRANCH  22  25
ENDBRANCH  19  22
ENDBRANCH   5  16
TORSDOF 4
ENDMDL
