REMARK  Name = *****
REMARK  4 active torsions:
REMARK  status: ('A' for Active; 'I' for Inactive)
REMARK    1  A    between atoms: C_1  and  S_2
REMARK    2  A    between atoms: S_2  and  C_5
REMARK    3  A    between atoms: C_8  and  C_11
REMARK    4  A    between atoms: C_12  and  C_17
REMARK                            x       y       z     vdW  Elec       q    Type
REMARK                         _______ _______ _______ _____ _____    ______ ____
ROOT
ATOM      1  C   UNL     1       4.223   4.560   3.662  0.00  0.00    +0.000 C 
ATOM      2  C   UNL     1       5.398   4.626   4.304  0.00  0.00    +0.000 C 
ATOM      3  C   UNL     1       5.313   5.823   5.171  0.00  0.00    +0.000 C 
ATOM      4  O   UNL     1       6.171   6.215   5.942  0.00  0.00    +0.000 OA
ATOM      5  O   UNL     1       4.109   6.433   4.991  0.00  0.00    +0.000 OA
ATOM      6  C   UNL     1       3.360   5.708   4.024  0.00  0.00    +0.000 C 
ENDROOT
BRANCH   1  10
ATOM      7  C   UNL     1       2.798   1.600   0.932  0.00  0.00    +0.000 A 
ATOM      8  C   UNL     1       3.384   1.204   2.135  0.00  0.00    +0.000 A 
ATOM      9  C   UNL     1       3.845   2.176   3.027  0.00  0.00    +0.000 A 
ATOM     10  C   UNL     1       3.743   3.542   2.720  0.00  0.00    +0.000 A 
ATOM     11  C   UNL     1       3.156   3.918   1.502  0.00  0.00    +0.000 A 
ATOM     12  C   UNL     1       2.691   2.952   0.604  0.00  0.00    +0.000 A 
BRANCH   7  14
ATOM     13  C   UNL     1       0.558   0.080   0.284  0.00  0.00    +0.000 C 
ATOM     14  S   UNL     1       2.235   0.368  -0.218  0.00  0.00    +0.000 S 
ATOM     15  O   UNL     1       2.996  -0.841   0.029  0.00  0.00    +0.000 OA
ATOM     16  O   UNL     1       2.213   0.978  -1.534  0.00  0.00    +0.000 OA
ENDBRANCH   7  14
ENDBRANCH   1  10
BRANCH   2  17
ATOM     17  C   UNL     1       6.562   3.737   4.231  0.00  0.00    +0.000 A 
ATOM     18  C   UNL     1       7.086   3.331   2.994  0.00  0.00    +0.000 A 
ATOM     19  C   UNL     1       8.191   2.479   2.932  0.00  0.00    +0.000 A 
ATOM     20  C   UNL     1       8.794   2.032   4.105  0.00  0.00    +0.000 A 
ATOM     21  C   UNL     1       8.295   2.438   5.340  0.00  0.00    +0.000 A 
ATOM     22  C   UNL     1       7.187   3.288   5.402  0.00  0.00    +0.000 A 
ENDBRANCH   2  17
TORSDOF 3
