REMARK  Name = *****
REMARK  13 active torsions:
REMARK  status: ('A' for Active; 'I' for Inactive)
REMARK    1  A    between atoms: C_1  and  N_2
REMARK    2  A    between atoms: N_2  and  C_3
REMARK    3  A    between atoms: C_6  and  C_7
REMARK    4  A    between atoms: C_8  and  C_9
REMARK    5  A    between atoms: C_12  and  O_13
REMARK    6  A    between atoms: O_13  and  C_14
REMARK    7  A    between atoms: C_14  and  C_15
REMARK    8  A    between atoms: C_15  and  O_16
REMARK    9  A    between atoms: O_16  and  C_17
REMARK   10  A    between atoms: C_17  and  C_18
REMARK   11  A    between atoms: C_18  and  O_19
REMARK   12  A    between atoms: O_19  and  C_20
REMARK   13  A    between atoms: C_20  and  C_21
REMARK                            x       y       z     vdW  Elec       q    Type
REMARK                         _______ _______ _______ _____ _____    ______ ____
ROOT
ATOM      1  C   UNL     1       5.648  -7.132  -1.262  0.00  0.00    +0.000 A 
ATOM      2  C   UNL     1       5.980  -7.742  -0.046  0.00  0.00    +0.000 A 
ATOM      3  C   UNL     1       6.586  -9.004  -0.017  0.00  0.00    +0.000 A 
ATOM      4  C   UNL     1       6.857  -9.680  -1.206  0.00  0.00    +0.000 A 
ATOM      5  C   UNL     1       6.510  -9.083  -2.420  0.00  0.00    +0.000 A 
ATOM      6  C   UNL     1       5.906  -7.822  -2.450  0.00  0.00    +0.000 A 
ENDROOT
BRANCH   1   8
ATOM      7  C   UNL     1       5.253  -4.839  -2.120  0.00  0.00    +0.000 C 
ATOM      8  C   UNL     1       4.989  -5.819  -1.241  0.00  0.00    +0.000 C 
BRANCH   7  12
ATOM      9  C   UNL     1       3.437  -0.927  -2.137  0.00  0.00    +0.000 A 
ATOM     10  C   UNL     1       3.714  -1.579  -0.931  0.00  0.00    +0.000 A 
ATOM     11  C   UNL     1       4.307  -2.849  -0.908  0.00  0.00    +0.000 A 
ATOM     12  C   UNL     1       4.602  -3.521  -2.097  0.00  0.00    +0.000 A 
ATOM     13  C   UNL     1       4.306  -2.890  -3.308  0.00  0.00    +0.000 A 
ATOM     14  C   UNL     1       3.713  -1.621  -3.323  0.00  0.00    +0.000 A 
BRANCH   9  16
ATOM     15  C   UNL     1       2.774   1.194  -1.074  0.00  0.00    +0.000 C 
ATOM     16  N   UNL     1       2.783   0.305  -2.222  0.00  0.00    +0.000 N 
ATOM     17  H   UNL     1       2.331   0.569  -3.056  0.00  0.00    +0.000 HD
ENDBRANCH   9  16
ENDBRANCH   7  12
ENDBRANCH   1   8
BRANCH   4  18
ATOM     18  O   UNL     1       7.441 -10.911  -1.319  0.00  0.00    +0.000 OA
BRANCH  18  19
ATOM     19  C   UNL     1       7.843 -11.547  -0.107  0.00  0.00    +0.000 C 
BRANCH  19  20
ATOM     20  C   UNL     1       8.487 -12.887  -0.448  0.00  0.00    +0.000 C 
BRANCH  20  21
ATOM     21  O   UNL     1       8.901 -13.531   0.758  0.00  0.00    +0.000 OA
BRANCH  21  22
ATOM     22  C   UNL     1       9.509 -14.795   0.496  0.00  0.00    +0.000 C 
BRANCH  22  23
ATOM     23  C   UNL     1       9.939 -15.429   1.814  0.00  0.00    +0.000 C 
BRANCH  23  24
ATOM     24  O   UNL     1      10.547 -16.695   1.559  0.00  0.00    +0.000 OA
BRANCH  24  25
ATOM     25  C   UNL     1      10.971 -17.322   2.770  0.00  0.00    +0.000 C 
BRANCH  25  26
ATOM     26  C   UNL     1      11.605 -18.665   2.455  0.00  0.00    +0.000 C 
ATOM     27  F   UNL     1      12.009 -19.254   3.611  0.00  0.00    +0.000 F 
ENDBRANCH  25  26
ENDBRANCH  24  25
ENDBRANCH  23  24
ENDBRANCH  22  23
ENDBRANCH  21  22
ENDBRANCH  20  21
ENDBRANCH  19  20
ENDBRANCH  18  19
ENDBRANCH   4  18
TORSDOF 12
