MODEL 1
REMARK VINA RESULT:      -5.3      0.000      0.000
REMARK  Name = *****
REMARK  6 active torsions:
REMARK  status: ('A' for Active; 'I' for Inactive)
REMARK    1  A    between atoms: C_1  and  N_2
REMARK    2  A    between atoms: N_2  and  C_3
REMARK    3  A    between atoms: N_2  and  C_4
REMARK    4  A    between atoms: C_4  and  C_5
REMARK    5  A    between atoms: C_5  and  O_6
REMARK    6  A    between atoms: O_6  and  C_7
REMARK                            x       y       z     vdW  Elec       q    Type
REMARK                         _______ _______ _______ _____ _____    ______ ____
ROOT
ATOM      1  C   UNL     1      89.438  69.822  86.254  0.00  0.00    +0.000 C 
ATOM      2  C   UNL     1      89.927  70.329  85.111  0.00  0.00    +0.000 C 
ATOM      3  C   UNL     1      89.475  71.533  84.395  0.00  0.00    +0.000 A 
ATOM      4  C   UNL     1      90.466  72.365  83.845  0.00  0.00    +0.000 A 
ATOM      5  C   UNL     1      90.122  73.499  83.108  0.00  0.00    +0.000 A 
ATOM      6  C   UNL     1      88.784  73.811  82.898  0.00  0.00    +0.000 A 
ATOM      7  C   UNL     1      87.788  72.989  83.425  0.00  0.00    +0.000 A 
ATOM      8  C   UNL     1      88.122  71.851  84.175  0.00  0.00    +0.000 A 
ATOM      9  S   UNL     1      86.775  70.849  84.798  0.00  0.00    +0.000 S 
ATOM     10  C   UNL     1      87.157  70.909  86.545  0.00  0.00    +0.000 A 
ATOM     11  C   UNL     1      86.176  71.439  87.398  0.00  0.00    +0.000 A 
ATOM     12  C   UNL     1      86.398  71.518  88.774  0.00  0.00    +0.000 A 
ATOM     13  C   UNL     1      87.600  71.063  89.303  0.00  0.00    +0.000 A 
ATOM     14 CL   UNL     1      87.877  71.154  90.998  0.00  0.00    +0.000 Cl
ATOM     15  C   UNL     1      88.580  70.526  88.469  0.00  0.00    +0.000 A 
ATOM     16  C   UNL     1      88.374  70.440  87.080  0.00  0.00    +0.000 A 
ENDROOT
BRANCH   1  17
ATOM     17  O   UNL     1      90.049  68.698  86.796  0.00  0.00    +0.000 OA
BRANCH  17  18
ATOM     18  C   UNL     1      90.062  67.610  85.855  0.00  0.00    +0.000 C 
BRANCH  18  19
ATOM     19  C   UNL     1      89.541  66.356  86.575  0.00  0.00    +0.000 C 
BRANCH  19  21
ATOM     20  C   UNL     1      89.394  64.067  85.844  0.00  0.00    +0.000 C 
ATOM     21  N   UNL     1      90.305  65.128  86.283  0.00  0.00    +0.000 N 
ATOM     22  C   UNL     1      91.327  65.354  85.259  0.00  0.00    +0.000 C 
ATOM     23  H   UNL     1      90.778  64.846  87.142  0.00  0.00    +0.000 HD
ENDBRANCH  19  21
ENDBRANCH  18  19
ENDBRANCH  17  18
ENDBRANCH   1  17
TORSDOF 4
ENDMDL
