MODEL 1
REMARK VINA RESULT:      -5.0      0.000      0.000
REMARK  Name = *****
REMARK  7 active torsions:
REMARK  status: ('A' for Active; 'I' for Inactive)
REMARK    1  A    between atoms: C_2  and  C_4
REMARK    2  A    between atoms: C_4  and  C_5
REMARK    3  A    between atoms: C_5  and  C_6
REMARK    4  A    between atoms: C_6  and  C_7
REMARK    5  A    between atoms: N_9  and  C_10
REMARK    6  A    between atoms: C_13  and  C_14
REMARK    7  A    between atoms: C_15  and  C_16
REMARK                            x       y       z     vdW  Elec       q    Type
REMARK                         _______ _______ _______ _____ _____    ______ ____
ROOT
ATOM      1  C   UNL     1      88.418  64.091  88.191  0.00  0.00    +0.000 A 
ATOM      2  C   UNL     1      88.287  64.201  89.575  0.00  0.00    +0.000 A 
ATOM      3  C   UNL     1      87.342  63.430  90.265  0.00  0.00    +0.000 A 
ATOM      4  C   UNL     1      86.506  62.541  89.582  0.00  0.00    +0.000 A 
ATOM      5  C   UNL     1      86.649  62.419  88.197  0.00  0.00    +0.000 A 
ATOM      6  C   UNL     1      87.590  63.193  87.507  0.00  0.00    +0.000 A 
ENDROOT
BRANCH   1   9
ATOM      7  C   UNL     1      89.154  66.073  86.848  0.00  0.00    +0.000 C 
ATOM      8  O   UNL     1      88.154  66.783  86.930  0.00  0.00    +0.000 OA
ATOM      9  N   UNL     1      89.339  64.829  87.420  0.00  0.00    +0.000 N 
ATOM     10  H   UNL     1      90.217  64.409  87.271  0.00  0.00    +0.000 HD
BRANCH   7  11
ATOM     11  C   UNL     1      90.389  66.541  86.090  0.00  0.00    +0.000 C 
BRANCH  11  12
ATOM     12  C   UNL     1      90.635  65.737  84.811  0.00  0.00    +0.000 C 
BRANCH  12  13
ATOM     13  C   UNL     1      91.780  64.729  84.949  0.00  0.00    +0.000 C 
BRANCH  13  15
ATOM     14  O   UNL     1      89.943  63.187  84.873  0.00  0.00    +0.000 OA
ATOM     15  C   UNL     1      91.276  63.310  85.052  0.00  0.00    +0.000 C 
ATOM     16  O   UNL     1      92.002  62.352  85.269  0.00  0.00    +0.000 OA
ENDBRANCH  13  15
ENDBRANCH  12  13
ENDBRANCH  11  12
ENDBRANCH   7  11
ENDBRANCH   1   9
BRANCH   4  17
ATOM     17  C   UNL     1      85.530  61.694  90.278  0.00  0.00    +0.000 C 
ATOM     18  C   UNL     1      85.572  60.352  90.265  0.00  0.00    +0.000 C 
BRANCH  18  19
ATOM     19  C   UNL     1      84.604  59.507  90.977  0.00  0.00    +0.000 A 
ATOM     20  C   UNL     1      83.223  59.725  90.894  0.00  0.00    +0.000 A 
ATOM     21  C   UNL     1      82.329  58.882  91.560  0.00  0.00    +0.000 A 
ATOM     22  C   UNL     1      82.807  57.809  92.308  0.00  0.00    +0.000 A 
ATOM     23  C   UNL     1      84.178  57.574  92.387  0.00  0.00    +0.000 A 
ATOM     24  C   UNL     1      85.072  58.414  91.719  0.00  0.00    +0.000 A 
ENDBRANCH  18  19
ENDBRANCH   4  17
TORSDOF 7
ENDMDL
