MODEL 1
REMARK VINA RESULT:      -4.7      0.000      0.000
REMARK  Name = *****
REMARK  8 active torsions:
REMARK  status: ('A' for Active; 'I' for Inactive)
REMARK    1  A    between atoms: C_1  and  O_2
REMARK    2  A    between atoms: O_2  and  C_3
REMARK    3  A    between atoms: C_4  and  C_5
REMARK    4  A    between atoms: C_4  and  C_9
REMARK    5  A    between atoms: C_5  and  O_7
REMARK    6  A    between atoms: O_7  and  C_8
REMARK    7  A    between atoms: C_10  and  C_11
REMARK    8  A    between atoms: C_12  and  C_13
REMARK                            x       y       z     vdW  Elec       q    Type
REMARK                         _______ _______ _______ _____ _____    ______ ____
ROOT
ATOM      1  C   UNL     1      89.287  68.672  85.331  0.00  0.00    +0.000 A 
ATOM      2  C   UNL     1      89.583  69.836  86.067  0.00  0.00    +0.000 A 
ATOM      3  C   UNL     1      90.155  70.939  85.417  0.00  0.00    +0.000 A 
ATOM      4  C   UNL     1      90.424  70.892  84.049  0.00  0.00    +0.000 A 
ATOM      5  C   UNL     1      90.124  69.746  83.317  0.00  0.00    +0.000 A 
ATOM      6  C   UNL     1      89.556  68.641  83.953  0.00  0.00    +0.000 A 
ENDROOT
BRANCH   1   8
ATOM      7  C   UNL     1      87.367  67.327  86.068  0.00  0.00    +0.000 C 
ATOM      8  C   UNL     1      88.699  67.476  85.968  0.00  0.00    +0.000 C 
BRANCH   7  10
ATOM      9  C   UNL     1      85.561  68.685  86.587  0.00  0.00    +0.000 C 
ATOM     10  O   UNL     1      86.459  68.233  85.577  0.00  0.00    +0.000 OA
ENDBRANCH   7  10
BRANCH   8  11
ATOM     11  C   UNL     1      89.540  66.398  86.562  0.00  0.00    +0.000 C 
ATOM     12  O   UNL     1      89.105  65.494  87.264  0.00  0.00    +0.000 OA
BRANCH  11  13
ATOM     13  O   UNL     1      90.841  66.555  86.205  0.00  0.00    +0.000 OA
ATOM     14  C   UNL     1      91.330  65.542  85.327  0.00  0.00    +0.000 C 
ENDBRANCH  11  13
ENDBRANCH   8  11
ENDBRANCH   1   8
BRANCH   2  15
ATOM     15  C   UNL     1      89.307  69.931  87.506  0.00  0.00    +0.000 C 
ATOM     16  C   UNL     1      88.324  70.711  87.980  0.00  0.00    +0.000 C 
BRANCH  16  17
ATOM     17  C   UNL     1      88.017  70.864  89.408  0.00  0.00    +0.000 A 
ATOM     18  C   UNL     1      88.663  71.810  90.216  0.00  0.00    +0.000 A 
ATOM     19  C   UNL     1      88.322  71.946  91.565  0.00  0.00    +0.000 A 
ATOM     20  C   UNL     1      87.324  71.146  92.117  0.00  0.00    +0.000 A 
ATOM     21  C   UNL     1      86.662  70.214  91.320  0.00  0.00    +0.000 A 
ATOM     22  C   UNL     1      87.003  70.078  89.971  0.00  0.00    +0.000 A 
ENDBRANCH  16  17
ENDBRANCH   2  15
TORSDOF 6
ENDMDL
