MODEL 1
REMARK VINA RESULT:      -4.2      0.000      0.000
REMARK  Name = *****
REMARK  11 active torsions:
REMARK  status: ('A' for Active; 'I' for Inactive)
REMARK    1  A    between atoms: C_1  and  O_2
REMARK    2  A    between atoms: O_2  and  C_3
REMARK    3  A    between atoms: C_6  and  C_7
REMARK    4  A    between atoms: C_8  and  C_9
REMARK    5  A    between atoms: C_11  and  O_12
REMARK    6  A    between atoms: O_12  and  C_13
REMARK    7  A    between atoms: C_14  and  O_15
REMARK    8  A    between atoms: O_15  and  C_16
REMARK    9  A    between atoms: C_17  and  O_18
REMARK   10  A    between atoms: O_18  and  C_19
REMARK   11  A    between atoms: C_22  and  O_23
REMARK                            x       y       z     vdW  Elec       q    Type
REMARK                         _______ _______ _______ _____ _____    ______ ____
ROOT
ATOM      1  C   UNL     1      83.318  60.839  92.097  0.00  0.00    +0.000 C 
ATOM      2  C   UNL     1      83.461  62.037  91.502  0.00  0.00    +0.000 C 
ENDROOT
BRANCH   1   6
ATOM      3  C   UNL     1      84.905  57.093  90.729  0.00  0.00    +0.000 A 
ATOM      4  C   UNL     1      85.715  58.020  91.388  0.00  0.00    +0.000 A 
ATOM      5  C   UNL     1      85.183  59.238  91.832  0.00  0.00    +0.000 A 
ATOM      6  C   UNL     1      83.833  59.545  91.630  0.00  0.00    +0.000 A 
ATOM      7  C   UNL     1      83.023  58.628  90.952  0.00  0.00    +0.000 A 
ATOM      8  C   UNL     1      83.556  57.412  90.520  0.00  0.00    +0.000 A 
BRANCH   3  10
ATOM      9  C   UNL     1      86.710  55.706  90.020  0.00  0.00    +0.000 C 
ATOM     10  O   UNL     1      85.321  55.875  90.263  0.00  0.00    +0.000 OA
ENDBRANCH   3  10
BRANCH   8  11
ATOM     11  O   UNL     1      82.750  56.511  89.873  0.00  0.00    +0.000 OA
ATOM     12  H   UNL     1      83.078  56.032  89.138  0.00  0.00    +0.000 HD
ENDBRANCH   8  11
ENDBRANCH   1   6
BRANCH   2  13
ATOM     13  C   UNL     1      84.134  62.322  90.227  0.00  0.00    +0.000 A 
ATOM     14  C   UNL     1      85.534  62.324  90.128  0.00  0.00    +0.000 A 
ATOM     15  C   UNL     1      86.160  62.600  88.910  0.00  0.00    +0.000 A 
ATOM     16  C   UNL     1      85.361  62.858  87.783  0.00  0.00    +0.000 A 
ATOM     17  C   UNL     1      83.959  62.818  87.855  0.00  0.00    +0.000 A 
ATOM     18  C   UNL     1      83.354  62.554  89.086  0.00  0.00    +0.000 A 
BRANCH  15  19
ATOM     19  O   UNL     1      87.517  62.637  88.719  0.00  0.00    +0.000 OA
ATOM     20  C   UNL     1      88.260  63.569  89.493  0.00  0.00    +0.000 C 
ENDBRANCH  15  19
BRANCH  16  21
ATOM     21  O   UNL     1      85.964  63.081  86.564  0.00  0.00    +0.000 OA
ATOM     22  C   UNL     1      86.187  64.479  86.384  0.00  0.00    +0.000 C 
ENDBRANCH  16  21
BRANCH  17  23
ATOM     23  O   UNL     1      83.283  63.071  86.688  0.00  0.00    +0.000 OA
ATOM     24  C   UNL     1      82.366  64.156  86.687  0.00  0.00    +0.000 C 
ENDBRANCH  17  23
ENDBRANCH   2  13
TORSDOF 7
ENDMDL
