MODEL 1
REMARK VINA RESULT:      -5.8      0.000      0.000
REMARK  Name = *****
REMARK  7 active torsions:
REMARK  status: ('A' for Active; 'I' for Inactive)
REMARK    1  A    between atoms: C_1  and  C_2
REMARK    2  A    between atoms: C_3  and  C_4
REMARK    3  A    between atoms: C_4  and  C_5
REMARK    4  A    between atoms: C_15  and  C_16
REMARK    5  A    between atoms: C_16  and  C_17
REMARK    6  A    between atoms: C_20  and  S_23
REMARK    7  A    between atoms: S_23  and  C_24
REMARK                            x       y       z     vdW  Elec       q    Type
REMARK                         _______ _______ _______ _____ _____    ______ ____
ROOT
ATOM      1  C   UNL     1      89.306  69.885  87.493  0.00  0.00    +0.000 C 
ATOM      2  C   UNL     1      87.994  70.561  87.261  0.00  0.00    +0.000 C 
ATOM      3  C   UNL     1      87.082  70.939  88.184  0.00  0.00    +0.000 C 
ATOM      4  C   UNL     1      85.956  71.571  87.476  0.00  0.00    +0.000 C 
ATOM      5  C   UNL     1      84.789  72.114  87.994  0.00  0.00    +0.000 C 
ATOM      6  C   UNL     1      83.864  72.649  87.104  0.00  0.00    +0.000 C 
ATOM      7  F   UNL     1      82.729  73.180  87.577  0.00  0.00    +0.000 F 
ATOM      8  C   UNL     1      84.089  72.644  85.725  0.00  0.00    +0.000 C 
ATOM      9  C   UNL     1      85.266  72.096  85.207  0.00  0.00    +0.000 C 
ATOM     10  C   UNL     1      86.198  71.565  86.088  0.00  0.00    +0.000 C 
ATOM     11  C   UNL     1      87.513  70.925  85.915  0.00  0.00    +0.000 C 
ENDROOT
BRANCH   3  12
ATOM     12  C   UNL     1      87.116  70.802  89.673  0.00  0.00    +0.000 C 
BRANCH  12  13
ATOM     13  C   UNL     1      87.596  72.047  90.401  0.00  0.00    +0.000 C 
ATOM     14  O   UNL     1      88.902  72.352  90.235  0.00  0.00    +0.000 OA
ATOM     15  O   UNL     1      86.844  72.772  91.040  0.00  0.00    +0.000 OA
ENDBRANCH  12  13
ENDBRANCH   3  12
BRANCH  11  16
ATOM     16  C   UNL     1      88.202  70.695  84.782  0.00  0.00    +0.000 C 
BRANCH  16  17
ATOM     17  C   UNL     1      89.255  71.535  84.213  0.00  0.00    +0.000 A 
ATOM     18  C   UNL     1      88.969  72.849  83.822  0.00  0.00    +0.000 A 
ATOM     19  C   UNL     1      89.964  73.646  83.254  0.00  0.00    +0.000 A 
ATOM     20  C   UNL     1      91.251  73.126  83.091  0.00  0.00    +0.000 A 
ATOM     21  C   UNL     1      91.547  71.814  83.474  0.00  0.00    +0.000 A 
ATOM     22  C   UNL     1      90.547  71.022  84.041  0.00  0.00    +0.000 A 
BRANCH  20  23
ATOM     23  S   UNL     1      92.509  74.124  82.329  0.00  0.00    +0.000 S 
ATOM     24  C   UNL     1      93.501  72.939  81.458  0.00  0.00    +0.000 C 
ATOM     25  O   UNL     1      91.857  74.974  81.351  0.00  0.00    +0.000 OA
ATOM     26  O   UNL     1      93.314  74.695  83.391  0.00  0.00    +0.000 OA
ENDBRANCH  20  23
ENDBRANCH  16  17
ENDBRANCH  11  16
TORSDOF 5
ENDMDL
