MODEL 1
REMARK VINA RESULT:      -5.0      0.000      0.000
REMARK  Name = *****
REMARK  3 active torsions:
REMARK  status: ('A' for Active; 'I' for Inactive)
REMARK    1  A    between atoms: C_1  and  O_2
REMARK    2  A    between atoms: O_2  and  C_3
REMARK    3  A    between atoms: C_11  and  C_12
REMARK                            x       y       z     vdW  Elec       q    Type
REMARK                         _______ _______ _______ _____ _____    ______ ____
ROOT
ATOM      1  C   UNL     1     105.739 122.338  80.934  0.00  0.00    +0.000 A 
ATOM      2  C   UNL     1     106.598 122.849  79.940  0.00  0.00    +0.000 A 
ATOM      3  C   UNL     1     106.422 124.131  79.414  0.00  0.00    +0.000 A 
ATOM      4  C   UNL     1     105.373 124.873  79.912  0.00  0.00    +0.000 A 
ATOM      5  N   UNL     1     105.017 126.162  79.534  0.00  0.00    +0.000 N 
ATOM      6  C   UNL     1     103.910 126.607  80.236  0.00  0.00    +0.000 C 
ATOM      7  O   UNL     1     103.370 127.691  80.118  0.00  0.00    +0.000 OA
ATOM      8  C   UNL     1     103.533 125.470  81.158  0.00  0.00    +0.000 C 
ATOM      9  C   UNL     1     102.541 125.368  82.058  0.00  0.00    +0.000 C 
ATOM     10  C   UNL     1     104.509 124.392  80.898  0.00  0.00    +0.000 A 
ATOM     11  C   UNL     1     104.682 123.118  81.421  0.00  0.00    +0.000 A 
ATOM     12  H   UNL     1     105.491 126.692  78.853  0.00  0.00    +0.000 HD
ENDROOT
BRANCH   9  13
ATOM     13  C   UNL     1     101.545 126.316  82.405  0.00  0.00    +0.000 A 
ATOM     14  C   UNL     1     101.610 127.516  83.090  0.00  0.00    +0.000 A 
ATOM     15  N   UNL     1     100.379 128.108  83.193  0.00  0.00    +0.000 NA
ATOM     16  C   UNL     1      99.559 127.289  82.580  0.00  0.00    +0.000 A 
ATOM     17  N   UNL     1     100.215 126.197  82.088  0.00  0.00    +0.000 N 
ATOM     18  H   UNL     1      99.804 125.451  81.593  0.00  0.00    +0.000 HD
ENDBRANCH   9  13
BRANCH   1  20
ATOM     19  C   UNL     1     104.979 120.266  81.830  0.00  0.00    +0.000 C 
ATOM     20  O   UNL     1     106.047 121.067  81.341  0.00  0.00    +0.000 OA
ENDBRANCH   1  20
TORSDOF 2
ENDMDL
