MODEL 1
REMARK VINA RESULT:      -4.6      0.000      0.000
REMARK  Name = *****
REMARK  2 active torsions:
REMARK  status: ('A' for Active; 'I' for Inactive)
REMARK    1  A    between atoms: O_1  and  C_2
REMARK    2  A    between atoms: C_5  and  N_8
REMARK                            x       y       z     vdW  Elec       q    Type
REMARK                         _______ _______ _______ _____ _____    ______ ____
ROOT
ATOM      1  N   UNL     1     102.642 125.409  82.629  0.00  0.00    +0.000 NA
ATOM      2  C   UNL     1     103.448 125.412  81.614  0.00  0.00    +0.000 C 
ATOM      3  C   UNL     1     103.689 126.483  80.529  0.00  0.00    +0.000 C 
ATOM      4  O   UNL     1     103.142 127.556  80.409  0.00  0.00    +0.000 OA
ATOM      5  N   UNL     1     104.664 125.951  79.707  0.00  0.00    +0.000 N 
ATOM      6  C   UNL     1     105.051 124.689  80.142  0.00  0.00    +0.000 A 
ATOM      7  C   UNL     1     105.994 123.860  79.573  0.00  0.00    +0.000 A 
ATOM      8  C   UNL     1     106.220 122.624  80.190  0.00  0.00    +0.000 A 
ATOM      9  C   UNL     1     105.509 122.247  81.349  0.00  0.00    +0.000 A 
ATOM     10  C   UNL     1     104.558 123.100  81.913  0.00  0.00    +0.000 A 
ATOM     11  C   UNL     1     104.352 124.312  81.286  0.00  0.00    +0.000 A 
ATOM     12  H   UNL     1     105.035 126.405  78.917  0.00  0.00    +0.000 HD
ENDROOT
BRANCH   1  16
ATOM     13  C   UNL     1     100.187 128.717  83.378  0.00  0.00    +0.000 A 
ATOM     14  C   UNL     1      99.673 127.629  82.680  0.00  0.00    +0.000 A 
ATOM     15  C   UNL     1     100.497 126.529  82.425  0.00  0.00    +0.000 A 
ATOM     16  C   UNL     1     101.829 126.525  82.850  0.00  0.00    +0.000 A 
ATOM     17  C   UNL     1     102.321 127.619  83.567  0.00  0.00    +0.000 A 
ATOM     18  C   UNL     1     101.503 128.720  83.827  0.00  0.00    +0.000 A 
BRANCH  13  19
ATOM     19  O   UNL     1      99.421 129.812  83.651  0.00  0.00    +0.000 OA
ATOM     20  H   UNL     1      99.365 130.511  83.030  0.00  0.00    +0.000 HD
ENDBRANCH  13  19
ENDBRANCH   1  16
TORSDOF 2
ENDMDL
