MODEL 1
REMARK VINA RESULT:      -4.9      0.000      0.000
REMARK  Name = *****
REMARK  5 active torsions:
REMARK  status: ('A' for Active; 'I' for Inactive)
REMARK    1  A    between atoms: C_1  and  C_2
REMARK    2  A    between atoms: C_5  and  C_6
REMARK    3  A    between atoms: C_17  and  C_18
REMARK    4  A    between atoms: C_18  and  C_19
REMARK    5  A    between atoms: C_19  and  C_20
REMARK                            x       y       z     vdW  Elec       q    Type
REMARK                         _______ _______ _______ _____ _____    ______ ____
ROOT
ATOM      1  C   UNL     1     100.059 129.301  84.220  0.00  0.00    +0.000 C 
ATOM      2  C   UNL     1     100.498 128.049  83.544  0.00  0.00    +0.000 A 
ATOM      3  C   UNL     1      99.751 127.376  82.599  0.00  0.00    +0.000 A 
ATOM      4  N   UNL     1     100.478 126.318  82.143  0.00  0.00    +0.000 N 
ATOM      5  C   UNL     1     101.701 126.287  82.765  0.00  0.00    +0.000 A 
ATOM      6  C   UNL     1     101.730 127.318  83.703  0.00  0.00    +0.000 A 
ATOM      7  H   UNL     1     100.172 125.671  81.467  0.00  0.00    +0.000 HD
ENDROOT
BRANCH   5   8
ATOM      8  C   UNL     1     102.623 125.326  82.280  0.00  0.00    +0.000 C 
ATOM      9  C   UNL     1     103.520 125.529  81.305  0.00  0.00    +0.000 C 
ATOM     10  C   UNL     1     103.772 126.777  80.500  0.00  0.00    +0.000 C 
ATOM     11  O   UNL     1     103.154 127.824  80.515  0.00  0.00    +0.000 OA
ATOM     12  N   UNL     1     104.850 126.473  79.686  0.00  0.00    +0.000 N 
ATOM     13  C   UNL     1     105.280 125.165  79.879  0.00  0.00    +0.000 A 
ATOM     14  C   UNL     1     106.316 124.530  79.225  0.00  0.00    +0.000 A 
ATOM     15  C   UNL     1     106.571 123.201  79.569  0.00  0.00    +0.000 A 
ATOM     16  C   UNL     1     105.794 122.549  80.545  0.00  0.00    +0.000 A 
ATOM     17  C   UNL     1     104.749 123.214  81.196  0.00  0.00    +0.000 A 
ATOM     18  C   UNL     1     104.502 124.532  80.853  0.00  0.00    +0.000 A 
ATOM     19  H   UNL     1     105.260 127.103  79.050  0.00  0.00    +0.000 HD
ENDBRANCH   5   8
BRANCH   6  20
ATOM     20  C   UNL     1     102.890 127.631  84.605  0.00  0.00    +0.000 C 
BRANCH  20  21
ATOM     21  C   UNL     1     104.134 128.256  83.995  0.00  0.00    +0.000 C 
BRANCH  21  22
ATOM     22  C   UNL     1     104.123 129.697  83.545  0.00  0.00    +0.000 C 
ATOM     23  O   UNL     1     104.863 130.030  82.480  0.00  0.00    +0.000 OA
ATOM     24  O   UNL     1     103.387 130.520  84.081  0.00  0.00    +0.000 OA
ENDBRANCH  21  22
ENDBRANCH  20  21
ENDBRANCH   6  20
TORSDOF 4
ENDMDL
