REMARK  Name = *****
REMARK  1 active torsions:
REMARK  status: ('A' for Active; 'I' for Inactive)
REMARK    1  A    between atoms: C_8  and  C_10
REMARK                            x       y       z     vdW  Elec       q    Type
REMARK                         _______ _______ _______ _____ _____    ______ ____
ROOT
ATOM      1  N   UNL     1       1.590   0.924   0.086  0.00  0.00    +0.000 N 
ATOM      2  C   UNL     1       2.649   0.193  -0.364  0.00  0.00    +0.000 C 
ATOM      3  O   UNL     1       2.820  -0.928   0.107  0.00  0.00    +0.000 OA
ATOM      4  N   UNL     1       3.444   0.808  -1.319  0.00  0.00    +0.000 N 
ATOM      5  C   UNL     1       3.184   2.041  -1.935  0.00  0.00    +0.000 C 
ATOM      6  O   UNL     1       2.246   2.810  -1.769  0.00  0.00    +0.000 OA
ATOM      7  C   UNL     1       4.301   2.270  -2.910  0.00  0.00    +0.000 C 
ATOM      8  C   UNL     1       4.311   3.384  -3.665  0.00  0.00    +0.000 C 
ATOM      9  O   UNL     1       3.363   4.387  -3.591  0.00  0.00    +0.000 OA
ATOM     10  C   UNL     1       5.199   1.116  -2.813  0.00  0.00    +0.000 A 
ATOM     11  C   UNL     1       4.640   0.258  -1.849  0.00  0.00    +0.000 A 
ATOM     12  C   UNL     1       5.261  -0.941  -1.520  0.00  0.00    +0.000 A 
ATOM     13  C   UNL     1       6.455  -1.278  -2.165  0.00  0.00    +0.000 A 
ATOM     14  C   UNL     1       7.010  -0.417  -3.120  0.00  0.00    +0.000 A 
ATOM     15 CL   UNL     1       8.484  -0.850  -3.895  0.00  0.00    +0.000 Cl
ATOM     16  C   UNL     1       6.387   0.788  -3.450  0.00  0.00    +0.000 A 
ATOM     17  H   UNL     1       0.985   0.546   0.765  0.00  0.00    +0.000 HD
ATOM     18  H   UNL     1       1.431   1.828  -0.267  0.00  0.00    +0.000 HD
ENDROOT
BRANCH   8  19
ATOM     19  C   UNL     1       5.320   3.661  -4.625  0.00  0.00    +0.000 A 
ATOM     20  C   UNL     1       6.478   4.405  -4.478  0.00  0.00    +0.000 A 
ATOM     21  C   UNL     1       7.247   4.475  -5.676  0.00  0.00    +0.000 A 
ATOM     22  C   UNL     1       6.645   3.800  -6.713  0.00  0.00    +0.000 A 
ATOM     23  S   UNL     1       5.159   3.097  -6.245  0.00  0.00    +0.000 S 
ENDBRANCH   8  19
TORSDOF 1
