MODEL 1
REMARK VINA RESULT:      -4.8      0.000      0.000
REMARK  Name = *****
REMARK  11 active torsions:
REMARK  status: ('A' for Active; 'I' for Inactive)
REMARK    1  A    between atoms: C_1  and  C_2
REMARK    2  A    between atoms: C_2  and  N_3
REMARK    3  A    between atoms: C_6  and  C_7
REMARK    4  A    between atoms: C_6  and  O_17
REMARK    5  A    between atoms: C_7  and  C_8
REMARK    6  A    between atoms: C_12  and  O_13
REMARK    7  A    between atoms: O_13  and  C_14
REMARK    8  A    between atoms: C_15  and  O_16
REMARK    9  A    between atoms: O_17  and  C_18
REMARK   10  A    between atoms: N_20  and  C_21
REMARK   11  A    between atoms: N_20  and  C_22
REMARK                            x       y       z     vdW  Elec       q    Type
REMARK                         _______ _______ _______ _____ _____    ______ ____
ROOT
ATOM      1  N   UNL     1      88.168  64.709  88.291  0.00  0.00    +0.000 N 
ATOM      2  C   UNL     1      88.859  64.756  87.072  0.00  0.00    +0.000 C 
ATOM      3  O   UNL     1      89.601  63.897  86.616  0.00  0.00    +0.000 OA
ATOM      4  C   UNL     1      88.531  66.136  86.407  0.00  0.00    +0.000 C 
ATOM      5  C   UNL     1      87.484  66.688  87.352  0.00  0.00    +0.000 A 
ATOM      6  C   UNL     1      86.708  67.834  87.239  0.00  0.00    +0.000 A 
ATOM      7  C   UNL     1      85.800  68.114  88.259  0.00  0.00    +0.000 A 
ATOM      8 CL   UNL     1      84.836  69.539  88.168  0.00  0.00    +0.000 Cl
ATOM      9  C   UNL     1      85.658  67.254  89.359  0.00  0.00    +0.000 A 
ATOM     10  C   UNL     1      86.424  66.088  89.452  0.00  0.00    +0.000 A 
ATOM     11  C   UNL     1      87.329  65.821  88.440  0.00  0.00    +0.000 A 
ENDROOT
BRANCH   1  13
ATOM     12  C   UNL     1      89.101  63.692  90.329  0.00  0.00    +0.000 C 
ATOM     13  C   UNL     1      88.157  63.544  89.145  0.00  0.00    +0.000 C 
ENDBRANCH   1  13
BRANCH   4  14
ATOM     14  C   UNL     1      89.874  66.916  86.445  0.00  0.00    +0.000 C 
BRANCH  14  15
ATOM     15  C   UNL     1      89.826  68.356  85.978  0.00  0.00    +0.000 A 
ATOM     16  C   UNL     1      89.653  69.392  86.905  0.00  0.00    +0.000 A 
ATOM     17  C   UNL     1      89.621  70.725  86.486  0.00  0.00    +0.000 A 
ATOM     18  C   UNL     1      89.758  71.046  85.133  0.00  0.00    +0.000 A 
ATOM     19  C   UNL     1      89.923  70.031  84.192  0.00  0.00    +0.000 A 
ATOM     20  C   UNL     1      89.951  68.697  84.628  0.00  0.00    +0.000 A 
BRANCH  19  21
ATOM     21  O   UNL     1      90.068  70.200  82.839  0.00  0.00    +0.000 OA
ATOM     22  C   UNL     1      91.261  70.841  82.401  0.00  0.00    +0.000 C 
ENDBRANCH  19  21
BRANCH  20  23
ATOM     23  O   UNL     1      90.119  67.701  83.700  0.00  0.00    +0.000 OA
ATOM     24  H   UNL     1      90.844  67.731  83.107  0.00  0.00    +0.000 HD
ENDBRANCH  20  23
ENDBRANCH  14  15
ENDBRANCH   4  14
BRANCH   4  25
ATOM     25  O   UNL     1      88.090  66.056  85.045  0.00  0.00    +0.000 OA
BRANCH  25  26
ATOM     26  C   UNL     1      87.215  65.074  84.709  0.00  0.00    +0.000 C 
ATOM     27  O   UNL     1      86.087  64.970  85.173  0.00  0.00    +0.000 OA
ATOM     28  N   UNL     1      87.732  64.208  83.759  0.00  0.00    +0.000 N 
ATOM     29  C   UNL     1      89.045  64.369  83.164  0.00  0.00    +0.000 C 
ATOM     30  C   UNL     1      86.875  63.189  83.186  0.00  0.00    +0.000 C 
ENDBRANCH  25  26
ENDBRANCH   4  25
TORSDOF 7
ENDMDL
