MODEL 1
REMARK VINA RESULT:      -5.6      0.000      0.000
REMARK  Name = *****
REMARK  5 active torsions:
REMARK  status: ('A' for Active; 'I' for Inactive)
REMARK    1  A    between atoms: C_1  and  N_2
REMARK    2  A    between atoms: N_2  and  C_3
REMARK    3  A    between atoms: N_2  and  S_4
REMARK    4  A    between atoms: S_4  and  C_7
REMARK    5  A    between atoms: C_15  and  C_16
REMARK                            x       y       z     vdW  Elec       q    Type
REMARK                         _______ _______ _______ _____ _____    ______ ____
ROOT
ATOM      1  C   UNL     1     106.494 122.267  80.855  0.00  0.00    +0.000 A 
ATOM      2  C   UNL     1     107.276 122.750  79.785  0.00  0.00    +0.000 A 
ATOM      3  C   UNL     1     107.006 124.001  79.228  0.00  0.00    +0.000 A 
ATOM      4  C   UNL     1     105.955 124.720  79.765  0.00  0.00    +0.000 A 
ATOM      5  N   UNL     1     105.522 125.976  79.361  0.00  0.00    +0.000 N 
ATOM      6  C   UNL     1     104.440 126.407  80.111  0.00  0.00    +0.000 C 
ATOM      7  O   UNL     1     103.854 127.464  79.977  0.00  0.00    +0.000 OA
ATOM      8  C   UNL     1     104.166 125.296  81.099  0.00  0.00    +0.000 C 
ATOM      9  C   UNL     1     103.241 125.185  82.067  0.00  0.00    +0.000 C 
ATOM     10  C   UNL     1     105.169 124.247  80.822  0.00  0.00    +0.000 A 
ATOM     11  C   UNL     1     105.426 123.007  81.382  0.00  0.00    +0.000 A 
ATOM     12  H   UNL     1     105.931 126.496  78.633  0.00  0.00    +0.000 HD
ENDROOT
BRANCH   9  13
ATOM     13  C   UNL     1     102.225 126.098  82.458  0.00  0.00    +0.000 A 
ATOM     14  C   UNL     1     102.313 127.250  83.229  0.00  0.00    +0.000 A 
ATOM     15  C   UNL     1     101.019 127.809  83.337  0.00  0.00    +0.000 A 
ATOM     16  C   UNL     1     100.172 126.989  82.627  0.00  0.00    +0.000 A 
ATOM     17  C   UNL     1      98.702 127.158  82.476  0.00  0.00    +0.000 C 
ATOM     18  C   UNL     1      98.300 128.585  82.898  0.00  0.00    +0.000 C 
ATOM     19  C   UNL     1      99.016 129.038  84.185  0.00  0.00    +0.000 C 
ATOM     20  C   UNL     1     100.549 129.043  84.029  0.00  0.00    +0.000 C 
ATOM     21  N   UNL     1     100.902 125.959  82.102  0.00  0.00    +0.000 N 
ATOM     22  H   UNL     1     100.536 125.227  81.554  0.00  0.00    +0.000 HD
ENDBRANCH   9  13
BRANCH   1  23
ATOM     23  S   UNL     1     106.871 120.663  81.523  0.00  0.00    +0.000 S 
ATOM     24  O   UNL     1     107.933 120.107  80.711  0.00  0.00    +0.000 OA
ATOM     25  O   UNL     1     105.628 119.950  81.728  0.00  0.00    +0.000 OA
BRANCH  23  27
ATOM     26  C   UNL     1     107.351 119.979  84.086  0.00  0.00    +0.000 C 
ATOM     27  N   UNL     1     107.509 121.041  83.067  0.00  0.00    +0.000 NA
ATOM     28  C   UNL     1     108.909 121.523  83.005  0.00  0.00    +0.000 C 
ENDBRANCH  23  27
ENDBRANCH   1  23
TORSDOF 3
ENDMDL
