REMARK  Name = *****
REMARK  7 active torsions:
REMARK  status: ('A' for Active; 'I' for Inactive)
REMARK    1  A    between atoms: C_1  and  N_2
REMARK    2  A    between atoms: N_2  and  C_3
REMARK    3  A    between atoms: C_9  and  N_11
REMARK    4  A    between atoms: C_12  and  C_14
REMARK    5  A    between atoms: C_15  and  C_16
REMARK    6  A    between atoms: C_18  and  C_19
REMARK    7  A    between atoms: C_31  and  C_32
REMARK                            x       y       z     vdW  Elec       q    Type
REMARK                         _______ _______ _______ _____ _____    ______ ____
ROOT
ATOM      1  C   UNL     1       8.099  -0.322  -4.088  0.00  0.00    +0.000 A 
ATOM      2  C   UNL     1       8.149  -1.340  -5.031  0.00  0.00    +0.000 A 
ATOM      3  C   UNL     1       7.626  -2.732  -5.034  0.00  0.00    +0.000 C 
ATOM      4  N   UNL     1       8.879  -0.881  -6.101  0.00  0.00    +0.000 N 
ATOM      5  C   UNL     1       9.355   0.384  -5.870  0.00  0.00    +0.000 A 
ATOM      6  C   UNL     1       8.883   0.765  -4.618  0.00  0.00    +0.000 A 
ATOM      7  C   UNL     1       9.130   2.059  -3.916  0.00  0.00    +0.000 C 
ATOM      8  H   UNL     1       9.039  -1.393  -6.926  0.00  0.00    +0.000 HD
ENDROOT
BRANCH   5   9
ATOM      9  C   UNL     1      10.185   1.069  -6.804  0.00  0.00    +0.000 C 
ATOM     10  C   UNL     1      10.592   0.694  -8.029  0.00  0.00    +0.000 C 
ATOM     11  C   UNL     1      10.320  -0.560  -8.828  0.00  0.00    +0.000 C 
ATOM     12  O   UNL     1       9.655  -1.529  -8.512  0.00  0.00    +0.000 OA
ATOM     13  N   UNL     1      10.996  -0.392 -10.024  0.00  0.00    +0.000 N 
ATOM     14  C   UNL     1      11.665   0.824 -10.066  0.00  0.00    +0.000 A 
ATOM     15  C   UNL     1      11.459   1.536  -8.878  0.00  0.00    +0.000 A 
ATOM     16  C   UNL     1      12.039   2.782  -8.708  0.00  0.00    +0.000 A 
ATOM     17  C   UNL     1      12.819   3.282  -9.751  0.00  0.00    +0.000 A 
ATOM     18  F   UNL     1      13.393   4.485  -9.617  0.00  0.00    +0.000 F 
ATOM     19  C   UNL     1      13.020   2.562 -10.938  0.00  0.00    +0.000 A 
ATOM     20  C   UNL     1      12.435   1.306 -11.107  0.00  0.00    +0.000 A 
ATOM     21  H   UNL     1      11.003  -1.053 -10.754  0.00  0.00    +0.000 HD
ENDBRANCH   5   9
BRANCH   1  23
ATOM     22  N   UNL     1       6.222  -1.006  -2.773  0.00  0.00    +0.000 N 
ATOM     23  C   UNL     1       7.433  -0.350  -2.783  0.00  0.00    +0.000 C 
ATOM     24  O   UNL     1       7.896   0.199  -1.789  0.00  0.00    +0.000 OA
ATOM     25  H   UNL     1       5.844  -1.330  -3.622  0.00  0.00    +0.000 HD
BRANCH  22  34
ATOM     26  C   UNL     1       3.882  -4.916   2.824  0.00  0.00    +0.000 C 
ATOM     27  N   UNL     1       3.874  -4.477   1.441  0.00  0.00    +0.000 N 
ATOM     28  C   UNL     1       3.155  -5.351   0.528  0.00  0.00    +0.000 C 
ATOM     29  C   UNL     1       5.027  -3.843   0.992  0.00  0.00    +0.000 C 
ATOM     30  O   UNL     1       6.100  -3.950   1.583  0.00  0.00    +0.000 OA
ATOM     31  N   UNL     1       4.885  -3.055  -0.131  0.00  0.00    +0.000 N 
ATOM     32  C   UNL     1       3.670  -2.349  -0.504  0.00  0.00    +0.000 C 
ATOM     33  C   UNL     1       4.043  -1.641  -1.794  0.00  0.00    +0.000 C 
ATOM     34  C   UNL     1       5.492  -1.229  -1.543  0.00  0.00    +0.000 C 
ATOM     35  C   UNL     1       6.052  -2.383  -0.694  0.00  0.00    +0.000 C 
ENDBRANCH  22  34
ENDBRANCH   1  23
TORSDOF 3
