MODEL 1
REMARK VINA RESULT:      -5.5      0.000      0.000
REMARK  Name = *****
REMARK  1 active torsions:
REMARK  status: ('A' for Active; 'I' for Inactive)
REMARK    1  A    between atoms: C_9  and  S_11
REMARK                            x       y       z     vdW  Elec       q    Type
REMARK                         _______ _______ _______ _____ _____    ______ ____
ROOT
ATOM      1  N   UNL     1     104.818 125.732  79.603  0.00  0.00    +0.000 N 
ATOM      2  C   UNL     1     105.417 124.498  79.765  0.00  0.00    +0.000 C 
ATOM      3  O   UNL     1     106.253 123.989  79.041  0.00  0.00    +0.000 OA
ATOM      4  C   UNL     1     104.828 123.930  81.036  0.00  0.00    +0.000 C 
ATOM      5  C   UNL     1     103.910 124.950  81.565  0.00  0.00    +0.000 A 
ATOM      6  C   UNL     1     103.942 126.010  80.644  0.00  0.00    +0.000 A 
ATOM      7  C   UNL     1     103.201 127.169  80.790  0.00  0.00    +0.000 A 
ATOM      8  C   UNL     1     102.389 127.276  81.919  0.00  0.00    +0.000 A 
ATOM      9  C   UNL     1     102.356 126.229  82.857  0.00  0.00    +0.000 A 
ATOM     10  C   UNL     1     103.114 125.059  82.689  0.00  0.00    +0.000 A 
ATOM     11  C   UNL     1     105.206 122.699  81.415  0.00  0.00    +0.000 C 
ATOM     12  N   UNL     1     106.111 121.861  80.775  0.00  0.00    +0.000 N 
ATOM     13  C   UNL     1     106.357 120.732  81.542  0.00  0.00    +0.000 A 
ATOM     14  C   UNL     1     107.192 119.670  81.273  0.00  0.00    +0.000 A 
ATOM     15  C   UNL     1     107.214 118.601  82.180  0.00  0.00    +0.000 A 
ATOM     16  C   UNL     1     106.394 118.600  83.325  0.00  0.00    +0.000 A 
ATOM     17  C   UNL     1     105.532 119.667  83.582  0.00  0.00    +0.000 A 
ATOM     18  C   UNL     1     105.536 120.706  82.673  0.00  0.00    +0.000 A 
ATOM     19  C   UNL     1     104.744 121.950  82.655  0.00  0.00    +0.000 C 
ATOM     20  O   UNL     1     103.913 122.253  83.483  0.00  0.00    +0.000 OA
ATOM     21  H   UNL     1     104.991 126.336  78.845  0.00  0.00    +0.000 HD
ATOM     22  H   UNL     1     106.521 122.043  79.898  0.00  0.00    +0.000 HD
ENDROOT
BRANCH   9  23
ATOM     23  S   UNL     1     101.318 126.365  84.293  0.00  0.00    +0.000 S 
ATOM     24  O   UNL     1     101.851 127.688  85.046  0.00  0.00    +0.000 OA
ATOM     25  O   UNL     1      99.985 126.679  83.829  0.00  0.00    +0.000 OA
ATOM     26  O   UNL     1     101.588 125.234  85.152  0.00  0.00    +0.000 OA
ENDBRANCH   9  23
TORSDOF 1
ENDMDL
