REMARK  Name = *****
REMARK  5 active torsions:
REMARK  status: ('A' for Active; 'I' for Inactive)
REMARK    1  A    between atoms: C_1  and  C_14
REMARK    2  A    between atoms: N_2  and  C_3
REMARK    3  A    between atoms: C_6  and  S_9
REMARK    4  A    between atoms: S_9  and  N_12
REMARK    5  A    between atoms: N_12  and  C_13
REMARK                            x       y       z     vdW  Elec       q    Type
REMARK                         _______ _______ _______ _____ _____    ______ ____
ROOT
ATOM      1  C   UNL     1       2.564   0.448  -0.423  0.00  0.00    +0.000 C 
ATOM      2  N   UNL     1       3.219  -0.758  -0.471  0.00  0.00    +0.000 N 
ATOM      3  H   UNL     1       2.648  -1.534  -0.673  0.00  0.00    +0.000 HD
ENDROOT
BRANCH   1   4
ATOM      4  C   UNL     1       1.249   0.652  -0.576  0.00  0.00    +0.000 C 
ATOM      5  C   UNL     1       0.252  -0.445  -0.819  0.00  0.00    +0.000 C 
ATOM      6  O   UNL     1       0.477  -1.637  -0.912  0.00  0.00    +0.000 OA
ATOM      7  N   UNL     1      -0.972   0.201  -0.913  0.00  0.00    +0.000 N 
ATOM      8  C   UNL     1      -0.829   1.579  -0.754  0.00  0.00    +0.000 A 
ATOM      9  C   UNL     1      -1.831   2.526  -0.791  0.00  0.00    +0.000 A 
ATOM     10  C   UNL     1      -1.458   3.860  -0.609  0.00  0.00    +0.000 A 
ATOM     11  C   UNL     1      -0.110   4.210  -0.397  0.00  0.00    +0.000 A 
ATOM     12  C   UNL     1       0.891   3.232  -0.363  0.00  0.00    +0.000 A 
ATOM     13  C   UNL     1       0.514   1.915  -0.544  0.00  0.00    +0.000 A 
ATOM     14  H   UNL     1      -1.830  -0.255  -1.071  0.00  0.00    +0.000 HD
ENDBRANCH   1   4
BRANCH   2  15
ATOM     15  C   UNL     1       4.576  -1.055  -0.274  0.00  0.00    +0.000 A 
ATOM     16  C   UNL     1       5.536  -0.102   0.095  0.00  0.00    +0.000 A 
ATOM     17  C   UNL     1       6.881  -0.454   0.258  0.00  0.00    +0.000 A 
ATOM     18  C   UNL     1       7.278  -1.775   0.049  0.00  0.00    +0.000 A 
ATOM     19  C   UNL     1       6.348  -2.739  -0.336  0.00  0.00    +0.000 A 
ATOM     20  C   UNL     1       5.008  -2.375  -0.493  0.00  0.00    +0.000 A 
BRANCH  18  21
ATOM     21  S   UNL     1       8.979  -2.234   0.238  0.00  0.00    +0.000 S 
ATOM     22  O   UNL     1       9.319  -3.117  -0.856  0.00  0.00    +0.000 OA
ATOM     23  O   UNL     1       9.759  -1.053   0.537  0.00  0.00    +0.000 OA
BRANCH  21  24
ATOM     24  N   UNL     1       8.935  -3.189   1.618  0.00  0.00    +0.000 NA
ATOM     25  C   UNL     1       8.954  -2.539   2.921  0.00  0.00    +0.000 C 
ATOM     26  H   UNL     1       9.745  -3.808   1.580  0.00  0.00    +0.000 HD
ENDBRANCH  21  24
ENDBRANCH  18  21
ENDBRANCH   2  15
TORSDOF 4
