MODEL 1
REMARK VINA RESULT:      -5.3      0.000      0.000
REMARK  Name = *****
REMARK  5 active torsions:
REMARK  status: ('A' for Active; 'I' for Inactive)
REMARK    1  A    between atoms: C_1  and  C_14
REMARK    2  A    between atoms: N_2  and  C_3
REMARK    3  A    between atoms: C_6  and  S_9
REMARK    4  A    between atoms: S_9  and  N_12
REMARK    5  A    between atoms: N_12  and  C_13
REMARK                            x       y       z     vdW  Elec       q    Type
REMARK                         _______ _______ _______ _____ _____    ______ ____
ROOT
ATOM      1  C   UNL     1      88.647  67.067  86.450  0.00  0.00    +0.000 C 
ATOM      2  N   UNL     1      89.678  67.613  85.726  0.00  0.00    +0.000 N 
ATOM      3  H   UNL     1      90.480  67.047  85.651  0.00  0.00    +0.000 HD
ENDROOT
BRANCH   1   4
ATOM      4  C   UNL     1      88.650  65.887  87.084  0.00  0.00    +0.000 C 
ATOM      5  C   UNL     1      89.525  64.729  86.696  0.00  0.00    +0.000 C 
ATOM      6  O   UNL     1      90.329  64.686  85.784  0.00  0.00    +0.000 OA
ATOM      7  N   UNL     1      89.212  63.727  87.604  0.00  0.00    +0.000 N 
ATOM      8  C   UNL     1      88.236  64.151  88.506  0.00  0.00    +0.000 A 
ATOM      9  C   UNL     1      87.687  63.418  89.538  0.00  0.00    +0.000 A 
ATOM     10  C   UNL     1      86.715  64.045  90.321  0.00  0.00    +0.000 A 
ATOM     11  C   UNL     1      86.321  65.372  90.058  0.00  0.00    +0.000 A 
ATOM     12  C   UNL     1      86.892  66.097  89.006  0.00  0.00    +0.000 A 
ATOM     13  C   UNL     1      87.853  65.470  88.235  0.00  0.00    +0.000 A 
ATOM     14  H   UNL     1      89.625  62.834  87.610  0.00  0.00    +0.000 HD
ENDBRANCH   1   4
BRANCH   2  15
ATOM     15  C   UNL     1      89.766  68.855  85.079  0.00  0.00    +0.000 A 
ATOM     16  C   UNL     1      90.028  69.003  83.709  0.00  0.00    +0.000 A 
ATOM     17  C   UNL     1      90.124  70.270  83.122  0.00  0.00    +0.000 A 
ATOM     18  C   UNL     1      89.959  71.409  83.911  0.00  0.00    +0.000 A 
ATOM     19  C   UNL     1      89.716  71.292  85.278  0.00  0.00    +0.000 A 
ATOM     20  C   UNL     1      89.620  70.021  85.851  0.00  0.00    +0.000 A 
BRANCH  18  21
ATOM     21  S   UNL     1      90.091  73.020  83.185  0.00  0.00    +0.000 S 
ATOM     22  O   UNL     1      90.194  72.849  81.753  0.00  0.00    +0.000 OA
ATOM     23  O   UNL     1      89.101  73.892  83.781  0.00  0.00    +0.000 OA
BRANCH  21  24
ATOM     24  N   UNL     1      91.605  73.520  83.711  0.00  0.00    +0.000 NA
ATOM     25  C   UNL     1      92.510  74.139  82.753  0.00  0.00    +0.000 C 
ATOM     26  H   UNL     1      92.079  72.698  84.084  0.00  0.00    +0.000 HD
ENDBRANCH  21  24
ENDBRANCH  18  21
ENDBRANCH   2  15
TORSDOF 4
ENDMDL
