MODEL 1
REMARK VINA RESULT:      -5.9      0.000      0.000
REMARK  Name = *****
REMARK  3 active torsions:
REMARK  status: ('A' for Active; 'I' for Inactive)
REMARK    1  A    between atoms: C_7  and  C_24
REMARK    2  A    between atoms: C_10  and  C_11
REMARK    3  A    between atoms: N_12  and  C_13
REMARK                            x       y       z     vdW  Elec       q    Type
REMARK                         _______ _______ _______ _____ _____    ______ ____
ROOT
ATOM      1  O   UNL     1      83.158  64.303  89.808  0.00  0.00    +0.000 OA
ATOM      2  C   UNL     1      83.497  63.165  90.078  0.00  0.00    +0.000 C 
ATOM      3  N   UNL     1      82.738  62.166  90.666  0.00  0.00    +0.000 N 
ATOM      4  C   UNL     1      83.476  60.994  90.817  0.00  0.00    +0.000 A 
ATOM      5  C   UNL     1      83.044  59.806  91.364  0.00  0.00    +0.000 A 
ATOM      6  C   UNL     1      83.964  58.752  91.418  0.00  0.00    +0.000 A 
ATOM      7  C   UNL     1      85.289  58.892  90.932  0.00  0.00    +0.000 A 
ATOM      8  C   UNL     1      85.690  60.124  90.381  0.00  0.00    +0.000 A 
ATOM      9  C   UNL     1      84.774  61.161  90.330  0.00  0.00    +0.000 A 
ATOM     10  C   UNL     1      84.842  62.538  89.841  0.00  0.00    +0.000 C 
ATOM     11  H   UNL     1      81.798  62.271  90.942  0.00  0.00    +0.000 HD
ENDROOT
BRANCH   7  12
ATOM     12  C   UNL     1      86.218  57.771  91.009  0.00  0.00    +0.000 A 
ATOM     13  C   UNL     1      86.467  56.749  91.902  0.00  0.00    +0.000 A 
ATOM     14  N   UNL     1      87.492  55.956  91.451  0.00  0.00    +0.000 NA
ATOM     15  C   UNL     1      87.828  56.516  90.312  0.00  0.00    +0.000 A 
ATOM     16  O   UNL     1      87.106  57.618  89.973  0.00  0.00    +0.000 OA
ENDBRANCH   7  12
BRANCH  10  17
ATOM     17  C   UNL     1      85.877  63.176  89.279  0.00  0.00    +0.000 C 
ATOM     18  N   UNL     1      85.838  64.383  88.627  0.00  0.00    +0.000 N 
ATOM     19  H   UNL     1      84.957  64.822  88.614  0.00  0.00    +0.000 HD
BRANCH  18  20
ATOM     20  C   UNL     1      86.862  65.087  87.974  0.00  0.00    +0.000 A 
ATOM     21  C   UNL     1      87.735  64.371  87.138  0.00  0.00    +0.000 A 
ATOM     22  C   UNL     1      88.761  65.021  86.447  0.00  0.00    +0.000 A 
ATOM     23  C   UNL     1      88.929  66.401  86.576  0.00  0.00    +0.000 A 
ATOM     24  C   UNL     1      90.052  67.014  85.804  0.00  0.00    +0.000 C 
ATOM     25  S   UNL     1      90.775  65.622  84.943  0.00  0.00    +0.000 S 
ATOM     26  O   UNL     1      92.116  65.408  85.457  0.00  0.00    +0.000 OA
ATOM     27  O   UNL     1      90.540  65.787  83.520  0.00  0.00    +0.000 OA
ATOM     28  C   UNL     1      89.718  64.309  85.546  0.00  0.00    +0.000 C 
ATOM     29  C   UNL     1      88.074  67.130  87.395  0.00  0.00    +0.000 A 
ATOM     30  C   UNL     1      87.046  66.474  88.083  0.00  0.00    +0.000 A 
ENDBRANCH  18  20
ENDBRANCH  10  17
TORSDOF 3
ENDMDL
