MODEL 1
REMARK VINA RESULT:      -5.9      0.000      0.000
REMARK  Name = *****
REMARK  1 active torsions:
REMARK  status: ('A' for Active; 'I' for Inactive)
REMARK    1  A    between atoms: C_1  and  C_2
REMARK                            x       y       z     vdW  Elec       q    Type
REMARK                         _______ _______ _______ _____ _____    ______ ____
ROOT
ATOM      1  C   UNL     1      89.049  67.612  82.999  0.00  0.00    +0.000 C 
ATOM      2  C   UNL     1      89.427  66.690  84.158  0.00  0.00    +0.000 C 
ATOM      3  C   UNL     1      88.333  66.753  85.266  0.00  0.00    +0.000 C 
ATOM      4  C   UNL     1      88.510  65.628  86.230  0.00  0.00    +0.000 A 
ATOM      5  C   UNL     1      89.314  64.547  85.928  0.00  0.00    +0.000 A 
ATOM      6  N   UNL     1      89.295  63.693  86.997  0.00  0.00    +0.000 N 
ATOM      7  C   UNL     1      88.463  64.193  87.979  0.00  0.00    +0.000 A 
ATOM      8  C   UNL     1      88.129  63.658  89.231  0.00  0.00    +0.000 A 
ATOM      9  C   UNL     1      87.253  64.397  90.033  0.00  0.00    +0.000 A 
ATOM     10 CL   UNL     1      86.816  63.772  91.579  0.00  0.00    +0.000 Cl
ATOM     11  C   UNL     1      86.740  65.616  89.596  0.00  0.00    +0.000 A 
ATOM     12  F   UNL     1      85.900  66.319  90.371  0.00  0.00    +0.000 F 
ATOM     13  C   UNL     1      87.080  66.140  88.347  0.00  0.00    +0.000 A 
ATOM     14  C   UNL     1      87.959  65.415  87.521  0.00  0.00    +0.000 A 
ATOM     15  C   UNL     1      90.102  64.368  84.664  0.00  0.00    +0.000 C 
ATOM     16  N   UNL     1      89.633  65.319  83.619  0.00  0.00    +0.000 N 
ATOM     17  C   UNL     1      91.648  64.565  84.947  0.00  0.00    +0.000 C 
ATOM     18  O   UNL     1      92.226  65.531  85.422  0.00  0.00    +0.000 OA
ATOM     19  N   UNL     1      92.288  63.382  84.574  0.00  0.00    +0.000 N 
ATOM     20  C   UNL     1      91.388  62.441  84.102  0.00  0.00    +0.000 A 
ATOM     21  C   UNL     1      91.679  61.167  83.661  0.00  0.00    +0.000 A 
ATOM     22  C   UNL     1      90.608  60.372  83.241  0.00  0.00    +0.000 A 
ATOM     23  C   UNL     1      89.293  60.868  83.276  0.00  0.00    +0.000 A 
ATOM     24 CL   UNL     1      87.996  59.861  82.759  0.00  0.00    +0.000 Cl
ATOM     25  C   UNL     1      89.018  62.162  83.726  0.00  0.00    +0.000 A 
ATOM     26  C   UNL     1      90.087  62.947  84.138  0.00  0.00    +0.000 A 
ATOM     27  H   UNL     1      89.798  62.849  87.058  0.00  0.00    +0.000 HD
ATOM     28  H   UNL     1      90.330  65.360  82.876  0.00  0.00    +0.000 HD
ATOM     29  H   UNL     1      88.736  64.982  83.268  0.00  0.00    +0.000 HD
ATOM     30  H   UNL     1      93.259  63.234  84.638  0.00  0.00    +0.000 HD
ENDROOT
TORSDOF 0
ENDMDL
