MODEL 1
REMARK VINA RESULT:      -5.3      0.000      0.000
REMARK  Name = *****
REMARK  6 active torsions:
REMARK  status: ('A' for Active; 'I' for Inactive)
REMARK    1  A    between atoms: C_1  and  C_2
REMARK    2  A    between atoms: C_2  and  O_3
REMARK    3  A    between atoms: O_3  and  C_4
REMARK    4  A    between atoms: N_13  and  S_14
REMARK    5  A    between atoms: S_14  and  C_17
REMARK    6  A    between atoms: N_23  and  C_24
REMARK                            x       y       z     vdW  Elec       q    Type
REMARK                         _______ _______ _______ _____ _____    ______ ____
ROOT
ATOM      1  S   UNL     1      86.285  62.733  89.358  0.00  0.00    +0.000 S 
ATOM      2  O   UNL     1      86.680  62.880  90.738  0.00  0.00    +0.000 OA
ATOM      3  O   UNL     1      86.452  61.488  88.638  0.00  0.00    +0.000 OA
ENDROOT
BRANCH   1   4
ATOM      4  C   UNL     1      87.177  63.994  88.467  0.00  0.00    +0.000 A 
ATOM      5  C   UNL     1      88.063  63.597  87.460  0.00  0.00    +0.000 A 
ATOM      6  C   UNL     1      88.711  64.608  86.781  0.00  0.00    +0.000 A 
ATOM      7  C   UNL     1      88.511  65.962  87.055  0.00  0.00    +0.000 A 
ATOM      8  C   UNL     1      87.632  66.357  88.048  0.00  0.00    +0.000 A 
ATOM      9  C   UNL     1      86.955  65.357  88.761  0.00  0.00    +0.000 A 
ATOM     10  N   UNL     1      89.292  66.766  86.211  0.00  0.00    +0.000 N 
ATOM     11  C   UNL     1      89.305  68.204  86.237  0.00  0.00    +0.000 C 
ATOM     12  C   UNL     1      90.046  65.991  85.342  0.00  0.00    +0.000 C 
ATOM     13  O   UNL     1      90.827  66.334  84.481  0.00  0.00    +0.000 OA
ATOM     14  C   UNL     1      89.688  64.523  85.695  0.00  0.00    +0.000 C 
ATOM     15  O   UNL     1      90.133  63.517  85.195  0.00  0.00    +0.000 OA
ENDBRANCH   1   4
BRANCH   1  20
ATOM     16  C   UNL     1      83.618  62.812  90.163  0.00  0.00    +0.000 C 
ATOM     17  C   UNL     1      82.398  62.461  89.293  0.00  0.00    +0.000 C 
ATOM     18  C   UNL     1      82.603  63.274  88.035  0.00  0.00    +0.000 C 
ATOM     19  C   UNL     1      84.094  63.116  87.802  0.00  0.00    +0.000 C 
ATOM     20  N   UNL     1      84.679  63.222  89.161  0.00  0.00    +0.000 NA
BRANCH  16  21
ATOM     21  C   UNL     1      83.936  61.636  91.102  0.00  0.00    +0.000 C 
BRANCH  21  22
ATOM     22  O   UNL     1      83.194  60.491  90.687  0.00  0.00    +0.000 OA
BRANCH  22  23
ATOM     23  C   UNL     1      83.822  59.280  90.750  0.00  0.00    +0.000 A 
ATOM     24  C   UNL     1      83.209  58.029  90.674  0.00  0.00    +0.000 A 
ATOM     25  C   UNL     1      83.979  56.865  90.766  0.00  0.00    +0.000 A 
ATOM     26  C   UNL     1      85.360  56.946  90.935  0.00  0.00    +0.000 A 
ATOM     27  C   UNL     1      85.976  58.193  91.012  0.00  0.00    +0.000 A 
ATOM     28  C   UNL     1      85.207  59.353  90.921  0.00  0.00    +0.000 A 
ENDBRANCH  22  23
ENDBRANCH  21  22
ENDBRANCH  16  21
ENDBRANCH   1  20
TORSDOF 5
ENDMDL
