REMARK  Name = *****
REMARK  5 active torsions:
REMARK  status: ('A' for Active; 'I' for Inactive)
REMARK    1  A    between atoms: C_1  and  N_2
REMARK    2  A    between atoms: N_2  and  C_3
REMARK    3  A    between atoms: N_2  and  S_4
REMARK    4  A    between atoms: S_4  and  C_7
REMARK    5  A    between atoms: C_15  and  C_16
REMARK                            x       y       z     vdW  Elec       q    Type
REMARK                         _______ _______ _______ _____ _____    ______ ____
ROOT
ATOM      1  C   UNL     1       4.587  -0.802  -1.298  0.00  0.00    +0.000 A 
ATOM      2  C   UNL     1       4.957  -2.102  -1.703  0.00  0.00    +0.000 A 
ATOM      3  C   UNL     1       6.275  -2.372  -2.074  0.00  0.00    +0.000 A 
ATOM      4  C   UNL     1       7.174  -1.324  -2.028  0.00  0.00    +0.000 A 
ATOM      5  N   UNL     1       8.523  -1.377  -2.353  0.00  0.00    +0.000 N 
ATOM      6  C   UNL     1       9.133  -0.143  -2.199  0.00  0.00    +0.000 C 
ATOM      7  O   UNL     1      10.304   0.106  -2.414  0.00  0.00    +0.000 OA
ATOM      8  C   UNL     1       8.043   0.789  -1.720  0.00  0.00    +0.000 C 
ATOM      9  C   UNL     1       8.075   2.094  -1.405  0.00  0.00    +0.000 C 
ATOM     10  C   UNL     1       6.816  -0.029  -1.634  0.00  0.00    +0.000 A 
ATOM     11  C   UNL     1       5.511   0.252  -1.266  0.00  0.00    +0.000 A 
ATOM     12  H   UNL     1       8.988  -2.190  -2.656  0.00  0.00    +0.000 HD
ENDROOT
BRANCH   9  13
ATOM     13  C   UNL     1       9.166   3.005  -1.427  0.00  0.00    +0.000 A 
ATOM     14  C   UNL     1       9.210   4.349  -1.081  0.00  0.00    +0.000 A 
ATOM     15  C   UNL     1      10.530   4.814  -1.281  0.00  0.00    +0.000 A 
ATOM     16  C   UNL     1      11.262   3.743  -1.741  0.00  0.00    +0.000 A 
ATOM     17  C   UNL     1      12.700   3.755  -2.118  0.00  0.00    +0.000 C 
ATOM     18  C   UNL     1      13.369   5.029  -1.565  0.00  0.00    +0.000 C 
ATOM     19  C   UNL     1      12.493   6.282  -1.762  0.00  0.00    +0.000 C 
ATOM     20  C   UNL     1      11.130   6.159  -1.053  0.00  0.00    +0.000 C 
ATOM     21  N   UNL     1      10.436   2.657  -1.830  0.00  0.00    +0.000 N 
ATOM     22  H   UNL     1      10.708   1.762  -2.137  0.00  0.00    +0.000 HD
ENDBRANCH   9  13
BRANCH   1  23
ATOM     23  S   UNL     1       2.893  -0.505  -0.846  0.00  0.00    +0.000 S 
ATOM     24  O   UNL     1       2.071  -1.102  -1.877  0.00  0.00    +0.000 OA
ATOM     25  O   UNL     1       2.754   0.890  -0.486  0.00  0.00    +0.000 OA
BRANCH  23  27
ATOM     26  C   UNL     1       3.522  -0.951   1.737  0.00  0.00    +0.000 C 
ATOM     27  N   UNL     1       2.721  -1.427   0.587  0.00  0.00    +0.000 NA
ATOM     28  C   UNL     1       1.304  -1.635   0.967  0.00  0.00    +0.000 C 
ENDBRANCH  23  27
ENDBRANCH   1  23
TORSDOF 3
