REMARK  Name = *****
REMARK  6 active torsions:
REMARK  status: ('A' for Active; 'I' for Inactive)
REMARK    1  A    between atoms: C_1  and  C_2
REMARK    2  A    between atoms: C_3  and  C_4
REMARK    3  A    between atoms: C_4  and  C_5
REMARK    4  A    between atoms: C_5  and  C_6
REMARK    5  A    between atoms: C_9  and  C_10
REMARK    6  A    between atoms: C_11  and  C_13
REMARK                            x       y       z     vdW  Elec       q    Type
REMARK                         _______ _______ _______ _____ _____    ______ ____
ROOT
ATOM      1  C   UNL     1       2.645   0.398   0.539  0.00  0.00    +0.000 C 
ATOM      2  C   UNL     1       1.189   0.118   0.446  0.00  0.00    +0.000 A 
ATOM      3  C   UNL     1       0.126   0.936   0.090  0.00  0.00    +0.000 A 
ATOM      4  C   UNL     1      -1.067   0.148   0.176  0.00  0.00    +0.000 A 
ATOM      5  C   UNL     1      -2.472   0.582  -0.073  0.00  0.00    +0.000 C 
ATOM      6  C   UNL     1      -0.653  -1.153   0.399  0.00  0.00    +0.000 A 
ATOM      7  N   UNL     1       0.690  -1.141   0.662  0.00  0.00    +0.000 N 
ATOM      8  H   UNL     1       1.217  -1.918   0.960  0.00  0.00    +0.000 HD
ENDROOT
BRANCH   6   9
ATOM      9  C   UNL     1      -1.309  -2.399   0.326  0.00  0.00    +0.000 C 
ATOM     10  C   UNL     1      -1.590  -2.959  -0.861  0.00  0.00    +0.000 C 
ATOM     11  C   UNL     1      -1.246  -2.427  -2.240  0.00  0.00    +0.000 C 
ATOM     12  O   UNL     1      -0.638  -1.417  -2.548  0.00  0.00    +0.000 OA
ATOM     13  N   UNL     1      -1.767  -3.367  -3.119  0.00  0.00    +0.000 N 
ATOM     14  C   UNL     1      -2.381  -4.416  -2.442  0.00  0.00    +0.000 A 
ATOM     15  C   UNL     1      -2.997  -5.515  -3.006  0.00  0.00    +0.000 A 
ATOM     16  C   UNL     1      -3.551  -6.456  -2.136  0.00  0.00    +0.000 A 
ATOM     17  C   UNL     1      -3.479  -6.278  -0.742  0.00  0.00    +0.000 A 
ATOM     18  C   UNL     1      -2.851  -5.154  -0.192  0.00  0.00    +0.000 A 
ATOM     19  C   UNL     1      -2.302  -4.227  -1.059  0.00  0.00    +0.000 A 
ATOM     20  H   UNL     1      -1.710  -3.299  -4.100  0.00  0.00    +0.000 HD
ENDBRANCH   6   9
BRANCH   3  21
ATOM     21  C   UNL     1       0.235   2.349  -0.399  0.00  0.00    +0.000 C 
BRANCH  21  22
ATOM     22  C   UNL     1       0.458   2.387  -1.909  0.00  0.00    +0.000 C 
BRANCH  22  23
ATOM     23  C   UNL     1      -0.842   2.344  -2.662  0.00  0.00    +0.000 C 
ATOM     24  O   UNL     1      -1.248   1.116  -3.039  0.00  0.00    +0.000 OA
ATOM     25  O   UNL     1      -1.496   3.347  -2.917  0.00  0.00    +0.000 OA
ENDBRANCH  22  23
ENDBRANCH  21  22
ENDBRANCH   3  21
TORSDOF 4
