MODEL 1
REMARK VINA RESULT:      -5.6      0.000      0.000
REMARK  Name = *****
REMARK  5 active torsions:
REMARK  status: ('A' for Active; 'I' for Inactive)
REMARK    1  A    between atoms: C_1  and  C_2
REMARK    2  A    between atoms: C_2  and  N_3
REMARK    3  A    between atoms: C_6  and  C_7
REMARK    4  A    between atoms: C_6  and  C_8
REMARK    5  A    between atoms: C_21  and  C_22
REMARK                            x       y       z     vdW  Elec       q    Type
REMARK                         _______ _______ _______ _____ _____    ______ ____
ROOT
ATOM      1  N   UNL     1      85.692  66.289  90.304  0.00  0.00    +0.000 N 
ATOM      2  C   UNL     1      85.602  65.658  91.548  0.00  0.00    +0.000 C 
ATOM      3  O   UNL     1      84.873  65.974  92.478  0.00  0.00    +0.000 OA
ATOM      4  C   UNL     1      86.601  64.477  91.540  0.00  0.00    +0.000 C 
ATOM      5  C   UNL     1      87.622  64.662  92.662  0.00  0.00    +0.000 C 
ATOM      6  C   UNL     1      85.838  63.161  91.684  0.00  0.00    +0.000 C 
ATOM      7  C   UNL     1      87.235  64.611  90.173  0.00  0.00    +0.000 A 
ATOM      8  C   UNL     1      88.233  63.832  89.599  0.00  0.00    +0.000 A 
ATOM      9  C   UNL     1      88.631  64.203  88.307  0.00  0.00    +0.000 A 
ATOM     10  C   UNL     1      88.084  65.286  87.605  0.00  0.00    +0.000 A 
ATOM     11  C   UNL     1      87.067  66.055  88.218  0.00  0.00    +0.000 A 
ATOM     12  C   UNL     1      86.668  65.690  89.497  0.00  0.00    +0.000 A 
ATOM     13  C   UNL     1      88.744  65.357  86.326  0.00  0.00    +0.000 A 
ATOM     14  C   UNL     1      89.649  64.313  86.298  0.00  0.00    +0.000 A 
ATOM     15  N   UNL     1      89.575  63.639  87.485  0.00  0.00    +0.000 N 
ATOM     16  C   UNL     1      90.586  63.915  85.222  0.00  0.00    +0.000 A 
ATOM     17  N   UNL     1      91.390  62.860  85.397  0.00  0.00    +0.000 NA
ATOM     18  N   UNL     1      92.084  62.794  84.252  0.00  0.00    +0.000 N 
ATOM     19  C   UNL     1      91.749  63.765  83.350  0.00  0.00    +0.000 A 
ATOM     20  C   UNL     1      92.399  63.861  82.022  0.00  0.00    +0.000 C 
ATOM     21  C   UNL     1      90.770  64.531  83.961  0.00  0.00    +0.000 A 
ATOM     22  C   UNL     1      90.070  65.716  83.388  0.00  0.00    +0.000 C 
ATOM     23  C   UNL     1      89.659  66.775  84.411  0.00  0.00    +0.000 C 
ATOM     24  C   UNL     1      88.454  66.361  85.255  0.00  0.00    +0.000 C 
ATOM     25  H   UNL     1      90.123  62.856  87.719  0.00  0.00    +0.000 HD
ATOM     26  H   UNL     1      92.770  62.111  84.077  0.00  0.00    +0.000 HD
ENDROOT
BRANCH   1  28
ATOM     27  C   UNL     1      85.652  68.747  90.369  0.00  0.00    +0.000 C 
ATOM     28  C   UNL     1      84.938  67.470  89.953  0.00  0.00    +0.000 C 
ENDBRANCH   1  28
TORSDOF 1
ENDMDL
