MODEL 1
REMARK VINA RESULT:      -5.7      0.000      0.000
REMARK  Name = *****
REMARK  5 active torsions:
REMARK  status: ('A' for Active; 'I' for Inactive)
REMARK    1  A    between atoms: N_7  and  C_8
REMARK    2  A    between atoms: C_8  and  C_9
REMARK    3  A    between atoms: C_17  and  C_18
REMARK    4  A    between atoms: C_20  and  C_21
REMARK    5  A    between atoms: C_21  and  N_22
REMARK                            x       y       z     vdW  Elec       q    Type
REMARK                         _______ _______ _______ _____ _____    ______ ____
ROOT
ATOM      1  C   UNL     1      84.669  60.129  91.248  0.00  0.00    +0.000 A 
ATOM      2  C   UNL     1      85.606  60.849  90.482  0.00  0.00    +0.000 A 
ATOM      3  C   UNL     1      85.145  61.785  89.570  0.00  0.00    +0.000 A 
ATOM      4  C   UNL     1      83.772  61.989  89.411  0.00  0.00    +0.000 A 
ATOM      5  N   UNL     1      83.531  62.964  88.452  0.00  0.00    +0.000 N 
ATOM      6  C   UNL     1      84.711  63.461  87.928  0.00  0.00    +0.000 C 
ATOM      7  O   UNL     1      84.806  64.319  87.069  0.00  0.00    +0.000 OA
ATOM      8  C   UNL     1      85.816  62.716  88.639  0.00  0.00    +0.000 C 
ATOM      9  C   UNL     1      87.152  62.816  88.537  0.00  0.00    +0.000 C 
ATOM     10  C   UNL     1      82.825  61.294  90.133  0.00  0.00    +0.000 A 
ATOM     11  C   UNL     1      83.285  60.355  91.059  0.00  0.00    +0.000 A 
ATOM     12  H   UNL     1      82.633  63.263  88.180  0.00  0.00    +0.000 HD
ENDROOT
BRANCH   9  13
ATOM     13  C   UNL     1      87.934  63.683  87.727  0.00  0.00    +0.000 A 
ATOM     14  C   UNL     1      88.258  65.019  87.902  0.00  0.00    +0.000 A 
ATOM     15  C   UNL     1      89.044  65.454  86.796  0.00  0.00    +0.000 A 
ATOM     16  C   UNL     1      89.187  64.352  85.977  0.00  0.00    +0.000 A 
ATOM     17  N   UNL     1      88.525  63.295  86.549  0.00  0.00    +0.000 N 
ATOM     18  H   UNL     1      88.481  62.387  86.171  0.00  0.00    +0.000 HD
BRANCH  15  19
ATOM     19  C   UNL     1      89.580  66.832  86.557  0.00  0.00    +0.000 C 
BRANCH  19  20
ATOM     20  N   UNL     1      88.487  67.768  86.249  0.00  0.00    +0.000 N 
ATOM     21  C   UNL     1      88.763  68.509  84.998  0.00  0.00    +0.000 C 
ATOM     22  C   UNL     1      89.848  69.590  85.136  0.00  0.00    +0.000 C 
ATOM     23  O   UNL     1      89.531  70.520  86.180  0.00  0.00    +0.000 OA
ATOM     24  C   UNL     1      89.346  69.840  87.428  0.00  0.00    +0.000 C 
ATOM     25  C   UNL     1      88.256  68.760  87.324  0.00  0.00    +0.000 C 
ATOM     26  H   UNL     1      87.652  67.189  86.151  0.00  0.00    +0.000 HD
ENDBRANCH  19  20
ENDBRANCH  15  19
ENDBRANCH   9  13
BRANCH   1  27
ATOM     27  C   UNL     1      85.138  59.088  92.243  0.00  0.00    +0.000 C 
BRANCH  27  34
ATOM     28  O   UNL     1      86.709  57.596  90.408  0.00  0.00    +0.000 OA
ATOM     29  C   UNL     1      85.683  57.117  90.876  0.00  0.00    +0.000 C 
ATOM     30  C   UNL     1      85.183  55.744  90.513  0.00  0.00    +0.000 C 
ATOM     31  S   UNL     1      83.681  55.485  91.474  0.00  0.00    +0.000 S 
ATOM     32  C   UNL     1      83.765  57.063  92.219  0.00  0.00    +0.000 C 
ATOM     33  O   UNL     1      82.933  57.449  93.023  0.00  0.00    +0.000 OA
ATOM     34  N   UNL     1      84.862  57.744  91.780  0.00  0.00    +0.000 N 
ENDBRANCH  27  34
ENDBRANCH   1  27
TORSDOF 5
ENDMDL
