MODEL 1
REMARK VINA RESULT:      -5.9      0.000      0.000
REMARK  Name = *****
REMARK  3 active torsions:
REMARK  status: ('A' for Active; 'I' for Inactive)
REMARK    1  A    between atoms: C_2  and  C_5
REMARK    2  A    between atoms: C_8  and  C_9
REMARK    3  A    between atoms: C_9  and  N_10
REMARK                            x       y       z     vdW  Elec       q    Type
REMARK                         _______ _______ _______ _____ _____    ______ ____
ROOT
ATOM      1  N   UNL     1      94.859 114.301  75.515  0.00  0.00    +0.000 N 
ATOM      2  C   UNL     1      95.050 115.147  74.418  0.00  0.00    +0.000 C 
ATOM      3  O   UNL     1      94.586 114.987  73.299  0.00  0.00    +0.000 OA
ATOM      4  C   UNL     1      95.941 116.306  74.892  0.00  0.00    +0.000 C 
ATOM      5  C   UNL     1      95.230 117.653  74.696  0.00  0.00    +0.000 C 
ATOM      6  O   UNL     1      96.181 118.634  74.201  0.00  0.00    +0.000 OA
ATOM      7  C   UNL     1      97.222 117.886  73.717  0.00  0.00    +0.000 A 
ATOM      8  C   UNL     1      97.157 116.531  74.059  0.00  0.00    +0.000 A 
ATOM      9  C   UNL     1      98.149 115.644  73.664  0.00  0.00    +0.000 A 
ATOM     10  C   UNL     1      99.182 116.180  72.920  0.00  0.00    +0.000 A 
ATOM     11  O   UNL     1     100.249 115.487  72.438  0.00  0.00    +0.000 OA
ATOM     12  C   UNL     1     100.974 116.534  71.760  0.00  0.00    +0.000 C 
ATOM     13  O   UNL     1     100.347 117.829  71.862  0.00  0.00    +0.000 OA
ATOM     14  C   UNL     1      99.239 117.523  72.591  0.00  0.00    +0.000 A 
ATOM     15  C   UNL     1      98.265 118.419  72.982  0.00  0.00    +0.000 A 
ATOM     16  C   UNL     1      96.215 115.949  76.330  0.00  0.00    +0.000 A 
ATOM     17  C   UNL     1      96.975 116.612  77.282  0.00  0.00    +0.000 A 
ATOM     18  C   UNL     1      97.066 116.054  78.558  0.00  0.00    +0.000 A 
ATOM     19  C   UNL     1      96.402 114.854  78.865  0.00  0.00    +0.000 A 
ATOM     20  C   UNL     1      95.634 114.194  77.901  0.00  0.00    +0.000 A 
ATOM     21  C   UNL     1      95.554 114.759  76.642  0.00  0.00    +0.000 A 
ENDROOT
BRANCH   1  22
ATOM     22  C   UNL     1      94.073 113.089  75.461  0.00  0.00    +0.000 C 
BRANCH  22  26
ATOM     23  C   UNL     1      95.905 110.003  75.326  0.00  0.00    +0.000 A 
ATOM     24  C   UNL     1      96.207 110.403  74.038  0.00  0.00    +0.000 A 
ATOM     25  C   UNL     1      95.568 111.651  73.838  0.00  0.00    +0.000 A 
ATOM     26  C   UNL     1      94.916 111.947  75.017  0.00  0.00    +0.000 A 
ATOM     27  O   UNL     1      95.115 110.948  75.924  0.00  0.00    +0.000 OA
BRANCH  23  29
ATOM     28  F   UNL     1      95.177 108.007  76.347  0.00  0.00    +0.000 F 
ATOM     29  C   UNL     1      96.256 108.806  76.129  0.00  0.00    +0.000 C 
ATOM     30  F   UNL     1      96.748 109.136  77.351  0.00  0.00    +0.000 F 
ATOM     31  F   UNL     1      97.194 108.036  75.519  0.00  0.00    +0.000 F 
ENDBRANCH  23  29
ENDBRANCH  22  26
ENDBRANCH   1  22
TORSDOF 3
ENDMDL
