REMARK  Name = *****
REMARK  6 active torsions:
REMARK  status: ('A' for Active; 'I' for Inactive)
REMARK    1  A    between atoms: C_1  and  C_2
REMARK    2  A    between atoms: C_2  and  O_3
REMARK    3  A    between atoms: O_3  and  C_4
REMARK    4  A    between atoms: N_13  and  S_14
REMARK    5  A    between atoms: S_14  and  C_17
REMARK    6  A    between atoms: N_23  and  C_24
REMARK                            x       y       z     vdW  Elec       q    Type
REMARK                         _______ _______ _______ _____ _____    ______ ____
ROOT
ATOM      1  S   UNL     1       0.405   2.334   0.579  0.00  0.00    +0.000 S 
ATOM      2  O   UNL     1      -0.279   2.333  -0.692  0.00  0.00    +0.000 OA
ATOM      3  O   UNL     1      -0.233   1.879   1.797  0.00  0.00    +0.000 OA
ENDROOT
BRANCH   1   4
ATOM      4  C   UNL     1       0.927   4.019   0.841  0.00  0.00    +0.000 A 
ATOM      5  C   UNL     1       1.551   4.694  -0.213  0.00  0.00    +0.000 A 
ATOM      6  C   UNL     1       1.914   6.003   0.027  0.00  0.00    +0.000 A 
ATOM      7  C   UNL     1       1.680   6.649   1.242  0.00  0.00    +0.000 A 
ATOM      8  C   UNL     1       1.059   5.984   2.285  0.00  0.00    +0.000 A 
ATOM      9  C   UNL     1       0.676   4.652   2.078  0.00  0.00    +0.000 A 
ATOM     10  N   UNL     1       2.146   7.972   1.205  0.00  0.00    +0.000 N 
ATOM     11  C   UNL     1       2.045   8.903   2.297  0.00  0.00    +0.000 C 
ATOM     12  C   UNL     1       2.710   8.267  -0.027  0.00  0.00    +0.000 C 
ATOM     13  O   UNL     1       3.210   9.299  -0.420  0.00  0.00    +0.000 OA
ATOM     14  C   UNL     1       2.580   6.962  -0.855  0.00  0.00    +0.000 C 
ATOM     15  O   UNL     1       2.962   6.766  -1.985  0.00  0.00    +0.000 OA
ENDBRANCH   1   4
BRANCH   1  20
ATOM     16  C   UNL     1       1.928   0.088  -0.056  0.00  0.00    +0.000 C 
ATOM     17  C   UNL     1       2.965  -0.591   0.855  0.00  0.00    +0.000 C 
ATOM     18  C   UNL     1       3.851   0.547   1.309  0.00  0.00    +0.000 C 
ATOM     19  C   UNL     1       2.837   1.646   1.569  0.00  0.00    +0.000 C 
ATOM     20  N   UNL     1       1.879   1.518   0.443  0.00  0.00    +0.000 NA
BRANCH  16  21
ATOM     21  C   UNL     1       0.620  -0.721  -0.040  0.00  0.00    +0.000 C 
BRANCH  21  22
ATOM     22  O   UNL     1      -0.129  -0.424  -1.217  0.00  0.00    +0.000 OA
BRANCH  22  23
ATOM     23  C   UNL     1      -1.374  -0.976  -1.324  0.00  0.00    +0.000 A 
ATOM     24  C   UNL     1      -1.913  -1.959  -0.494  0.00  0.00    +0.000 A 
ATOM     25  C   UNL     1      -3.204  -2.444  -0.729  0.00  0.00    +0.000 A 
ATOM     26  C   UNL     1      -3.958  -1.951  -1.793  0.00  0.00    +0.000 A 
ATOM     27  C   UNL     1      -3.423  -0.970  -2.625  0.00  0.00    +0.000 A 
ATOM     28  C   UNL     1      -2.135  -0.488  -2.390  0.00  0.00    +0.000 A 
ENDBRANCH  22  23
ENDBRANCH  21  22
ENDBRANCH  16  21
ENDBRANCH   1  20
TORSDOF 5
