MODEL 1
REMARK VINA RESULT:      -5.4      0.000      0.000
REMARK  Name = *****
REMARK  6 active torsions:
REMARK  status: ('A' for Active; 'I' for Inactive)
REMARK    1  A    between atoms: C_1  and  C_2
REMARK    2  A    between atoms: C_3  and  C_4
REMARK    3  A    between atoms: C_4  and  C_5
REMARK    4  A    between atoms: C_5  and  C_6
REMARK    5  A    between atoms: C_9  and  C_10
REMARK    6  A    between atoms: C_11  and  C_13
REMARK                            x       y       z     vdW  Elec       q    Type
REMARK                         _______ _______ _______ _____ _____    ______ ____
ROOT
ATOM      1  C   UNL     1      98.241 127.393  82.495  0.00  0.00    +0.000 C 
ATOM      2  C   UNL     1      99.717 127.384  82.654  0.00  0.00    +0.000 A 
ATOM      3  C   UNL     1     100.575 128.300  83.247  0.00  0.00    +0.000 A 
ATOM      4  C   UNL     1     101.906 127.789  83.113  0.00  0.00    +0.000 A 
ATOM      5  C   UNL     1     103.181 128.424  83.556  0.00  0.00    +0.000 C 
ATOM      6  C   UNL     1     101.776 126.506  82.613  0.00  0.00    +0.000 A 
ATOM      7  N   UNL     1     100.472 126.314  82.246  0.00  0.00    +0.000 N 
ATOM      8  H   UNL     1     100.128 125.527  81.763  0.00  0.00    +0.000 HD
ENDROOT
BRANCH   6   9
ATOM      9  C   UNL     1     102.668 125.419  82.503  0.00  0.00    +0.000 C 
ATOM     10  C   UNL     1     103.539 125.346  81.484  0.00  0.00    +0.000 C 
ATOM     11  C   UNL     1     103.746 126.355  80.369  0.00  0.00    +0.000 C 
ATOM     12  O   UNL     1     103.195 127.426  80.185  0.00  0.00    +0.000 OA
ATOM     13  N   UNL     1     104.743 125.802  79.576  0.00  0.00    +0.000 N 
ATOM     14  C   UNL     1     105.177 124.580  80.078  0.00  0.00    +0.000 A 
ATOM     15  C   UNL     1     106.154 123.766  79.540  0.00  0.00    +0.000 A 
ATOM     16  C   UNL     1     106.437 122.574  80.211  0.00  0.00    +0.000 A 
ATOM     17  C   UNL     1     105.745 122.228  81.387  0.00  0.00    +0.000 A 
ATOM     18  C   UNL     1     104.756 123.068  81.913  0.00  0.00    +0.000 A 
ATOM     19  C   UNL     1     104.483 124.248  81.245  0.00  0.00    +0.000 A 
ATOM     20  H   UNL     1     105.098 126.223  78.760  0.00  0.00    +0.000 HD
ENDBRANCH   6   9
BRANCH   3  21
ATOM     21  C   UNL     1     100.158 129.538  83.984  0.00  0.00    +0.000 C 
BRANCH  21  22
ATOM     22  C   UNL     1      99.764 129.208  85.422  0.00  0.00    +0.000 C 
BRANCH  22  23
ATOM     23  C   UNL     1      98.315 129.512  85.682  0.00  0.00    +0.000 C 
ATOM     24  O   UNL     1      98.008 130.821  85.766  0.00  0.00    +0.000 OA
ATOM     25  O   UNL     1      97.465 128.640  85.806  0.00  0.00    +0.000 OA
ENDBRANCH  22  23
ENDBRANCH  21  22
ENDBRANCH   3  21
TORSDOF 4
ENDMDL
