MODEL 1
REMARK VINA RESULT:      -5.7      0.000      0.000
REMARK  Name = *****
REMARK  8 active torsions:
REMARK  status: ('A' for Active; 'I' for Inactive)
REMARK    1  A    between atoms: N_1  and  C_2
REMARK    2  A    between atoms: C_2  and  C_3
REMARK    3  A    between atoms: N_9  and  C_10
REMARK    4  A    between atoms: C_10  and  C_11
REMARK    5  A    between atoms: C_11  and  C_12
REMARK    6  A    between atoms: C_12  and  C_13
REMARK    7  A    between atoms: C_17  and  C_18
REMARK    8  A    between atoms: C_18  and  N_19
REMARK                            x       y       z     vdW  Elec       q    Type
REMARK                         _______ _______ _______ _____ _____    ______ ____
ROOT
ATOM      1  C   UNL     1      90.901  64.462  85.102  0.00  0.00    +0.000 A 
ATOM      2  C   UNL     1      91.114  65.817  85.414  0.00  0.00    +0.000 A 
ATOM      3  C   UNL     1      90.105  66.538  86.071  0.00  0.00    +0.000 A 
ATOM      4  C   UNL     1      88.912  65.908  86.402  0.00  0.00    +0.000 A 
ATOM      5  C   UNL     1      88.662  64.566  86.096  0.00  0.00    +0.000 A 
ATOM      6  C   UNL     1      89.679  63.859  85.442  0.00  0.00    +0.000 A 
ATOM      7  N   UNL     1      88.173  66.889  87.027  0.00  0.00    +0.000 N 
ATOM      8  C   UNL     1      88.931  68.042  87.064  0.00  0.00    +0.000 A 
ATOM      9  N   UNL     1      90.094  67.849  86.468  0.00  0.00    +0.000 NA
ENDROOT
BRANCH   1  10
ATOM     10  C   UNL     1      91.976  63.665  84.411  0.00  0.00    +0.000 C 
BRANCH  10  11
ATOM     11  N   UNL     1      92.117  62.338  84.999  0.00  0.00    +0.000 N 
ATOM     12  H   UNL     1      92.544  61.708  84.319  0.00  0.00    +0.000 HD
ATOM     13  H   UNL     1      91.198  61.982  85.261  0.00  0.00    +0.000 HD
ATOM     14  H   UNL     1      92.709  62.395  85.827  0.00  0.00    +0.000 HD
ENDBRANCH  10  11
ENDBRANCH   1  10
BRANCH   7  15
ATOM     15  C   UNL     1      86.825  66.710  87.538  0.00  0.00    +0.000 C 
BRANCH  15  16
ATOM     16  C   UNL     1      86.824  66.204  88.980  0.00  0.00    +0.000 C 
BRANCH  16  17
ATOM     17  C   UNL     1      86.504  64.712  89.045  0.00  0.00    +0.000 C 
BRANCH  17  18
ATOM     18  C   UNL     1      87.662  63.914  89.605  0.00  0.00    +0.000 C 
ATOM     19  F   UNL     1      87.496  63.680  90.924  0.00  0.00    +0.000 F 
ATOM     20  F   UNL     1      87.784  62.725  88.980  0.00  0.00    +0.000 F 
ATOM     21  F   UNL     1      88.822  64.586  89.448  0.00  0.00    +0.000 F 
ENDBRANCH  17  18
ENDBRANCH  16  17
ENDBRANCH  15  16
ENDBRANCH   7  15
BRANCH   8  22
ATOM     22  C   UNL     1      88.494  69.337  87.680  0.00  0.00    +0.000 C 
BRANCH  22  23
ATOM     23  N   UNL     1      87.759  70.117  86.714  0.00  0.00    +0.000 N 
ATOM     24  C   UNL     1      86.380  70.275  86.741  0.00  0.00    +0.000 C 
ATOM     25  O   UNL     1      85.575  69.777  87.513  0.00  0.00    +0.000 OA
ATOM     26  C   UNL     1      86.020  71.203  85.607  0.00  0.00    +0.000 C 
ATOM     27  C   UNL     1      84.920  72.222  85.755  0.00  0.00    +0.000 C 
ATOM     28  C   UNL     1      84.738  71.044  84.834  0.00  0.00    +0.000 C 
ATOM     29  C   UNL     1      87.327  71.531  84.956  0.00  0.00    +0.000 A 
ATOM     30  C   UNL     1      88.346  70.868  85.669  0.00  0.00    +0.000 A 
ATOM     31  C   UNL     1      89.681  70.986  85.331  0.00  0.00    +0.000 A 
ATOM     32  C   UNL     1      89.989  71.781  84.233  0.00  0.00    +0.000 A 
ATOM     33  F   UNL     1      91.270  71.918  83.863  0.00  0.00    +0.000 F 
ATOM     34  C   UNL     1      88.997  72.443  83.499  0.00  0.00    +0.000 A 
ATOM     35  C   UNL     1      87.653  72.323  83.862  0.00  0.00    +0.000 A 
ENDBRANCH  22  23
ENDBRANCH   8  22
TORSDOF 8
ENDMDL
