MODEL 1
REMARK VINA RESULT:      -5.0      0.000      0.000
REMARK  Name = *****
REMARK  1 active torsions:
REMARK  status: ('A' for Active; 'I' for Inactive)
REMARK    1  A    between atoms: C_8  and  C_10
REMARK                            x       y       z     vdW  Elec       q    Type
REMARK                         _______ _______ _______ _____ _____    ______ ____
ROOT
ATOM      1  N   UNL     1      89.973  64.924  86.177  0.00  0.00    +0.000 N 
ATOM      2  C   UNL     1      89.219  65.811  86.886  0.00  0.00    +0.000 C 
ATOM      3  O   UNL     1      88.747  65.442  87.958  0.00  0.00    +0.000 OA
ATOM      4  N   UNL     1      89.054  67.060  86.307  0.00  0.00    +0.000 N 
ATOM      5  C   UNL     1      89.684  67.515  85.140  0.00  0.00    +0.000 C 
ATOM      6  O   UNL     1      90.476  66.935  84.408  0.00  0.00    +0.000 OA
ATOM      7  C   UNL     1      89.219  68.926  84.931  0.00  0.00    +0.000 C 
ATOM      8  C   UNL     1      89.674  69.631  83.879  0.00  0.00    +0.000 C 
ATOM      9  O   UNL     1      90.539  69.135  82.922  0.00  0.00    +0.000 OA
ATOM     10  C   UNL     1      88.300  69.241  86.028  0.00  0.00    +0.000 A 
ATOM     11  C   UNL     1      88.237  68.092  86.836  0.00  0.00    +0.000 A 
ATOM     12  C   UNL     1      87.439  68.067  87.974  0.00  0.00    +0.000 A 
ATOM     13  C   UNL     1      86.697  69.207  88.299  0.00  0.00    +0.000 A 
ATOM     14  C   UNL     1      86.760  70.347  87.487  0.00  0.00    +0.000 A 
ATOM     15 CL   UNL     1      85.832  71.735  87.904  0.00  0.00    +0.000 Cl
ATOM     16  C   UNL     1      87.560  70.372  86.344  0.00  0.00    +0.000 A 
ATOM     17  H   UNL     1      90.130  64.018  86.531  0.00  0.00    +0.000 HD
ATOM     18  H   UNL     1      90.359  65.188  85.312  0.00  0.00    +0.000 HD
ENDROOT
BRANCH   8  19
ATOM     19  C   UNL     1      89.298  70.977  83.626  0.00  0.00    +0.000 A 
ATOM     20  C   UNL     1      89.882  72.143  84.091  0.00  0.00    +0.000 A 
ATOM     21  C   UNL     1      89.214  73.316  83.633  0.00  0.00    +0.000 A 
ATOM     22  C   UNL     1      88.125  73.014  82.848  0.00  0.00    +0.000 A 
ATOM     23  S   UNL     1      87.906  71.328  82.675  0.00  0.00    +0.000 S 
ENDBRANCH   8  19
TORSDOF 1
ENDMDL
