REMARK  Name = *****
REMARK  5 active torsions:
REMARK  status: ('A' for Active; 'I' for Inactive)
REMARK    1  A    between atoms: N_7  and  C_8
REMARK    2  A    between atoms: C_8  and  C_9
REMARK    3  A    between atoms: C_17  and  C_18
REMARK    4  A    between atoms: C_20  and  C_21
REMARK    5  A    between atoms: C_21  and  N_22
REMARK                            x       y       z     vdW  Elec       q    Type
REMARK                         _______ _______ _______ _____ _____    ______ ____
ROOT
ATOM      1  C   UNL     1      -0.719  -3.323  -0.306  0.00  0.00    +0.000 A 
ATOM      2  C   UNL     1      -1.801  -3.232  -1.203  0.00  0.00    +0.000 A 
ATOM      3  C   UNL     1      -2.856  -4.121  -1.068  0.00  0.00    +0.000 A 
ATOM      4  C   UNL     1      -2.826  -5.095  -0.067  0.00  0.00    +0.000 A 
ATOM      5  N   UNL     1      -3.974  -5.875  -0.110  0.00  0.00    +0.000 N 
ATOM      6  C   UNL     1      -4.824  -5.469  -1.124  0.00  0.00    +0.000 C 
ATOM      7  O   UNL     1      -5.898  -5.971  -1.399  0.00  0.00    +0.000 OA
ATOM      8  C   UNL     1      -4.132  -4.303  -1.790  0.00  0.00    +0.000 C 
ATOM      9  C   UNL     1      -4.516  -3.519  -2.811  0.00  0.00    +0.000 C 
ATOM     10  C   UNL     1      -1.778  -5.222   0.820  0.00  0.00    +0.000 A 
ATOM     11  C   UNL     1      -0.716  -4.324   0.694  0.00  0.00    +0.000 A 
ATOM     12  H   UNL     1      -4.159  -6.622   0.504  0.00  0.00    +0.000 HD
ENDROOT
BRANCH   9  13
ATOM     13  C   UNL     1      -5.719  -3.545  -3.568  0.00  0.00    +0.000 A 
ATOM     14  C   UNL     1      -6.150  -2.714  -4.589  0.00  0.00    +0.000 A 
ATOM     15  C   UNL     1      -7.446  -3.131  -5.010  0.00  0.00    +0.000 A 
ATOM     16  C   UNL     1      -7.763  -4.225  -4.230  0.00  0.00    +0.000 A 
ATOM     17  N   UNL     1      -6.717  -4.469  -3.376  0.00  0.00    +0.000 N 
ATOM     18  H   UNL     1      -6.686  -5.202  -2.720  0.00  0.00    +0.000 HD
BRANCH  15  19
ATOM     19  C   UNL     1      -8.301  -2.493  -6.062  0.00  0.00    +0.000 C 
BRANCH  19  20
ATOM     20  N   UNL     1      -7.668  -2.605  -7.385  0.00  0.00    +0.000 N 
ATOM     21  C   UNL     1      -8.367  -1.761  -8.379  0.00  0.00    +0.000 C 
ATOM     22  C   UNL     1      -9.732  -2.315  -8.822  0.00  0.00    +0.000 C 
ATOM     23  O   UNL     1      -9.616  -3.650  -9.329  0.00  0.00    +0.000 OA
ATOM     24  C   UNL     1      -9.022  -4.516  -8.353  0.00  0.00    +0.000 C 
ATOM     25  C   UNL     1      -7.648  -3.994  -7.900  0.00  0.00    +0.000 C 
ATOM     26  H   UNL     1      -6.706  -2.290  -7.254  0.00  0.00    +0.000 HD
ENDBRANCH  19  20
ENDBRANCH  15  19
ENDBRANCH   9  13
BRANCH   1  27
ATOM     27  C   UNL     1       0.457  -2.377  -0.434  0.00  0.00    +0.000 C 
BRANCH  27  34
ATOM     28  O   UNL     1       0.705  -2.149  -3.254  0.00  0.00    +0.000 OA
ATOM     29  C   UNL     1       1.530  -2.787  -2.610  0.00  0.00    +0.000 C 
ATOM     30  C   UNL     1       2.698  -3.490  -3.248  0.00  0.00    +0.000 C 
ATOM     31  S   UNL     1       3.628  -4.245  -1.902  0.00  0.00    +0.000 S 
ATOM     32  C   UNL     1       2.520  -3.670  -0.680  0.00  0.00    +0.000 C 
ATOM     33  O   UNL     1       2.678  -3.907   0.506  0.00  0.00    +0.000 OA
ATOM     34  N   UNL     1       1.513  -2.945  -1.246  0.00  0.00    +0.000 N 
ENDBRANCH  27  34
ENDBRANCH   1  27
TORSDOF 5
