REMARK  Name = *****
REMARK  3 active torsions:
REMARK  status: ('A' for Active; 'I' for Inactive)
REMARK    1  A    between atoms: C_1  and  C_2
REMARK    2  A    between atoms: C_2  and  C_27
REMARK    3  A    between atoms: C_3  and  C_4
REMARK                            x       y       z     vdW  Elec       q    Type
REMARK                         _______ _______ _______ _____ _____    ______ ____
ROOT
ATOM      1  C   UNK A   1       1.637   2.690  -4.843  0.00  0.00    +0.000 C 
ATOM      2  N   UNK A   1       2.672   3.639  -5.306  0.00  0.00    +0.000 N 
ATOM      3  C   PRO A   2       3.334   4.555  -4.503  0.00  0.00    +0.000 C 
ATOM      4  O   PRO A   2       3.081   4.733  -3.314  0.00  0.00    +0.000 OA
ATOM      5  CA  PRO A   2       4.582   5.136  -5.175  0.00  0.00    +0.000 C 
ATOM      6  CB  PRO A   2       4.974   6.532  -4.713  0.00  0.00    +0.000 C 
ATOM      7  CG  PRO A   2       5.836   7.030  -5.874  0.00  0.00    +0.000 C 
ATOM      8  CD  PRO A   2       5.171   6.434  -7.112  0.00  0.00    +0.000 C 
ATOM      9  N   PRO A   2       4.429   5.298  -6.612  0.00  0.00    +0.000 N 
ATOM     10  C   UNK A   1       3.888   4.315  -7.402  0.00  0.00    +0.000 C 
ATOM     11  O   UNK A   1       4.017   4.240  -8.616  0.00  0.00    +0.000 OA
ATOM     12  C   UNK A   1       2.987   3.406  -6.630  0.00  0.00    +0.000 C 
ATOM     13  C   UNK A   1       2.340   2.345  -7.121  0.00  0.00    +0.000 C 
ATOM     14  C   UNK A   1       1.469   1.723  -6.058  0.00  0.00    +0.000 C 
ATOM     15  C   UNK A   1       2.019   0.330  -5.646  0.00  0.00    +0.000 C 
ATOM     16  O   UNK A   1       3.129   0.065  -5.212  0.00  0.00    +0.000 OA
ATOM     17  N   UNK A   1       1.007  -0.598  -5.863  0.00  0.00    +0.000 N 
ATOM     18  C   UNK A   1      -0.123   0.000  -6.396  0.00  0.00    +0.000 A 
ATOM     19  C   UNK A   1      -1.296  -0.623  -6.767  0.00  0.00    +0.000 A 
ATOM     20  C   UNK A   1      -2.296   0.174  -7.327  0.00  0.00    +0.000 A 
ATOM     21  C   UNK A   1      -2.097   1.555  -7.507  0.00  0.00    +0.000 A 
ATOM     22  C   UNK A   1      -0.898   2.162  -7.123  0.00  0.00    +0.000 A 
ATOM     23  C   UNK A   1       0.086   1.371  -6.549  0.00  0.00    +0.000 A 
ATOM     24  H   UNK A   1       1.084  -1.559  -5.664  0.00  0.00    +0.000 HD
ENDROOT
BRANCH   1  27
ATOM     25  C   UNK A   1      -0.346   2.036  -2.528  0.00  0.00    +0.000 C 
ATOM     26  C   UNK A   1      -0.446   3.220  -3.450  0.00  0.00    +0.000 C 
ATOM     27  C   UNK A   1       0.406   3.486  -4.460  0.00  0.00    +0.000 C 
ATOM     28  C   UNK A   1      -1.612   4.130  -3.167  0.00  0.00    +0.000 C 
ENDBRANCH   1  27
TORSDOF 1
