REMARK  Name = *****
REMARK  8 active torsions:
REMARK  status: ('A' for Active; 'I' for Inactive)
REMARK    1  A    between atoms: C_1  and  C_2
REMARK    2  A    between atoms: C_2  and  C_3
REMARK    3  A    between atoms: C_2  and  C_4
REMARK    4  A    between atoms: C_2  and  C_6
REMARK    5  A    between atoms: C_6  and  C_7
REMARK    6  A    between atoms: C_7  and  C_8
REMARK    7  A    between atoms: C_26  and  C_27
REMARK    8  A    between atoms: C_26  and  C_28
REMARK                            x       y       z     vdW  Elec       q    Type
REMARK                         _______ _______ _______ _____ _____    ______ ____
ROOT
ATOM      1  C   UNK A   1       3.434  -0.140  -1.149  0.00  0.00    +0.000 C 
ATOM      2  C   UNK A   1       3.685  -1.659  -1.528  0.00  0.00    +0.000 C 
ATOM      3  O   UNK A   1       2.849  -2.519  -1.758  0.00  0.00    +0.000 OA
ATOM      4  N   UNK A   1       5.044  -1.860  -1.662  0.00  0.00    +0.000 N 
ATOM      5  C   UNK A   1       5.771  -0.723  -1.355  0.00  0.00    +0.000 A 
ATOM      6  C   UNK A   1       7.159  -0.593  -1.357  0.00  0.00    +0.000 A 
ATOM      7  C   UNK A   1       8.068  -1.668  -1.721  0.00  0.00    +0.000 C 
ATOM      8  C   UNK A   1       9.376  -1.398  -1.752  0.00  0.00    +0.000 C 
ATOM      9  C   UNK A   1       9.953  -0.040  -1.423  0.00  0.00    +0.000 C 
ATOM     10  C   UNK A   1      10.586   0.565  -2.681  0.00  0.00    +0.000 C 
ATOM     11  C   UNK A   1      11.020  -0.197  -0.332  0.00  0.00    +0.000 C 
ATOM     12  O   UNK A   1       9.012   0.931  -0.922  0.00  0.00    +0.000 OA
ATOM     13  C   UNK A   1       7.677   0.646  -0.977  0.00  0.00    +0.000 A 
ATOM     14  C   UNK A   1       6.823   1.689  -0.594  0.00  0.00    +0.000 A 
ATOM     15  C   UNK A   1       5.433   1.527  -0.607  0.00  0.00    +0.000 A 
ATOM     16  C   UNK A   1       4.895   0.317  -1.011  0.00  0.00    +0.000 A 
ATOM     17  H   UNK A   1       5.448  -2.713  -1.942  0.00  0.00    +0.000 HD
ENDROOT
BRANCH   1  19
ATOM     18  C   UNK A   1       1.098  -0.553  -0.084  0.00  0.00    +0.000 C 
ATOM     19  C   UNK A   1       2.563  -0.113   0.187  0.00  0.00    +0.000 C 
ATOM     20  C   UNK A   1       2.462   1.287   0.838  0.00  0.00    +0.000 C 
BRANCH  19  21
ATOM     21  C   UNK A   1       3.225  -0.985   1.273  0.00  0.00    +0.000 C 
ATOM     22  C   UNK A   1       2.766  -2.126   1.806  0.00  0.00    +0.000 C 
ENDBRANCH  19  21
ENDBRANCH   1  19
BRANCH   1  23
ATOM     23  C   UNK A   1       2.785   0.397  -2.476  0.00  0.00    +0.000 C 
BRANCH  23  24
ATOM     24  C   UNK A   1       2.084   1.765  -2.594  0.00  0.00    +0.000 C 
ATOM     25  N   UNK A   1       1.293   1.754  -3.847  0.00  0.00    +0.000 N 
ATOM     26  C   PRO A   2       1.914   1.953  -5.069  0.00  0.00    +0.000 C 
ATOM     27  O   PRO A   2       1.460   1.463  -6.097  0.00  0.00    +0.000 OA
ATOM     28  CA  PRO A   2       2.955   3.068  -5.031  0.00  0.00    +0.000 C 
ATOM     29  CB  PRO A   2       4.029   3.037  -6.101  0.00  0.00    +0.000 C 
ATOM     30  CG  PRO A   2       5.093   3.972  -5.514  0.00  0.00    +0.000 C 
ATOM     31  CD  PRO A   2       4.966   3.812  -3.996  0.00  0.00    +0.000 C 
ATOM     32  N   PRO A   2       3.733   3.078  -3.809  0.00  0.00    +0.000 N 
ATOM     33  C   UNK A   1       3.077   2.953  -2.600  0.00  0.00    +0.000 C 
ATOM     34  O   UNK A   1       3.401   3.561  -1.587  0.00  0.00    +0.000 OA
ATOM     35  H   UNK A   1       0.321   1.603  -3.811  0.00  0.00    +0.000 HD
ENDBRANCH  23  24
ENDBRANCH   1  23
TORSDOF 4
