REMARK  Name = *****
REMARK  9 active torsions:
REMARK  status: ('A' for Active; 'I' for Inactive)
REMARK    1  A    between atoms: C_1  and  C_2
REMARK    2  A    between atoms: C_2  and  C_3
REMARK    3  A    between atoms: C_11  and  C_12
REMARK    4  A    between atoms: C_12  and  C_16
REMARK    5  A    between atoms: C_13  and  O_14
REMARK    6  A    between atoms: O_14  and  C_15
REMARK    7  A    between atoms: C_16  and  O_18
REMARK    8  A    between atoms: O_18  and  C_19
REMARK    9  A    between atoms: C_27  and  O_28
REMARK                            x       y       z     vdW  Elec       q    Type
REMARK                         _______ _______ _______ _____ _____    ______ ____
ROOT
ATOM      1  C   UNL     1       2.772   0.705   0.307  0.00  0.00    +0.000 C 
ATOM      2  C   UNL     1       2.729  -0.773  -0.135  0.00  0.00    +0.000 C 
ATOM      3  N   UNL     1       3.331  -1.069  -1.423  0.00  0.00    +0.000 N 
ATOM      4  C   UNL     1       2.531  -0.759  -2.599  0.00  0.00    +0.000 C 
ATOM      5  C   UNL     1       3.489  -1.116  -3.730  0.00  0.00    +0.000 C 
ATOM      6  C   UNL     1       4.881  -0.755  -3.183  0.00  0.00    +0.000 C 
ATOM      7  C   UNL     1       4.666  -0.495  -1.665  0.00  0.00    +0.000 C 
ATOM      8  C   UNL     1       4.757   0.978  -1.230  0.00  0.00    +0.000 C 
ATOM      9  C   UNL     1       4.243   1.196   0.207  0.00  0.00    +0.000 C 
ATOM     10  C   UNL     1       5.455   0.454  -3.977  0.00  0.00    +0.000 C 
ATOM     11  O   UNL     1       4.924   1.534  -4.188  0.00  0.00    +0.000 OA
ATOM     12  N   UNL     1       6.701   0.092  -4.467  0.00  0.00    +0.000 N 
ATOM     13  C   UNL     1       6.988  -1.230  -4.186  0.00  0.00    +0.000 A 
ATOM     14  C   UNL     1       8.114  -1.929  -4.573  0.00  0.00    +0.000 A 
ATOM     15  C   UNL     1       8.197  -3.271  -4.199  0.00  0.00    +0.000 A 
ATOM     16  C   UNL     1       7.163  -3.872  -3.460  0.00  0.00    +0.000 A 
ATOM     17  C   UNL     1       6.038  -3.132  -3.087  0.00  0.00    +0.000 A 
ATOM     18  C   UNL     1       5.949  -1.803  -3.453  0.00  0.00    +0.000 A 
ATOM     19  H   UNL     1       3.403  -2.081  -1.317  0.00  0.00    +0.000 HD
ATOM     20  H   UNL     1       7.303   0.700  -4.953  0.00  0.00    +0.000 HD
ENDROOT
BRANCH   1  22
ATOM     21  C   UNL     1       1.533   2.159   2.039  0.00  0.00    +0.000 C 
ATOM     22  C   UNL     1       2.170   0.811   1.728  0.00  0.00    +0.000 C 
ENDBRANCH   1  22
BRANCH   9  23
ATOM     23  C   UNL     1       4.521   2.615   0.670  0.00  0.00    +0.000 C 
ATOM     24  C   UNL     1       5.241   2.904   1.769  0.00  0.00    +0.000 C 
BRANCH  24  25
ATOM     25  O   UNL     1       5.751   1.943   2.605  0.00  0.00    +0.000 OA
ATOM     26  C   UNL     1       6.701   2.471   3.526  0.00  0.00    +0.000 C 
ENDBRANCH  24  25
BRANCH  23  27
ATOM     27  C   UNL     1       4.071   3.809  -0.099  0.00  0.00    +0.000 C 
ATOM     28  O   UNL     1       4.601   4.909  -0.027  0.00  0.00    +0.000 OA
BRANCH  27  29
ATOM     29  O   UNL     1       2.990   3.511  -0.857  0.00  0.00    +0.000 OA
ATOM     30  C   UNL     1       2.520   4.593  -1.659  0.00  0.00    +0.000 C 
ENDBRANCH  27  29
ENDBRANCH  23  27
ENDBRANCH   9  23
BRANCH  17  31
ATOM     31  O   UNL     1       5.032  -3.702  -2.374  0.00  0.00    +0.000 OA
ATOM     32  H   UNL     1       5.088  -4.603  -2.123  0.00  0.00    +0.000 HD
ENDBRANCH  17  31
TORSDOF 6
