REMARK  Name = *****
REMARK  3 active torsions:
REMARK  status: ('A' for Active; 'I' for Inactive)
REMARK    1  A    between atoms: O_1  and  C_2
REMARK    2  A    between atoms: C_2  and  C_3
REMARK    3  A    between atoms: C_3  and  C_13
REMARK                            x       y       z     vdW  Elec       q    Type
REMARK                         _______ _______ _______ _____ _____    ______ ____
ROOT
ATOM      1  C   UNL     1       2.850   0.261  -1.463  0.00  0.00    +0.000 C 
ATOM      2  N   UNL     1       3.514   1.512  -1.963  0.00  0.00    +0.000 N 
ATOM      3  C   UNL     1       4.887   1.262  -2.001  0.00  0.00    +0.000 A 
ATOM      4  C   UNL     1       5.873   2.178  -2.313  0.00  0.00    +0.000 A 
ATOM      5  C   UNL     1       7.200   1.734  -2.403  0.00  0.00    +0.000 A 
ATOM      6  C   UNL     1       7.524   0.380  -2.203  0.00  0.00    +0.000 A 
ATOM      7  C   UNL     1       6.525  -0.548  -1.914  0.00  0.00    +0.000 A 
ATOM      8  C   UNL     1       5.229  -0.073  -1.834  0.00  0.00    +0.000 A 
ATOM      9  C   UNL     1       3.995  -0.774  -1.515  0.00  0.00    +0.000 C 
ATOM     10  O   UNL     1       3.964  -1.963  -1.248  0.00  0.00    +0.000 OA
ATOM     11  H   UNL     1       3.065   2.351  -2.217  0.00  0.00    +0.000 HD
ENDROOT
BRANCH   1  12
ATOM     12  C   UNL     1       1.678  -0.113  -2.396  0.00  0.00    +0.000 C 
ATOM     13  C   UNL     1       0.691   1.074  -2.572  0.00  0.00    +0.000 C 
ATOM     14  O   UNL     1       0.917   2.190  -3.013  0.00  0.00    +0.000 OA
ATOM     15  N   UNL     1      -0.568   0.640  -2.182  0.00  0.00    +0.000 N 
ATOM     16  C   UNL     1      -0.556  -0.691  -1.815  0.00  0.00    +0.000 A 
ATOM     17  C   UNL     1      -1.640  -1.447  -1.417  0.00  0.00    +0.000 A 
ATOM     18  C   UNL     1      -1.412  -2.794  -1.139  0.00  0.00    +0.000 A 
ATOM     19  C   UNL     1      -0.127  -3.343  -1.280  0.00  0.00    +0.000 A 
ATOM     20  C   UNL     1       0.954  -2.552  -1.689  0.00  0.00    +0.000 A 
ATOM     21  C   UNL     1       0.734  -1.208  -1.935  0.00  0.00    +0.000 A 
ATOM     22  H   UNL     1      -1.371   1.210  -2.168  0.00  0.00    +0.000 HD
ENDBRANCH   1  12
BRANCH   1  23
ATOM     23  C   UNL     1       2.467   0.440   0.026  0.00  0.00    +0.000 C 
BRANCH  23  24
ATOM     24  O   UNL     1       1.596   1.555   0.215  0.00  0.00    +0.000 OA
ATOM     25  H   UNL     1       1.377   1.638   1.156  0.00  0.00    +0.000 HD
ENDBRANCH  23  24
ENDBRANCH   1  23
TORSDOF 3
