REMARK  Name = *****
REMARK  0 active torsions:
REMARK  status: ('A' for Active; 'I' for Inactive)
REMARK                            x       y       z     vdW  Elec       q    Type
REMARK                         _______ _______ _______ _____ _____    ______ ____
ROOT
ATOM      1  O   UNL     1       0.052   2.683  -0.380  0.00  0.00    +0.000 OA
ATOM      2  C   UNL     1      -0.767   1.818  -0.144  0.00  0.00    +0.000 C 
ATOM      3  N   UNL     1      -2.110   2.070   0.028  0.00  0.00    +0.000 N 
ATOM      4  C   UNL     1      -2.842   0.899   0.071  0.00  0.00    +0.000 A 
ATOM      5  C   UNL     1      -4.225   0.832   0.119  0.00  0.00    +0.000 A 
ATOM      6  C   UNL     1      -4.809  -0.427   0.056  0.00  0.00    +0.000 A 
ATOM      7  C   UNL     1      -4.004  -1.564  -0.079  0.00  0.00    +0.000 A 
ATOM      8  C   UNL     1      -2.603  -1.460  -0.131  0.00  0.00    +0.000 A 
ATOM      9  C   UNL     1      -1.999  -0.218  -0.017  0.00  0.00    +0.000 A 
ATOM     10  C   UNL     1      -0.601   0.310  -0.042  0.00  0.00    +0.000 C 
ATOM     11  C   UNL     1       0.600  -0.310   0.043  0.00  0.00    +0.000 C 
ATOM     12  C   UNL     1       0.766  -1.818   0.146  0.00  0.00    +0.000 C 
ATOM     13  O   UNL     1      -0.052  -2.682   0.385  0.00  0.00    +0.000 OA
ATOM     14  N   UNL     1       2.110  -2.071  -0.025  0.00  0.00    +0.000 N 
ATOM     15  C   UNL     1       2.842  -0.899  -0.070  0.00  0.00    +0.000 A 
ATOM     16  C   UNL     1       4.224  -0.834  -0.119  0.00  0.00    +0.000 A 
ATOM     17  C   UNL     1       4.809   0.426  -0.057  0.00  0.00    +0.000 A 
ATOM     18  C   UNL     1       4.004   1.563   0.077  0.00  0.00    +0.000 A 
ATOM     19  C   UNL     1       2.604   1.459   0.130  0.00  0.00    +0.000 A 
ATOM     20  C   UNL     1       1.999   0.218   0.017  0.00  0.00    +0.000 A 
ATOM     21  H   UNL     1      -2.500   2.971   0.109  0.00  0.00    +0.000 HD
ATOM     22  H   UNL     1       2.499  -2.971  -0.106  0.00  0.00    +0.000 HD
ENDROOT
TORSDOF 0
