REMARK  Name = *****
REMARK  6 active torsions:
REMARK  status: ('A' for Active; 'I' for Inactive)
REMARK    1  A    between atoms: C_8  and  C_9
REMARK    2  A    between atoms: C_9  and  C_10
REMARK    3  A    between atoms: C_10  and  C_11
REMARK    4  A    between atoms: C_11  and  C_12
REMARK    5  A    between atoms: C_12  and  C_13
REMARK    6  A    between atoms: C_13  and  C_14
REMARK                            x       y       z     vdW  Elec       q    Type
REMARK                         _______ _______ _______ _____ _____    ______ ____
ROOT
ATOM      1  O   UNL     1      -1.111  -1.064   4.221  0.00  0.00    +0.000 OA
ATOM      2  C   UNL     1      -1.244  -0.791   3.050  0.00  0.00    +0.000 C 
ATOM      3  N   UNL     1      -1.464  -1.651   1.995  0.00  0.00    +0.000 N 
ATOM      4  C   UNL     1      -1.562  -0.954   0.795  0.00  0.00    +0.000 A 
ATOM      5  C   UNL     1      -1.775  -1.499  -0.453  0.00  0.00    +0.000 A 
ATOM      6  C   UNL     1      -1.834  -0.618  -1.536  0.00  0.00    +0.000 A 
ATOM      7  C   UNL     1      -1.685   0.772  -1.352  0.00  0.00    +0.000 A 
ATOM      8  C   UNL     1      -1.476   1.323  -0.076  0.00  0.00    +0.000 A 
ATOM      9  C   UNL     1      -1.414   0.422   0.979  0.00  0.00    +0.000 A 
ATOM     10  C   UNL     1      -1.198   0.627   2.420  0.00  0.00    +0.000 C 
ATOM     11  O   UNL     1      -1.018   1.670   3.006  0.00  0.00    +0.000 OA
ATOM     12  H   UNL     1      -1.542  -2.629   2.080  0.00  0.00    +0.000 HD
ENDROOT
BRANCH   8  13
ATOM     13  C   UNL     1      -1.301   2.806   0.104  0.00  0.00    +0.000 C 
BRANCH  13  14
ATOM     14  C   UNL     1       0.176   3.207   0.120  0.00  0.00    +0.000 C 
BRANCH  14  15
ATOM     15  C   UNL     1       0.338   4.714   0.324  0.00  0.00    +0.000 C 
BRANCH  15  16
ATOM     16  C   UNL     1       1.813   5.120   0.322  0.00  0.00    +0.000 C 
BRANCH  16  17
ATOM     17  C   UNL     1       1.973   6.627   0.533  0.00  0.00    +0.000 C 
BRANCH  17  18
ATOM     18  C   UNL     1       3.423   7.041   0.512  0.00  0.00    +0.000 A 
ATOM     19  C   UNL     1       4.038   7.418  -0.690  0.00  0.00    +0.000 A 
ATOM     20  C   UNL     1       5.384   7.784  -0.711  0.00  0.00    +0.000 A 
ATOM     21  C   UNL     1       6.130   7.774   0.466  0.00  0.00    +0.000 A 
ATOM     22  C   UNL     1       5.530   7.394   1.665  0.00  0.00    +0.000 A 
ATOM     23  C   UNL     1       4.184   7.027   1.689  0.00  0.00    +0.000 A 
ENDBRANCH  17  18
ENDBRANCH  16  17
ENDBRANCH  15  16
ENDBRANCH  14  15
ENDBRANCH  13  14
ENDBRANCH   8  13
TORSDOF 6
