REMARK  Name = *****
REMARK  4 active torsions:
REMARK  status: ('A' for Active; 'I' for Inactive)
REMARK    1  A    between atoms: C_1  and  C_2
REMARK    2  A    between atoms: C_2  and  C_3
REMARK    3  A    between atoms: C_6  and  C_7
REMARK    4  A    between atoms: C_9  and  C_10
REMARK                            x       y       z     vdW  Elec       q    Type
REMARK                         _______ _______ _______ _____ _____    ______ ____
ROOT
ATOM      1  C   UNL     1       2.915  -0.271   1.320  0.00  0.00    +0.000 A 
ATOM      2  C   UNL     1       2.984  -1.530   1.889  0.00  0.00    +0.000 A 
ATOM      3  C   UNL     1       3.430  -1.604   3.200  0.00  0.00    +0.000 A 
ATOM      4  C   UNL     1       3.515  -2.937   3.914  0.00  0.00    +0.000 C 
ATOM      5  C   UNL     1       2.137  -3.445   4.329  0.00  0.00    +0.000 C 
ATOM      6  C   UNL     1       4.397  -2.603   5.151  0.00  0.00    +0.000 C 
ATOM      7  C   UNL     1       4.296  -1.070   5.397  0.00  0.00    +0.000 C 
ATOM      8  C   UNL     1       5.615  -0.493   5.884  0.00  0.00    +0.000 C 
ATOM      9  C   UNL     1       3.861  -0.564   4.055  0.00  0.00    +0.000 A 
ATOM     10  C   UNL     1       3.742   0.688   3.487  0.00  0.00    +0.000 A 
ATOM     11  N   UNL     1       4.006   1.918   4.024  0.00  0.00    +0.000 N 
ATOM     12  C   UNL     1       3.753   2.922   3.117  0.00  0.00    +0.000 C 
ATOM     13  O   UNL     1       3.879   4.117   3.278  0.00  0.00    +0.000 OA
ATOM     14  C   UNL     1       3.257   2.202   1.818  0.00  0.00    +0.000 C 
ATOM     15  O   UNL     1       2.940   2.816   0.812  0.00  0.00    +0.000 OA
ATOM     16  C   UNL     1       3.286   0.783   2.160  0.00  0.00    +0.000 A 
ATOM     17  H   UNL     1       4.335   2.066   4.940  0.00  0.00    +0.000 HD
ENDROOT
BRANCH   1  19
ATOM     18  C   UNL     1       0.931   0.201  -0.137  0.00  0.00    +0.000 C 
ATOM     19  C   UNL     1       2.426  -0.081  -0.088  0.00  0.00    +0.000 C 
ENDBRANCH   1  19
TORSDOF 1
