REMARK  Name = *****
REMARK  1 active torsions:
REMARK  status: ('A' for Active; 'I' for Inactive)
REMARK    1  A    between atoms: C_1  and  C_2
REMARK                            x       y       z     vdW  Elec       q    Type
REMARK                         _______ _______ _______ _____ _____    ______ ____
ROOT
ATOM      1  C   UNL     1       0.665  -0.716  -0.310  0.00  0.00    +0.000 C 
ATOM      2  C   UNL     1       2.147  -0.394  -0.141  0.00  0.00    +0.000 C 
ATOM      3  N   UNL     1       2.324   0.739   0.796  0.00  0.00    +0.000 N 
ATOM      4  C   UNL     1       3.635   1.159   1.013  0.00  0.00    +0.000 C 
ATOM      5  O   UNL     1       3.914   2.252   1.481  0.00  0.00    +0.000 OA
ATOM      6  C   UNL     1       4.632   0.172   0.389  0.00  0.00    +0.000 C 
ATOM      7  C   UNL     1       4.421   0.226  -1.135  0.00  0.00    +0.000 C 
ATOM      8  C   UNL     1       2.938  -0.130  -1.465  0.00  0.00    +0.000 C 
ATOM      9  C   UNL     1       2.281   1.055  -2.225  0.00  0.00    +0.000 C 
ATOM     10  O   UNL     1       2.097   2.185  -1.806  0.00  0.00    +0.000 OA
ATOM     11  N   UNL     1       1.925   0.610  -3.487  0.00  0.00    +0.000 N 
ATOM     12  C   UNL     1       2.249  -0.722  -3.667  0.00  0.00    +0.000 A 
ATOM     13  C   UNL     1       2.033  -1.480  -4.798  0.00  0.00    +0.000 A 
ATOM     14  C   UNL     1       2.449  -2.811  -4.765  0.00  0.00    +0.000 A 
ATOM     15  C   UNL     1       3.066  -3.339  -3.618  0.00  0.00    +0.000 A 
ATOM     16  C   UNL     1       3.275  -2.547  -2.484  0.00  0.00    +0.000 A 
ATOM     17  C   UNL     1       2.851  -1.228  -2.515  0.00  0.00    +0.000 A 
ATOM     18  N   UNL     1       4.227  -1.152   0.872  0.00  0.00    +0.000 N 
ATOM     19  C   UNL     1       5.102  -1.980   1.542  0.00  0.00    +0.000 A 
ATOM     20  O   UNL     1       6.274  -1.702   1.769  0.00  0.00    +0.000 OA
ATOM     21  C   UNL     1       4.539  -3.281   1.956  0.00  0.00    +0.000 A 
ATOM     22  C   UNL     1       5.325  -4.215   2.642  0.00  0.00    +0.000 A 
ATOM     23  C   UNL     1       4.772  -5.441   3.007  0.00  0.00    +0.000 A 
ATOM     24  C   UNL     1       3.444  -5.728   2.688  0.00  0.00    +0.000 A 
ATOM     25  C   UNL     1       2.668  -4.789   2.004  0.00  0.00    +0.000 A 
ATOM     26  C   UNL     1       3.207  -3.556   1.630  0.00  0.00    +0.000 A 
ATOM     27  N   UNL     1       2.389  -2.646   0.940  0.00  0.00    +0.000 NA
ATOM     28  C   UNL     1       2.908  -1.512   0.606  0.00  0.00    +0.000 A 
ATOM     29  H   UNL     1       1.559   1.170   1.241  0.00  0.00    +0.000 HD
ATOM     30  H   UNL     1       1.495   1.172  -4.171  0.00  0.00    +0.000 HD
ENDROOT
TORSDOF 0
