REMARK  Name = *****
REMARK  8 active torsions:
REMARK  status: ('A' for Active; 'I' for Inactive)
REMARK    1  A    between atoms: C_1  and  C_2
REMARK    2  A    between atoms: C_2  and  C_3
REMARK    3  A    between atoms: C_2  and  C_4
REMARK    4  A    between atoms: C_2  and  C_6
REMARK    5  A    between atoms: C_6  and  C_7
REMARK    6  A    between atoms: C_7  and  C_8
REMARK    7  A    between atoms: C_26  and  C_27
REMARK    8  A    between atoms: C_26  and  C_28
REMARK                            x       y       z     vdW  Elec       q    Type
REMARK                         _______ _______ _______ _____ _____    ______ ____
ROOT
ATOM      1  C   UNK A   1       2.702  -0.046   1.427  0.00  0.00    +0.000 C 
ATOM      2  C   UNK A   1       2.585  -1.473   2.104  0.00  0.00    +0.000 C 
ATOM      3  O   UNK A   1       3.228  -2.479   1.843  0.00  0.00    +0.000 OA
ATOM      4  N   UNK A   1       1.679  -1.394   3.142  0.00  0.00    +0.000 N 
ATOM      5  C   UNK A   1       1.100  -0.140   3.234  0.00  0.00    +0.000 A 
ATOM      6  C   UNK A   1       0.128   0.268   4.145  0.00  0.00    +0.000 A 
ATOM      7  C   UNK A   1      -0.414  -0.596   5.182  0.00  0.00    +0.000 C 
ATOM      8  C   UNK A   1      -1.309  -0.075   6.026  0.00  0.00    +0.000 C 
ATOM      9  C   UNK A   1      -1.788   1.357   5.953  0.00  0.00    +0.000 C 
ATOM     10  C   UNK A   1      -1.368   2.100   7.227  0.00  0.00    +0.000 C 
ATOM     11  C   UNK A   1      -3.316   1.372   5.827  0.00  0.00    +0.000 C 
ATOM     12  O   UNK A   1      -1.287   2.128   4.842  0.00  0.00    +0.000 OA
ATOM     13  C   UNK A   1      -0.336   1.578   4.029  0.00  0.00    +0.000 A 
ATOM     14  C   UNK A   1       0.154   2.422   3.023  0.00  0.00    +0.000 A 
ATOM     15  C   UNK A   1       1.132   1.983   2.124  0.00  0.00    +0.000 A 
ATOM     16  C   UNK A   1       1.627   0.696   2.238  0.00  0.00    +0.000 A 
ATOM     17  H   UNK A   1       1.469  -2.142   3.746  0.00  0.00    +0.000 HD
ENDROOT
BRANCH   1  19
ATOM     18  C   UNK A   1       3.579  -0.934  -0.853  0.00  0.00    +0.000 C 
ATOM     19  C   UNK A   1       2.403  -0.223  -0.130  0.00  0.00    +0.000 C 
ATOM     20  C   UNK A   1       2.198   1.114  -0.883  0.00  0.00    +0.000 C 
BRANCH  19  21
ATOM     21  C   UNK A   1       1.074  -0.976  -0.335  0.00  0.00    +0.000 C 
ATOM     22  C   UNK A   1       0.891  -2.198  -0.854  0.00  0.00    +0.000 C 
ENDBRANCH  19  21
ENDBRANCH   1  19
BRANCH   1  23
ATOM     23  C   UNK A   1       4.148   0.381   1.867  0.00  0.00    +0.000 C 
BRANCH  23  24
ATOM     24  C   UNK A   1       4.892   1.593   1.276  0.00  0.00    +0.000 C 
ATOM     25  N   UNK A   1       6.318   1.484   1.645  0.00  0.00    +0.000 N 
ATOM     26  C   PRO A   2       6.755   1.761   2.920  0.00  0.00    +0.000 C 
ATOM     27  O   PRO A   2       7.787   1.296   3.380  0.00  0.00    +0.000 OA
ATOM     28  CA  PRO A   2       5.897   2.742   3.638  0.00  0.00    +0.000 C 
ATOM     29  CB  PRO A   2       6.105   3.267   4.849  0.00  0.00    +0.000 C 
ATOM     30  CG  PRO A   2       5.057   4.299   5.156  0.00  0.00    +0.000 C 
ATOM     31  CD  PRO A   2       4.263   4.383   3.845  0.00  0.00    +0.000 C 
ATOM     32  N   PRO A   2       4.797   3.297   3.033  0.00  0.00    +0.000 N 
ATOM     33  C   UNK A   1       4.366   2.957   1.770  0.00  0.00    +0.000 C 
ATOM     34  O   UNK A   1       3.528   3.607   1.150  0.00  0.00    +0.000 OA
ATOM     35  H   UNK A   1       6.972   1.207   0.963  0.00  0.00    +0.000 HD
ENDBRANCH  23  24
ENDBRANCH   1  23
TORSDOF 4
