REMARK  Name = *****
REMARK  2 active torsions:
REMARK  status: ('A' for Active; 'I' for Inactive)
REMARK    1  A    between atoms: C_1  and  O_2
REMARK    2  A    between atoms: O_2  and  C_3
REMARK                            x       y       z     vdW  Elec       q    Type
REMARK                         _______ _______ _______ _____ _____    ______ ____
ROOT
ATOM      1  C   UNL     1       3.256  -1.197   1.028  0.00  0.00    +0.000 A 
ATOM      2  C   UNL     1       2.896  -2.542   1.229  0.00  0.00    +0.000 A 
ATOM      3  C   UNL     1       3.648  -3.356   2.053  0.00  0.00    +0.000 A 
ATOM      4  C   UNL     1       4.795  -2.844   2.635  0.00  0.00    +0.000 A 
ATOM      5  C   UNL     1       5.196  -1.508   2.424  0.00  0.00    +0.000 A 
ATOM      6  C   UNL     1       6.395  -1.053   2.958  0.00  0.00    +0.000 A 
ATOM      7  C   UNL     1       7.464  -1.735   3.721  0.00  0.00    +0.000 C 
ATOM      8  O   UNL     1       7.478  -2.867   4.148  0.00  0.00    +0.000 OA
ATOM      9  C   UNL     1       8.613  -0.703   3.869  0.00  0.00    +0.000 C 
ATOM     10  O   UNL     1       9.710  -0.924   4.333  0.00  0.00    +0.000 OA
ATOM     11  N   UNL     1       8.113   0.451   3.316  0.00  0.00    +0.000 N 
ATOM     12  C   UNL     1       8.862   1.638   2.971  0.00  0.00    +0.000 C 
ATOM     13  C   UNL     1       7.950   2.852   2.777  0.00  0.00    +0.000 C 
ATOM     14  C   UNL     1       6.669   2.519   2.030  0.00  0.00    +0.000 A 
ATOM     15  C   UNL     1       5.966   3.538   1.396  0.00  0.00    +0.000 A 
ATOM     16  C   UNL     1       4.746   3.213   0.861  0.00  0.00    +0.000 A 
ATOM     17  O   UNL     1       3.924   4.119   0.263  0.00  0.00    +0.000 OA
ATOM     18  C   UNL     1       2.803   3.289  -0.066  0.00  0.00    +0.000 C 
ATOM     19  O   UNL     1       2.947   1.944   0.408  0.00  0.00    +0.000 OA
ATOM     20  C   UNL     1       4.212   1.932   0.925  0.00  0.00    +0.000 A 
ATOM     21  C   UNL     1       4.871   0.825   1.518  0.00  0.00    +0.000 A 
ATOM     22  C   UNL     1       6.125   1.203   2.087  0.00  0.00    +0.000 A 
ATOM     23  C   UNL     1       6.845   0.241   2.763  0.00  0.00    +0.000 A 
ATOM     24  C   UNL     1       4.413  -0.598   1.636  0.00  0.00    +0.000 A 
ENDROOT
BRANCH   1  26
ATOM     25  C   UNL     1       1.134  -0.533   0.259  0.00  0.00    +0.000 C 
ATOM     26  O   UNL     1       2.550  -0.489   0.084  0.00  0.00    +0.000 OA
ENDBRANCH   1  26
TORSDOF 1
