REMARK  Name = *****
REMARK  0 active torsions:
REMARK  status: ('A' for Active; 'I' for Inactive)
REMARK                            x       y       z     vdW  Elec       q    Type
REMARK                         _______ _______ _______ _____ _____    ______ ____
ROOT
ATOM      1  O   UNL     1       2.223   1.018   0.409  0.00  0.00    +0.000 OA
ATOM      2  C   UNL     1       3.178   1.409   1.063  0.00  0.00    +0.000 C 
ATOM      3  N   UNL     1       3.313   2.738   1.466  0.00  0.00    +0.000 N 
ATOM      4  C   UNL     1       4.679   3.156   1.817  0.00  0.00    +0.000 C 
ATOM      5  C   UNL     1       4.966   2.268   3.027  0.00  0.00    +0.000 A 
ATOM      6  N   UNL     1       5.237   2.729   4.202  0.00  0.00    +0.000 NA
ATOM      7  C   UNL     1       5.463   1.784   5.218  0.00  0.00    +0.000 A 
ATOM      8  C   UNL     1       5.800   2.243   6.493  0.00  0.00    +0.000 A 
ATOM      9  C   UNL     1       6.030   1.342   7.537  0.00  0.00    +0.000 A 
ATOM     10  C   UNL     1       5.925  -0.031   7.314  0.00  0.00    +0.000 A 
ATOM     11  C   UNL     1       5.589  -0.505   6.047  0.00  0.00    +0.000 A 
ATOM     12  C   UNL     1       5.361   0.404   5.008  0.00  0.00    +0.000 A 
ATOM     13  C   UNL     1       5.008  -0.072   3.653  0.00  0.00    +0.000 A 
ATOM     14  O   UNL     1       4.877  -1.268   3.419  0.00  0.00    +0.000 OA
ATOM     15  N   UNL     1       4.848   0.919   2.711  0.00  0.00    +0.000 N 
ATOM     16  C   UNL     1       4.484   0.627   1.319  0.00  0.00    +0.000 C 
ATOM     17  C   UNL     1       5.543   1.241   0.384  0.00  0.00    +0.000 C 
ATOM     18  C   UNL     1       5.666   2.760   0.691  0.00  0.00    +0.000 C 
ATOM     19  C   UNL     1       7.107   3.117   1.137  0.00  0.00    +0.000 C 
ATOM     20  O   UNL     1       7.741   2.604   2.044  0.00  0.00    +0.000 OA
ATOM     21  N   UNL     1       7.573   4.122   0.307  0.00  0.00    +0.000 N 
ATOM     22  C   UNL     1       6.659   4.424  -0.687  0.00  0.00    +0.000 A 
ATOM     23  C   UNL     1       6.814   5.334  -1.710  0.00  0.00    +0.000 A 
ATOM     24  C   UNL     1       5.766   5.455  -2.624  0.00  0.00    +0.000 A 
ATOM     25  C   UNL     1       4.608   4.668  -2.494  0.00  0.00    +0.000 A 
ATOM     26  C   UNL     1       4.475   3.751  -1.446  0.00  0.00    +0.000 A 
ATOM     27  C   UNL     1       5.515   3.640  -0.536  0.00  0.00    +0.000 A 
ATOM     28  H   UNL     1       2.547   3.354   1.512  0.00  0.00    +0.000 HD
ATOM     29  H   UNL     1       8.445   4.567   0.410  0.00  0.00    +0.000 HD
ENDROOT
TORSDOF 0
