REMARK  Name = *****
REMARK  5 active torsions:
REMARK  status: ('A' for Active; 'I' for Inactive)
REMARK    1  A    between atoms: C_1  and  O_2
REMARK    2  A    between atoms: O_2  and  C_3
REMARK    3  A    between atoms: C_11  and  C_12
REMARK    4  A    between atoms: C_13  and  C_14
REMARK    5  A    between atoms: C_13  and  C_15
REMARK                            x       y       z     vdW  Elec       q    Type
REMARK                         _______ _______ _______ _____ _____    ______ ____
ROOT
ATOM      1  C   UNL     1       0.099  -2.067   0.271  0.00  0.00    +0.000 C 
ATOM      2  C   UNL     1       0.415  -1.674  -1.181  0.00  0.00    +0.000 C 
ATOM      3  C   UNL     1       1.701  -2.445  -1.489  0.00  0.00    +0.000 C 
ATOM      4  N   UNL     1       2.330  -2.629  -0.200  0.00  0.00    +0.000 N 
ATOM      5  CA  UNL     1       1.507  -2.099   0.876  0.00  0.00    +0.000 C 
ATOM      6  C   UNL     1       1.641  -2.839   2.207  0.00  0.00    +0.000 C 
ATOM      7  O   UNL     1       0.776  -2.795   3.079  0.00  0.00    +0.000 OA
ATOM      8  N   UNL     1       2.928  -3.317   2.422  0.00  0.00    +0.000 N 
ATOM      9  C   UNL     1       3.403  -3.949   3.674  0.00  0.00    +0.000 C 
ATOM     10  C   UNL     1       4.836  -4.450   3.311  0.00  0.00    +0.000 C 
ATOM     11  C   UNL     1       4.955  -4.119   1.846  0.00  0.00    +0.000 C 
ATOM     12  CA  UNL     1       3.858  -3.488   1.415  0.00  0.00    +0.000 C 
ATOM     13  C   UNL     1       3.588  -3.131  -0.010  0.00  0.00    +0.000 C 
ATOM     14  O   UNL     1       4.391  -3.355  -0.907  0.00  0.00    +0.000 OA
ATOM     15  C   UNL     1       4.899  -5.983   3.541  0.00  0.00    +0.000 C 
ATOM     16  O   UNL     1       4.165  -6.840   3.076  0.00  0.00    +0.000 OA
ATOM     17  N   UNL     1       5.973  -6.233   4.389  0.00  0.00    +0.000 N 
ATOM     18  C   UNL     1       6.635  -5.065   4.727  0.00  0.00    +0.000 A 
ATOM     19  C   UNL     1       7.751  -4.944   5.528  0.00  0.00    +0.000 A 
ATOM     20  C   UNL     1       8.273  -3.663   5.710  0.00  0.00    +0.000 A 
ATOM     21  C   UNL     1       7.679  -2.550   5.089  0.00  0.00    +0.000 A 
ATOM     22  C   UNL     1       6.549  -2.699   4.280  0.00  0.00    +0.000 A 
ATOM     23  C   UNL     1       6.023  -3.970   4.115  0.00  0.00    +0.000 A 
ATOM     24  H   UNL     1       6.230  -7.128   4.709  0.00  0.00    +0.000 HD
ENDROOT
BRANCH   9  25
ATOM     25  C   UNL     1       3.333  -2.935   4.796  0.00  0.00    +0.000 C 
ATOM     26  C   UNL     1       3.090  -3.188   6.098  0.00  0.00    +0.000 C 
ATOM     27  C   UNL     1       2.876  -4.558   6.682  0.00  0.00    +0.000 C 
ATOM     28  C   UNL     1       3.019  -2.067   7.101  0.00  0.00    +0.000 C 
ENDBRANCH   9  25
BRANCH   1  30
ATOM     29  C   UNL     1      -1.909  -3.336   0.206  0.00  0.00    +0.000 C 
ATOM     30  O   UNL     1      -0.490  -3.373   0.278  0.00  0.00    +0.000 OA
ENDBRANCH   1  30
TORSDOF 2
