REMARK  Name = *****
REMARK  18 active torsions:
REMARK  status: ('A' for Active; 'I' for Inactive)
REMARK    1  A    between atoms: C_1  and  C_2
REMARK    2  A    between atoms: C_2  and  C_3
REMARK    3  A    between atoms: C_2  and  C_4
REMARK    4  A    between atoms: C_4  and  N_5
REMARK    5  A    between atoms: C_4  and  C_9
REMARK    6  A    between atoms: C_6  and  C_8
REMARK    7  A    between atoms: N_11  and  C_12
REMARK    8  A    between atoms: N_11  and  C_13
REMARK    9  A    between atoms: C_13  and  C_14
REMARK   10  A    between atoms: C_13  and  C_17
REMARK   11  A    between atoms: C_14  and  C_15
REMARK   12  A    between atoms: C_14  and  C_16
REMARK   13  A    between atoms: C_20  and  C_21
REMARK   14  A    between atoms: C_21  and  C_22
REMARK   15  A    between atoms: C_22  and  C_23
REMARK   16  A    between atoms: C_23  and  C_24
REMARK   17  A    between atoms: C_25  and  C_26
REMARK   18  A    between atoms: C_25  and  C_27
REMARK                            x       y       z     vdW  Elec       q    Type
REMARK                         _______ _______ _______ _____ _____    ______ ____
ROOT
ATOM      1  C   UNL     1       7.364   4.447  -1.230  0.00  0.00    +0.000 C 
ATOM      2  O   UNL     1       8.552   4.587  -1.513  0.00  0.00    +0.000 OA
ATOM      3  N   UNL     1       6.438   5.476  -1.302  0.00  0.00    +0.000 N 
ATOM      4  C   UNL     1       6.738   6.756  -1.685  0.00  0.00    +0.000 C 
ATOM      5  H   UNL     1       5.505   5.274  -1.063  0.00  0.00    +0.000 HD
ENDROOT
BRANCH   1   6
ATOM      6  C   UNL     1       6.793   3.128  -0.636  0.00  0.00    +0.000 C 
BRANCH   6   9
ATOM      7  C   UNL     1       4.593   3.470   0.660  0.00  0.00    +0.000 C 
ATOM      8  O   UNL     1       3.361   3.352   0.703  0.00  0.00    +0.000 OA
ATOM      9  N   UNL     1       5.296   3.156  -0.507  0.00  0.00    +0.000 N 
ATOM     10  C   UNL     1       4.507   2.811  -1.688  0.00  0.00    +0.000 C 
BRANCH   7  11
ATOM     11  C   UNL     1       5.338   3.889   1.954  0.00  0.00    +0.000 C 
BRANCH  11  12
ATOM     12  N   UNL     1       5.260   2.707   2.815  0.00  0.00    +0.000 N 
ATOM     13  C   UNL     1       6.343   1.907   3.072  0.00  0.00    +0.000 C 
ATOM     14  O   UNL     1       7.481   2.167   2.699  0.00  0.00    +0.000 OA
ATOM     15  C   UNL     1       6.031   0.688   3.898  0.00  0.00    +0.000 C 
ATOM     16  H   UNL     1       4.396   2.478   3.227  0.00  0.00    +0.000 HD
ENDBRANCH  11  12
BRANCH  11  18
ATOM     17  C   UNL     1       5.304   5.442   3.971  0.00  0.00    +0.000 C 
ATOM     18  C   UNL     1       4.631   5.089   2.638  0.00  0.00    +0.000 C 
ATOM     19  C   UNL     1       4.635   6.328   1.737  0.00  0.00    +0.000 C 
ENDBRANCH  11  18
ENDBRANCH   7  11
ENDBRANCH   6   9
BRANCH   6  20
ATOM     20  C   UNL     1       7.348   1.838  -1.314  0.00  0.00    +0.000 C 
ATOM     21  C   UNL     1       7.480   1.910  -2.840  0.00  0.00    +0.000 C 
ATOM     22  C   UNL     1       8.708   1.441  -0.721  0.00  0.00    +0.000 C 
ENDBRANCH   6  20
ENDBRANCH   1   6
BRANCH   4  23
ATOM     23  C   UNL     1       5.806   7.720  -1.684  0.00  0.00    +0.000 C 
BRANCH  23  24
ATOM     24  C   UNL     1       6.022   9.191  -2.013  0.00  0.00    +0.000 C 
ATOM     25  C   UNL     1       7.365   9.448  -2.785  0.00  0.00    +0.000 C 
ATOM     26  O   UNL     1       7.679   9.022  -3.886  0.00  0.00    +0.000 OA
ATOM     27  N   UNL     1       8.159  10.270  -1.997  0.00  0.00    +0.000 N 
ATOM     28  C   UNL     1       7.532  10.590  -0.806  0.00  0.00    +0.000 A 
ATOM     29  C   UNL     1       8.040  11.367   0.214  0.00  0.00    +0.000 A 
ATOM     30  C   UNL     1       7.242  11.546   1.345  0.00  0.00    +0.000 A 
ATOM     31  C   UNL     1       5.973  10.946   1.429  0.00  0.00    +0.000 A 
ATOM     32  C   UNL     1       5.481  10.161   0.382  0.00  0.00    +0.000 A 
ATOM     33  C   UNL     1       6.271   9.995  -0.745  0.00  0.00    +0.000 A 
ATOM     34  H   UNL     1       9.055  10.586  -2.254  0.00  0.00    +0.000 HD
BRANCH  24  35
ATOM     35  C   UNL     1       4.909   9.793  -2.916  0.00  0.00    +0.000 C 
BRANCH  35  36
ATOM     36  C   UNL     1       3.495   9.742  -2.378  0.00  0.00    +0.000 C 
ATOM     37  C   UNL     1       2.762  10.760  -1.886  0.00  0.00    +0.000 C 
ATOM     38  C   UNL     1       3.243  12.176  -1.722  0.00  0.00    +0.000 C 
ATOM     39  C   UNL     1       1.343  10.535  -1.433  0.00  0.00    +0.000 C 
ENDBRANCH  35  36
ENDBRANCH  24  35
ENDBRANCH  23  24
ENDBRANCH   4  23
TORSDOF 10
