REMARK  Name = *****
REMARK  4 active torsions:
REMARK  status: ('A' for Active; 'I' for Inactive)
REMARK    1  A    between atoms: C_1  and  O_2
REMARK    2  A    between atoms: O_2  and  C_3
REMARK    3  A    between atoms: C_17  and  O_18
REMARK    4  A    between atoms: O_18  and  C_19
REMARK                            x       y       z     vdW  Elec       q    Type
REMARK                         _______ _______ _______ _____ _____    ______ ____
ROOT
ATOM      1  C   UNL     1       3.351   0.487   1.006  0.00  0.00    +0.000 A 
ATOM      2  C   UNL     1       4.359   1.424   0.815  0.00  0.00    +0.000 A 
ATOM      3  C   UNL     1       4.987   2.003   1.917  0.00  0.00    +0.000 A 
ATOM      4  C   UNL     1       6.172   2.932   1.708  0.00  0.00    +0.000 C 
ATOM      5  C   UNL     1       6.390   3.900   2.876  0.00  0.00    +0.000 C 
ATOM      6  N   UNL     1       6.193   3.259   4.155  0.00  0.00    +0.000 N 
ATOM      7  C   UNL     1       6.590   3.733   5.384  0.00  0.00    +0.000 C 
ATOM      8  O   UNL     1       7.316   4.665   5.651  0.00  0.00    +0.000 OA
ATOM      9  C   UNL     1       5.839   2.839   6.410  0.00  0.00    +0.000 C 
ATOM     10  O   UNL     1       5.963   2.887   7.612  0.00  0.00    +0.000 OA
ATOM     11  C   UNL     1       4.962   1.957   5.614  0.00  0.00    +0.000 A 
ATOM     12  C   UNL     1       5.229   2.253   4.289  0.00  0.00    +0.000 A 
ATOM     13  C   UNL     1       4.589   1.645   3.225  0.00  0.00    +0.000 A 
ATOM     14  C   UNL     1       3.582   0.686   3.502  0.00  0.00    +0.000 A 
ATOM     15  C   UNL     1       3.005   0.098   2.325  0.00  0.00    +0.000 A 
ATOM     16  C   UNL     1       3.263   0.399   4.921  0.00  0.00    +0.000 A 
ATOM     17  C   UNL     1       2.242  -0.487   5.351  0.00  0.00    +0.000 A 
ATOM     18  C   UNL     1       1.971  -0.757   6.698  0.00  0.00    +0.000 A 
ATOM     19  C   UNL     1       2.711  -0.139   7.689  0.00  0.00    +0.000 A 
ATOM     20  C   UNL     1       3.710   0.757   7.330  0.00  0.00    +0.000 A 
ATOM     21  C   UNL     1       3.989   1.037   5.975  0.00  0.00    +0.000 A 
ENDROOT
BRANCH   1  23
ATOM     22  C   UNL     1       2.844   0.381  -1.328  0.00  0.00    +0.000 C 
ATOM     23  O   UNL     1       2.664  -0.124  -0.012  0.00  0.00    +0.000 OA
ENDBRANCH   1  23
BRANCH  15  24
ATOM     24  O   UNL     1       2.033  -0.874   2.464  0.00  0.00    +0.000 OA
ATOM     25  C   UNL     1       2.584  -2.172   2.218  0.00  0.00    +0.000 C 
ENDBRANCH  15  24
TORSDOF 2
