REMARK  Name = *****
REMARK  9 active torsions:
REMARK  status: ('A' for Active; 'I' for Inactive)
REMARK    1  A    between atoms: C_1  and  C_2
REMARK    2  A    between atoms: C_2  and  C_3
REMARK    3  A    between atoms: C_11  and  C_12
REMARK    4  A    between atoms: C_12  and  C_16
REMARK    5  A    between atoms: C_13  and  O_14
REMARK    6  A    between atoms: O_14  and  C_15
REMARK    7  A    between atoms: C_16  and  O_18
REMARK    8  A    between atoms: O_18  and  C_19
REMARK    9  A    between atoms: C_27  and  O_28
REMARK                            x       y       z     vdW  Elec       q    Type
REMARK                         _______ _______ _______ _____ _____    ______ ____
ROOT
ATOM      1  C   UNL     1       2.826   1.080   0.905  0.00  0.00    +0.000 C 
ATOM      2  C   UNL     1       3.019   2.075  -0.273  0.00  0.00    +0.000 C 
ATOM      3  N   UNL     1       4.157   1.847  -1.143  0.00  0.00    +0.000 N 
ATOM      4  C   UNL     1       3.940   1.891  -2.576  0.00  0.00    +0.000 C 
ATOM      5  C   UNL     1       5.307   1.484  -3.140  0.00  0.00    +0.000 C 
ATOM      6  C   UNL     1       6.000   0.703  -2.006  0.00  0.00    +0.000 C 
ATOM      7  C   UNL     1       4.950   0.653  -0.889  0.00  0.00    +0.000 C 
ATOM      8  C   UNL     1       5.401   0.696   0.562  0.00  0.00    +0.000 C 
ATOM      9  C   UNL     1       4.168   0.475   1.462  0.00  0.00    +0.000 C 
ATOM     10  C   UNL     1       7.321   1.397  -1.576  0.00  0.00    +0.000 C 
ATOM     11  O   UNL     1       7.495   2.555  -1.232  0.00  0.00    +0.000 OA
ATOM     12  N   UNL     1       8.335   0.449  -1.658  0.00  0.00    +0.000 N 
ATOM     13  C   UNL     1       7.865  -0.757  -2.146  0.00  0.00    +0.000 A 
ATOM     14  C   UNL     1       8.600  -1.902  -2.378  0.00  0.00    +0.000 A 
ATOM     15  C   UNL     1       7.920  -3.009  -2.889  0.00  0.00    +0.000 A 
ATOM     16  C   UNL     1       6.541  -2.943  -3.159  0.00  0.00    +0.000 A 
ATOM     17  C   UNL     1       5.831  -1.767  -2.912  0.00  0.00    +0.000 A 
ATOM     18  C   UNL     1       6.498  -0.671  -2.398  0.00  0.00    +0.000 A 
ATOM     19  H   UNL     1       4.671   2.681  -0.861  0.00  0.00    +0.000 HD
ATOM     20  H   UNL     1       9.271   0.615  -1.400  0.00  0.00    +0.000 HD
ENDROOT
BRANCH   1  22
ATOM     21  C   UNL     1       0.412   0.386   0.314  0.00  0.00    +0.000 C 
ATOM     22  C   UNL     1       1.850  -0.070   0.533  0.00  0.00    +0.000 C 
ENDBRANCH   1  22
BRANCH   9  23
ATOM     23  C   UNL     1       4.461   0.809   2.915  0.00  0.00    +0.000 C 
ATOM     24  C   UNL     1       4.531  -0.121   3.884  0.00  0.00    +0.000 C 
BRANCH  24  25
ATOM     25  O   UNL     1       4.316  -1.458   3.663  0.00  0.00    +0.000 OA
ATOM     26  C   UNL     1       5.088  -2.270   4.545  0.00  0.00    +0.000 C 
ENDBRANCH  24  25
BRANCH  23  27
ATOM     27  C   UNL     1       4.748   2.199   3.370  0.00  0.00    +0.000 C 
ATOM     28  O   UNL     1       5.220   2.479   4.463  0.00  0.00    +0.000 OA
BRANCH  27  29
ATOM     29  O   UNL     1       4.403   3.095   2.418  0.00  0.00    +0.000 OA
ATOM     30  C   UNL     1       4.663   4.455   2.765  0.00  0.00    +0.000 C 
ENDBRANCH  27  29
ENDBRANCH  23  27
ENDBRANCH   9  23
BRANCH  17  31
ATOM     31  O   UNL     1       4.498  -1.680  -3.167  0.00  0.00    +0.000 OA
ATOM     32  H   UNL     1       4.039  -2.419  -3.515  0.00  0.00    +0.000 HD
ENDBRANCH  17  31
TORSDOF 6
