REMARK  Name = *****
REMARK  5 active torsions:
REMARK  status: ('A' for Active; 'I' for Inactive)
REMARK    1  A    between atoms: C_1  and  O_2
REMARK    2  A    between atoms: O_2  and  C_3
REMARK    3  A    between atoms: C_8  and  C_9
REMARK    4  A    between atoms: C_10  and  C_11
REMARK    5  A    between atoms: C_10  and  C_12
REMARK                            x       y       z     vdW  Elec       q    Type
REMARK                         _______ _______ _______ _____ _____    ______ ____
ROOT
ATOM      1  C   UNL     1       3.084   1.347   0.130  0.00  0.00    +0.000 A 
ATOM      2  C   UNL     1       2.831   2.427   0.997  0.00  0.00    +0.000 A 
ATOM      3  C   UNL     1       3.612   3.592   0.949  0.00  0.00    +0.000 A 
ATOM      4  C   UNL     1       4.640   3.656   0.026  0.00  0.00    +0.000 A 
ATOM      5  C   UNL     1       5.641   4.679  -0.308  0.00  0.00    +0.000 C 
ATOM      6  C   UNL     1       5.752   5.874   0.294  0.00  0.00    +0.000 C 
ATOM      7  C   UNL     1       6.482   4.113  -1.428  0.00  0.00    +0.000 C 
ATOM      8  O   UNL     1       7.422   4.622  -2.008  0.00  0.00    +0.000 OA
ATOM      9  N   UNL     1       5.953   2.854  -1.672  0.00  0.00    +0.000 N 
ATOM     10  C   UNL     1       4.880   2.580  -0.830  0.00  0.00    +0.000 A 
ATOM     11  C   UNL     1       4.125   1.425  -0.801  0.00  0.00    +0.000 A 
ATOM     12  H   UNL     1       6.294   2.233  -2.355  0.00  0.00    +0.000 HD
ENDROOT
BRANCH   6  13
ATOM     13  C   UNL     1       6.726   6.902  -0.009  0.00  0.00    +0.000 C 
ATOM     14  C   UNL     1       6.855   8.101   0.595  0.00  0.00    +0.000 C 
ATOM     15  C   UNL     1       6.013   8.633   1.722  0.00  0.00    +0.000 C 
ATOM     16  C   UNL     1       7.934   9.056   0.145  0.00  0.00    +0.000 C 
ENDBRANCH   6  13
BRANCH   1  18
ATOM     17  C   UNL     1       1.321   0.023   1.029  0.00  0.00    +0.000 C 
ATOM     18  O   UNL     1       2.384   0.171   0.096  0.00  0.00    +0.000 OA
ENDBRANCH   1  18
TORSDOF 2
