REMARK  Name = *****
REMARK  5 active torsions:
REMARK  status: ('A' for Active; 'I' for Inactive)
REMARK    1  A    between atoms: C_1  and  C_2
REMARK    2  A    between atoms: C_6  and  C_7
REMARK    3  A    between atoms: C_7  and  S_8
REMARK    4  A    between atoms: S_8  and  C_10
REMARK    5  A    between atoms: N_23  and  C_24
REMARK                            x       y       z     vdW  Elec       q    Type
REMARK                         _______ _______ _______ _____ _____    ______ ____
ROOT
ATOM      1  C   UNL     1       1.421   0.290  -0.141  0.00  0.00    +0.000 C 
ATOM      2  C   UNL     1       2.817  -0.341  -0.229  0.00  0.00    +0.000 C 
ATOM      3  C   UNL     1       2.864  -1.549   0.715  0.00  0.00    +0.000 A 
ATOM      4  C   UNL     1       3.346  -1.449   1.977  0.00  0.00    +0.000 A 
ATOM      5  N   UNL     1       3.657  -2.522   2.773  0.00  0.00    +0.000 NA
ATOM      6  C   UNL     1       3.500  -3.707   2.252  0.00  0.00    +0.000 A 
ATOM      7  C   UNL     1       2.827  -3.937   0.898  0.00  0.00    +0.000 A 
ATOM      8  O   UNL     1       2.580  -5.056   0.488  0.00  0.00    +0.000 OA
ATOM      9  N   UNL     1       2.557  -2.784   0.201  0.00  0.00    +0.000 N 
ATOM     10  C   UNL     1       3.773  -0.153   2.438  0.00  0.00    +0.000 C 
ATOM     11  C   UNL     1       4.118   0.842   1.604  0.00  0.00    +0.000 C 
ATOM     12  C   UNL     1       4.656   2.059   2.283  0.00  0.00    +0.000 C 
ATOM     13  C   UNL     1       4.710   1.680   3.762  0.00  0.00    +0.000 C 
ATOM     14  C   UNL     1       4.040   0.333   3.802  0.00  0.00    +0.000 C 
ATOM     15  O   UNL     1       3.742  -0.250   4.833  0.00  0.00    +0.000 OA
ATOM     16  C   UNL     1       4.007   0.641   0.105  0.00  0.00    +0.000 C 
ATOM     17  C   UNL     1       5.340  -0.070  -0.359  0.00  0.00    +0.000 C 
ATOM     18  O   UNL     1       5.765  -1.152   0.022  0.00  0.00    +0.000 OA
ATOM     19  N   UNL     1       5.964   0.757  -1.285  0.00  0.00    +0.000 N 
ATOM     20  C   UNL     1       7.231   0.462  -1.902  0.00  0.00    +0.000 C 
ATOM     21  C   UNL     1       5.230   1.921  -1.503  0.00  0.00    +0.000 A 
ATOM     22  C   UNL     1       5.554   2.976  -2.338  0.00  0.00    +0.000 A 
ATOM     23  C   UNL     1       4.681   4.061  -2.385  0.00  0.00    +0.000 A 
ATOM     24  C   UNL     1       3.517   4.074  -1.601  0.00  0.00    +0.000 A 
ATOM     25  C   UNL     1       3.207   3.001  -0.758  0.00  0.00    +0.000 A 
ATOM     26  C   UNL     1       4.068   1.912  -0.722  0.00  0.00    +0.000 A 
ATOM     27  H   UNL     1       2.133  -2.845  -0.685  0.00  0.00    +0.000 HD
ENDROOT
BRANCH   6  28
ATOM     28  C   UNL     1       4.022  -4.924   2.956  0.00  0.00    +0.000 C 
BRANCH  28  29
ATOM     29  S   UNL     1       2.756  -5.715   3.974  0.00  0.00    +0.000 S 
ATOM     30  O   UNL     1       3.331  -7.007   4.478  0.00  0.00    +0.000 OA
ATOM     31  C   UNL     1       2.820  -4.530   5.342  0.00  0.00    +0.000 C 
ENDBRANCH  28  29
ENDBRANCH   6  28
TORSDOF 2
