REMARK  Name = *****
REMARK  9 active torsions:
REMARK  status: ('A' for Active; 'I' for Inactive)
REMARK    1  A    between atoms: C_1  and  C_2
REMARK    2  A    between atoms: C_2  and  C_3
REMARK    3  A    between atoms: C_11  and  C_12
REMARK    4  A    between atoms: C_12  and  C_16
REMARK    5  A    between atoms: C_13  and  O_14
REMARK    6  A    between atoms: O_14  and  C_15
REMARK    7  A    between atoms: C_16  and  O_18
REMARK    8  A    between atoms: O_18  and  C_19
REMARK    9  A    between atoms: C_27  and  O_28
REMARK                            x       y       z     vdW  Elec       q    Type
REMARK                         _______ _______ _______ _____ _____    ______ ____
ROOT
ATOM      1  C   UNL     1       2.851   1.069   0.940  0.00  0.00    +0.000 C 
ATOM      2  C   UNL     1       3.175   2.084  -0.192  0.00  0.00    +0.000 C 
ATOM      3  N   UNL     1       4.290   1.761  -1.062  0.00  0.00    +0.000 N 
ATOM      4  C   UNL     1       4.103   1.922  -2.492  0.00  0.00    +0.000 C 
ATOM      5  C   UNL     1       5.413   1.375  -3.069  0.00  0.00    +0.000 C 
ATOM      6  C   UNL     1       5.966   0.422  -1.991  0.00  0.00    +0.000 C 
ATOM      7  C   UNL     1       4.910   0.457  -0.877  0.00  0.00    +0.000 C 
ATOM      8  C   UNL     1       5.354   0.360   0.572  0.00  0.00    +0.000 C 
ATOM      9  C   UNL     1       4.100   0.268   1.465  0.00  0.00    +0.000 C 
ATOM     10  C   UNL     1       7.375   0.871  -1.518  0.00  0.00    +0.000 C 
ATOM     11  O   UNL     1       7.723   1.960  -1.093  0.00  0.00    +0.000 OA
ATOM     12  N   UNL     1       8.231  -0.215  -1.671  0.00  0.00    +0.000 N 
ATOM     13  C   UNL     1       7.584  -1.296  -2.242  0.00  0.00    +0.000 A 
ATOM     14  C   UNL     1       8.135  -2.520  -2.561  0.00  0.00    +0.000 A 
ATOM     15  C   UNL     1       7.296  -3.469  -3.149  0.00  0.00    +0.000 A 
ATOM     16  C   UNL     1       5.946  -3.172  -3.407  0.00  0.00    +0.000 A 
ATOM     17  C   UNL     1       5.424  -1.921  -3.072  0.00  0.00    +0.000 A 
ATOM     18  C   UNL     1       6.248  -0.982  -2.481  0.00  0.00    +0.000 A 
ATOM     19  H   UNL     1       4.909   2.498  -0.723  0.00  0.00    +0.000 HD
ATOM     20  H   UNL     1       9.179  -0.214  -1.406  0.00  0.00    +0.000 HD
ENDROOT
BRANCH   1  22
ATOM     21  C   UNL     1       0.372   0.725   0.303  0.00  0.00    +0.000 C 
ATOM     22  C   UNL     1       1.733   0.074   0.520  0.00  0.00    +0.000 C 
ENDBRANCH   1  22
BRANCH   9  23
ATOM     23  C   UNL     1       4.434   0.494   2.931  0.00  0.00    +0.000 C 
ATOM     24  C   UNL     1       4.449  -0.498   3.840  0.00  0.00    +0.000 C 
BRANCH  24  25
ATOM     25  O   UNL     1       4.146  -1.802   3.540  0.00  0.00    +0.000 OA
ATOM     26  C   UNL     1       4.883  -2.715   4.349  0.00  0.00    +0.000 C 
ENDBRANCH  24  25
BRANCH  23  27
ATOM     27  C   UNL     1       4.817   1.831   3.467  0.00  0.00    +0.000 C 
ATOM     28  O   UNL     1       5.197   2.028   4.613  0.00  0.00    +0.000 OA
BRANCH  27  29
ATOM     29  O   UNL     1       4.681   2.786   2.520  0.00  0.00    +0.000 OA
ATOM     30  C   UNL     1       5.045   4.099   2.946  0.00  0.00    +0.000 C 
ENDBRANCH  27  29
ENDBRANCH  23  27
ENDBRANCH   9  23
BRANCH  17  31
ATOM     31  O   UNL     1       4.122  -1.611  -3.315  0.00  0.00    +0.000 OA
ATOM     32  H   UNL     1       3.557  -2.242  -3.715  0.00  0.00    +0.000 HD
ENDBRANCH  17  31
TORSDOF 6
