REMARK  Name = *****
REMARK  4 active torsions:
REMARK  status: ('A' for Active; 'I' for Inactive)
REMARK    1  A    between atoms: C_1  and  C_2
REMARK    2  A    between atoms: C_2  and  C_3
REMARK    3  A    between atoms: C_6  and  C_7
REMARK    4  A    between atoms: C_9  and  C_10
REMARK                            x       y       z     vdW  Elec       q    Type
REMARK                         _______ _______ _______ _____ _____    ______ ____
ROOT
ATOM      1  C   UNL     1       2.861  -0.643  -1.279  0.00  0.00    +0.000 A 
ATOM      2  C   UNL     1       2.679  -2.000  -1.482  0.00  0.00    +0.000 A 
ATOM      3  C   UNL     1       3.037  -2.503  -2.725  0.00  0.00    +0.000 A 
ATOM      4  C   UNL     1       2.886  -3.976  -3.042  0.00  0.00    +0.000 C 
ATOM      5  C   UNL     1       1.427  -4.381  -3.220  0.00  0.00    +0.000 C 
ATOM      6  C   UNL     1       3.699  -4.130  -4.363  0.00  0.00    +0.000 C 
ATOM      7  C   UNL     1       3.857  -2.719  -4.997  0.00  0.00    +0.000 C 
ATOM      8  C   UNL     1       2.887  -2.486  -6.147  0.00  0.00    +0.000 C 
ATOM      9  C   UNL     1       3.577  -1.820  -3.835  0.00  0.00    +0.000 A 
ATOM     10  C   UNL     1       3.749  -0.471  -3.617  0.00  0.00    +0.000 A 
ATOM     11  N   UNL     1       4.240   0.488  -4.459  0.00  0.00    +0.000 N 
ATOM     12  C   UNL     1       4.239   1.725  -3.855  0.00  0.00    +0.000 C 
ATOM     13  O   UNL     1       4.606   2.781  -4.325  0.00  0.00    +0.000 OA
ATOM     14  C   UNL     1       3.657   1.492  -2.418  0.00  0.00    +0.000 C 
ATOM     15  O   UNL     1       3.513   2.402  -1.617  0.00  0.00    +0.000 OA
ATOM     16  C   UNL     1       3.384   0.059  -2.368  0.00  0.00    +0.000 A 
ATOM     17  H   UNL     1       4.554   0.316  -5.376  0.00  0.00    +0.000 HD
ENDROOT
BRANCH   1  19
ATOM     18  C   UNL     1       1.079   0.585  -0.013  0.00  0.00    +0.000 C 
ATOM     19  C   UNL     1       2.485   0.005   0.024  0.00  0.00    +0.000 C 
ENDBRANCH   1  19
TORSDOF 1
