@<TRIPOS>MOLECULE
TOP4 
39 43 0 0 0
SMALL
USER_CHARGES
#CGenFF output mol2 file
@<TRIPOS>ATOM
1	N1    89.4650    63.9520    87.2150	N.am	1	TOP4    -0.3490
2	N2    88.8670    69.1290    85.0010	N.ar	1	TOP4     0.0100
3	N3    90.4830    69.3570    83.2860	N.ar	1	TOP4    -0.9030
4	C1    87.2670    67.2590    85.1530	C.2	1	TOP4     0.1810
5	C2    88.3690    65.9960    86.6950	C.3	1	TOP4     0.1340
6	C3    89.0030    67.3710    86.7990	C.3	1	TOP4    -0.1880
7	C4    88.1440    68.2350    85.9010	C.3	1	TOP4     0.0890
8	C5    89.4230    64.9450    86.2450	C.2	1	TOP4     0.1260
9	C6    88.5700    64.2150    88.2400	C.ar	1	TOP4     0.2430
10	C7    88.3390    63.4460    89.3610	C.ar	1	TOP4    -0.3050
11	C8    87.3800    63.9050    90.2660	C.ar	1	TOP4    -0.2100
12	C9    86.6810    65.1040    90.0290	C.ar	1	TOP4    -0.2100
13	C10    86.9310    65.8660    88.8840	C.ar	1	TOP4    -0.3660
14	C11    87.8890    65.4090    87.9950	C.ar	1	TOP4     0.7220
15	C12    89.8020    68.6410    84.1150	C.ar	1	TOP4     0.4970
16	C13    90.2380    70.7350    83.2580	C.ar	1	TOP4     0.3090
17	C14    90.9570    71.5320    82.3640	C.ar	1	TOP4    -0.1420
18	C15    90.7370    72.9110    82.3030	C.ar	1	TOP4    -0.1430
19	C16    89.7910    73.5060    83.1370	C.ar	1	TOP4    -0.1190
20	C17    89.0660    72.7220    84.0340	C.ar	1	TOP4    -0.1440
21	C18    89.2960    71.3420    84.0880	C.ar	1	TOP4     0.1940
22	C19    88.5570    70.4830    85.0310	C.ar	1	TOP4     0.3470
23	O1    86.5740    67.5110    84.1810	O.2	1	TOP4    -0.3680
24	O2    87.3070    66.0410    85.7520	O.3	1	TOP4    -0.4370
25	O3    90.1010    64.9880    85.2310	O.2	1	TOP4    -0.3560
26	O4    87.7430    70.9810    85.8050	O.2	1	TOP4    -0.4530
27	H1    90.0539    63.1638    87.1792	H	1	TOP4     0.3530
28	H2    88.9776    67.7269    87.8078	H	1	TOP4     0.0900
29	H3    90.0338    67.3736    86.5120	H	1	TOP4     0.0900
30	H4    87.5900    68.9301    86.4967	H	1	TOP4     0.1160
31	H5    88.8541    62.5668    89.5244	H	1	TOP4     0.1960
32	H6    87.1811    63.3589    91.1188	H	1	TOP4     0.1270
33	H7    85.9746    65.4246    90.7097	H	1	TOP4     0.1270
34	H8    86.4168    66.7430    88.7066	H	1	TOP4     0.1960
35	H9    89.9708    67.6229    84.1144	H	1	TOP4     0.0860
36	H10    91.6575    71.0984    81.7425	H	1	TOP4     0.1150
37	H11    91.2756    73.4897    81.6397	H	1	TOP4     0.1150
38	H12    89.6278    74.5240    83.0906	H	1	TOP4     0.1150
39	H13    88.3645    73.1562    84.6540	H	1	TOP4     0.1150
@<TRIPOS>BOND
1	1	8	1
2	1	9	1
3	1	27	1
4	2	15	1
5	2	22	1
6	2	7	1
7	3	16	1
8	3	15	2
9	4	23	2
10	4	24	1
11	4	7	1
12	5	24	1
13	5	8	1
14	5	6	1
15	5	14	1
16	6	7	1
17	6	28	1
18	6	29	1
19	7	30	1
20	8	25	2
21	9	14	2
22	9	10	1
23	10	11	2
24	10	31	1
25	11	12	1
26	11	32	1
27	12	13	2
28	12	33	1
29	13	14	1
30	13	34	1
31	15	35	1
32	16	17	2
33	16	21	1
34	17	18	1
35	17	36	1
36	18	19	2
37	18	37	1
38	19	20	1
39	19	38	1
40	20	21	2
41	20	39	1
42	21	22	1
43	22	26	2
