@<TRIPOS>MOLECULE
DrugBank 
48 52 0 0 0
SMALL
USER_CHARGES
#CGenFF output mol2 file
@<TRIPOS>ATOM
1	N1    88.4690    62.2410    85.2960	N.pl3	1	UNL1    -0.6600
2	N2    87.9380    64.3710    86.0240	N.2	1	UNL1    -1.0690
3	N3    90.0040    67.3600    86.4210	N.2	1	UNL1    -0.6120
4	N4    87.3770    66.4540    86.7540	N.2	1	UNL1    -0.1760
5	N5    91.8430    65.4190    85.3920	N.pl3	1	UNL1    -0.8550
6	N6    90.1390    63.8420    85.3750	N.2	1	UNL1    -1.3650
7	N7    88.6590    70.6310    86.4820	N.pl3	1	UNL1    -0.3230
8	C1    88.8660    63.5280    85.5880	C.cat	1	UNL1     2.1300
9	C2    88.3140    65.6160    86.2980	C.2	1	UNL1     1.1360
10	C3    89.6250    66.0770    86.1300	C.3	1	UNL1     0.4670
11	C4    89.0450    68.1830    86.9030	C.2	1	UNL1     0.3790
12	C5    87.7500    67.7210    87.0600	C.2	1	UNL1     0.1530
13	C6    90.4990    65.1020    85.6620	C.cat	1	UNL1     0.6460
14	C7    89.4160    69.6090    87.2660	C.3	1	UNL1    -0.1890
15	C8    89.0530    70.6070    85.0940	C.ar	1	UNL1     0.2390
16	C9    90.4020    70.8150    84.7500	C.ar	1	UNL1    -0.1920
17	C10    90.8350    70.7490    83.4220	C.ar	1	UNL1    -0.0990
18	C11    89.9260    70.4850    82.3990	C.ar	1	UNL1    -0.1070
19	C12    88.5780    70.3080    82.6990	C.ar	1	UNL1    -0.1020
20	C13    88.1440    70.3820    84.0280	C.ar	1	UNL1    -0.1130
21	C14    86.7160    70.2580    84.3360	C.3	1	UNL1    -0.1870
22	C15    86.2720    71.4140    84.8540	C.3	1	UNL1    -0.1870
23	C16    86.2580    71.4260    86.3240	C.ar	1	UNL1    -0.1130
24	C17    85.0730    71.8540    86.9440	C.ar	1	UNL1    -0.1020
25	C18    84.9970    71.9390    88.3290	C.ar	1	UNL1    -0.1070
26	C19    86.1080    71.6150    89.0940	C.ar	1	UNL1    -0.0990
27	C20    87.2930    71.1910    88.4780	C.ar	1	UNL1    -0.1920
28	C21    87.4120    71.0560    87.0760	C.ar	1	UNL1     0.2390
29	H1    89.1267    61.5850    84.9700	H	1	UNL1     0.4380
30	H2    87.5277    61.9776    85.4134	H	1	UNL1     0.4380
31	H3    92.4559    64.7233    85.0609	H	1	UNL1     0.4230
32	H4    92.1705    66.3365    85.5342	H	1	UNL1     0.4230
33	H5    89.9636    67.0911    86.1734	H	1	UNL1     0.0900
34	H6    87.0362    68.3700    87.4264	H	1	UNL1     0.1880
35	H7    89.2132    69.7591    88.3058	H	1	UNL1     0.0900
36	H8    90.4534    69.7362    87.0368	H	1	UNL1     0.0900
37	H9    91.0866    71.0208    85.4943	H	1	UNL1     0.1150
38	H10    91.8317    70.8964    83.1985	H	1	UNL1     0.1150
39	H11    90.2513    70.4209    81.4217	H	1	UNL1     0.1150
40	H12    87.9001    70.1226    81.9433	H	1	UNL1     0.1150
41	H13    86.5703    69.4695    85.0445	H	1	UNL1     0.0900
42	H14    86.1742    70.0348    83.4407	H	1	UNL1     0.0900
43	H15    85.2751    71.5823    84.5036	H	1	UNL1     0.0900
44	H16    86.9461    72.1823    84.5375	H	1	UNL1     0.0900
45	H17    84.2546    72.1067    86.3683	H	1	UNL1     0.1150
46	H18    84.1215    72.2406    88.7846	H	1	UNL1     0.1150
47	H19    86.0615    71.6866    90.1225	H	1	UNL1     0.1150
48	H20    88.1089    70.9691    89.0697	H	1	UNL1     0.1150
@<TRIPOS>BOND
1	1	8	1
2	1	29	1
3	1	30	1
4	2	8	2
5	2	9	2
6	3	10	1
7	3	11	2
8	4	9	1
9	4	12	2
10	5	13	1
11	5	31	1
12	5	32	1
13	6	8	1
14	6	13	2
15	7	15	1
16	7	28	1
17	7	14	1
18	9	10	1
19	10	13	1
20	10	33	1
21	11	12	1
22	11	14	1
23	12	34	1
24	14	35	1
25	14	36	1
26	15	20	2
27	15	16	1
28	16	17	2
29	16	37	1
30	17	18	1
31	17	38	1
32	18	19	2
33	18	39	1
34	19	20	1
35	19	40	1
36	20	21	1
37	21	22	1
38	21	41	1
39	21	42	1
40	22	23	1
41	22	43	1
42	22	44	1
43	23	24	2
44	23	28	1
45	24	25	1
46	24	45	1
47	25	26	2
48	25	46	1
49	26	27	1
50	26	47	1
51	27	28	2
52	27	48	1
