@<TRIPOS>MOLECULE
TOP3 
43 45 0 0 0
SMALL
USER_CHARGES
#CGenFF output mol2 file
@<TRIPOS>ATOM
1	C1    87.6370    63.7460    88.5110	C.3	1	TOP3    -0.2640
2	C2    88.1200    65.0100    87.8440	C.ar	1	TOP3     0.0370
3	C3    87.4880    66.2470    88.0910	C.ar	1	TOP3     0.0100
4	C4    87.9390    67.4000    87.4160	C.ar	1	TOP3     0.1500
5	C5    89.0390    67.3520    86.5430	C.ar	1	TOP3    -0.0320
6	C6    89.4800    68.6030    85.8310	C.3	1	TOP3    -0.1640
7	C7    88.3870    69.6560    85.8200	C.3	1	TOP3    -0.2140
8	C8    87.7530    69.8070    87.2090	C.3	1	TOP3     0.1060
9	C9    88.7490    70.2890    88.2830	C.3	1	TOP3    -0.2700
10	C10    89.7420    66.1360    86.3750	C.ar	1	TOP3     0.0270
11	C11    89.2420    64.9780    87.0000	C.ar	1	TOP3    -0.0030
12	C12    90.9770    66.0710    85.5130	C.3	1	TOP3    -0.2640
13	C13    86.2980    66.3350    89.0170	C.3	1	TOP3    -0.2640
14	C14    86.5850    70.8080    87.0920	C.ar	1	TOP3     0.0830
15	C15    85.9110    71.2800    88.2330	C.ar	1	TOP3    -0.1180
16	C16    84.8410    72.1710    88.1240	C.ar	1	TOP3    -0.1150
17	C17    84.4170    72.6040    86.8720	C.ar	1	TOP3    -0.1150
18	C18    85.0600    72.1420    85.7260	C.ar	1	TOP3    -0.1150
19	C19    86.1300    71.2490    85.8350	C.ar	1	TOP3    -0.1180
20	O1    87.2240    68.5450    87.6570	O.3	1	TOP3    -0.3170
21	O2    89.8400    63.7600    86.8020	O.3	1	TOP3    -0.4750
22	H1    88.2430    62.9224    88.1957	H	1	TOP3     0.0900
23	H2    86.6186    63.5649    88.2371	H	1	TOP3     0.0900
24	H3    87.7068    63.8541    89.5732	H	1	TOP3     0.0900
25	H4    90.3399    69.0006    86.3284	H	1	TOP3     0.0900
26	H5    89.7082    68.3477    84.8173	H	1	TOP3     0.0900
27	H6    87.6308    69.3678    85.1200	H	1	TOP3     0.0900
28	H7    88.8204    70.5934    85.5400	H	1	TOP3     0.0900
29	H8    89.1664    71.2285    87.9864	H	1	TOP3     0.0900
30	H9    89.5329    69.5688    88.3914	H	1	TOP3     0.0900
31	H10    88.2389    70.4041    89.2165	H	1	TOP3     0.0900
32	H11    91.1964    67.0457    85.1300	H	1	TOP3     0.0900
33	H12    90.8086    65.3975    84.6988	H	1	TOP3     0.0900
34	H13    91.8026    65.7236    86.0983	H	1	TOP3     0.0900
35	H14    85.9641    67.3500    89.0732	H	1	TOP3     0.0900
36	H15    86.5795    65.9976    89.9926	H	1	TOP3     0.0900
37	H16    85.5074    65.7197    88.6412	H	1	TOP3     0.0900
38	H17    86.2126    70.9622    89.1674	H	1	TOP3     0.1150
39	H18    84.3638    72.5089    88.9744	H	1	TOP3     0.1150
40	H19    83.6287    73.2653    86.7924	H	1	TOP3     0.1150
41	H20    84.7462    72.4593    84.7955	H	1	TOP3     0.1150
42	H21    86.5944    70.9072    84.9791	H	1	TOP3     0.1150
43	H22    90.5915    63.6918    86.2465	H	1	TOP3     0.4200
@<TRIPOS>BOND
1	1	2	1
2	1	22	1
3	1	23	1
4	1	24	1
5	2	11	2
6	2	3	1
7	3	4	2
8	3	13	1
9	4	5	1
10	4	20	1
11	5	6	1
12	5	10	2
13	6	7	1
14	6	25	1
15	6	26	1
16	7	8	1
17	7	27	1
18	7	28	1
19	8	14	1
20	8	20	1
21	8	9	1
22	9	29	1
23	9	30	1
24	9	31	1
25	10	12	1
26	10	11	1
27	11	21	1
28	12	32	1
29	12	33	1
30	12	34	1
31	13	35	1
32	13	36	1
33	13	37	1
34	14	19	2
35	14	15	1
36	15	16	2
37	15	38	1
38	16	17	1
39	16	39	1
40	17	18	2
41	17	40	1
42	18	19	1
43	18	41	1
44	19	42	1
45	21	43	1
